MODEL 1
REMARK VINA RESULT:      -6.0      0.000      0.000
REMARK  Name = 
REMARK  6 active torsions:
REMARK  status: ('A' for Active; 'I' for Inactive)
REMARK    1  A    between atoms: C_16  and  C_18
REMARK    2  A    between atoms: C_18  and  S_19
REMARK    3  A    between atoms: S_19  and  C_20
REMARK    4  A    between atoms: N_22  and  C_23
REMARK    5  A    between atoms: C_23  and  C_24
REMARK    6  A    between atoms: C_24  and  C_25
REMARK                            x       y       z     vdW  Elec       q    Type
REMARK                         _______ _______ _______ _____ _____    ______ ____
ROOT
ATOM      1  C   UNL     1       7.232  -2.309  23.453  0.00  0.00    +0.068 C 
ATOM      2  N   UNL     1       7.925  -1.026  23.584  0.00  0.00    -0.298 NA
ATOM      3  C   UNL     1       8.156  -0.735  25.011  0.00  0.00    +0.089 C 
ATOM      4  C   UNL     1       7.298  -1.545  26.045  0.00  0.00    +0.013 C 
ATOM      5  C   UNL     1       5.843  -1.752  25.512  0.00  0.00    +0.015 C 
ATOM      6  C   UNL     1       5.756  -2.228  24.028  0.00  0.00    +0.037 C 
ATOM      7  C   UNL     1       4.993  -3.522  23.778  0.00  0.00    -0.033 A 
ATOM      8  C   UNL     1       5.612  -4.491  22.969  0.00  0.00    +0.006 A 
ATOM      9  C   UNL     1       5.073  -5.737  22.736  0.00  0.00    +0.047 A 
ATOM     10  C   UNL     1       3.785  -6.060  23.149  0.00  0.00    +0.026 A 
ATOM     11  C   UNL     1       3.076  -5.042  23.821  0.00  0.00    +0.002 A 
ATOM     12  N   UNL     1       6.050  -6.446  22.067  0.00  0.00    -0.360 N 
ATOM     13  H   UNL     1       5.998  -7.424  21.829  0.00  0.00    +0.165 HD
ATOM     14  C   UNL     1       7.109  -5.615  21.748  0.00  0.00    +0.087 A 
ATOM     15  C   UNL     1       6.787  -4.363  22.203  0.00  0.00    -0.021 A 
ATOM     16  C   UNL     1       3.675  -3.810  24.155  0.00  0.00    +0.004 A 
ATOM     17  C   UNL     1       7.428  -3.021  22.093  0.00  0.00    +0.056 C 
ENDROOT
BRANCH   2  18
ATOM     18  C   UNL     1       7.293   0.066  22.826  0.00  0.00    +0.084 C 
BRANCH  18  19
ATOM     19  C   UNL     1       8.379   0.939  22.192  0.00  0.00    +0.012 C 
ATOM     20  C   UNL     1       9.405   0.113  21.428  0.00  0.00    +0.005 C 
ENDBRANCH  18  19
ENDBRANCH   2  18
BRANCH   4  21
ATOM     21  C   UNL     1       7.869  -2.904  26.554  0.00  0.00    +0.073 C 
BRANCH  21  22
ATOM     22  S   UNL     1       6.694  -4.181  27.119  0.00  0.00    -0.164 S 
ATOM     23  C   UNL     1       7.145  -5.547  26.027  0.00  0.00    +0.084 C 
ENDBRANCH  21  22
ENDBRANCH   4  21
TORSDOF 4
ENDMDL
MODEL 2
REMARK VINA RESULT:      -5.9      2.258      5.695
REMARK  Name = 
REMARK  6 active torsions:
REMARK  status: ('A' for Active; 'I' for Inactive)
REMARK    1  A    between atoms: C_16  and  C_18
REMARK    2  A    between atoms: C_18  and  S_19
REMARK    3  A    between atoms: S_19  and  C_20
REMARK    4  A    between atoms: N_22  and  C_23
REMARK    5  A    between atoms: C_23  and  C_24
REMARK    6  A    between atoms: C_24  and  C_25
REMARK                            x       y       z     vdW  Elec       q    Type
REMARK                         _______ _______ _______ _____ _____    ______ ____
ROOT
ATOM      1  C   UNL     1       7.299  -2.477  23.696  0.00  0.00    +0.068 C 
ATOM      2  N   UNL     1       6.925  -3.831  23.281  0.00  0.00    -0.298 NA
ATOM      3  C   UNL     1       7.458  -4.808  24.249  0.00  0.00    +0.089 C 
ATOM      4  C   UNL     1       8.601  -4.307  25.200  0.00  0.00    +0.013 C 
ATOM      5  C   UNL     1       9.573  -3.348  24.437  0.00  0.00    +0.015 C 
ATOM      6  C   UNL     1       8.865  -2.251  23.583  0.00  0.00    +0.037 C 
ATOM      7  C   UNL     1       9.238  -0.808  23.893  0.00  0.00    -0.033 A 
ATOM      8  C   UNL     1       8.186   0.111  24.062  0.00  0.00    +0.006 A 
ATOM      9  C   UNL     1       8.381   1.422  24.431  0.00  0.00    +0.047 A 
ATOM     10  C   UNL     1       9.654   1.978  24.495  0.00  0.00    +0.026 A 
ATOM     11  C   UNL     1      10.723   1.118  24.167  0.00  0.00    +0.002 A 
ATOM     12  N   UNL     1       7.122   1.932  24.673  0.00  0.00    -0.360 N 
ATOM     13  H   UNL     1       6.927   2.848  25.047  0.00  0.00    +0.165 HD
ATOM     14  C   UNL     1       6.157   1.012  24.308  0.00  0.00    +0.087 A 
ATOM     15  C   UNL     1       6.814  -0.084  23.811  0.00  0.00    -0.021 A 
ATOM     16  C   UNL     1      10.524  -0.252  23.901  0.00  0.00    +0.004 A 
ATOM     17  C   UNL     1       6.376  -1.354  23.165  0.00  0.00    +0.056 C 
ENDROOT
BRANCH   2  18
ATOM     18  C   UNL     1       7.240  -4.123  21.873  0.00  0.00    +0.084 C 
BRANCH  18  19
ATOM     19  C   UNL     1       7.209  -5.638  21.650  0.00  0.00    +0.012 C 
ATOM     20  C   UNL     1       6.081  -6.057  20.717  0.00  0.00    +0.005 C 
ENDBRANCH  18  19
ENDBRANCH   2  18
BRANCH   4  21
ATOM     21  C   UNL     1       8.185  -3.663  26.558  0.00  0.00    +0.073 C 
BRANCH  21  22
ATOM     22  S   UNL     1       6.461  -3.865  27.121  0.00  0.00    -0.164 S 
ATOM     23  C   UNL     1       6.543  -5.520  27.840  0.00  0.00    +0.084 C 
ENDBRANCH  21  22
ENDBRANCH   4  21
TORSDOF 4
ENDMDL
MODEL 3
REMARK VINA RESULT:      -5.7      2.189      3.488
REMARK  Name = 
REMARK  6 active torsions:
REMARK  status: ('A' for Active; 'I' for Inactive)
REMARK    1  A    between atoms: C_16  and  C_18
REMARK    2  A    between atoms: C_18  and  S_19
REMARK    3  A    between atoms: S_19  and  C_20
REMARK    4  A    between atoms: N_22  and  C_23
REMARK    5  A    between atoms: C_23  and  C_24
REMARK    6  A    between atoms: C_24  and  C_25
REMARK                            x       y       z     vdW  Elec       q    Type
REMARK                         _______ _______ _______ _____ _____    ______ ____
ROOT
ATOM      1  C   UNL     1       7.949  -2.783  25.080  0.00  0.00    +0.068 C 
ATOM      2  N   UNL     1       8.891  -1.706  24.769  0.00  0.00    -0.298 NA
ATOM      3  C   UNL     1       8.145  -0.463  24.496  0.00  0.00    +0.089 C 
ATOM      4  C   UNL     1       6.618  -0.613  24.170  0.00  0.00    +0.013 C 
ATOM      5  C   UNL     1       6.362  -1.889  23.302  0.00  0.00    +0.015 C 
ATOM      6  C   UNL     1       7.083  -3.176  23.810  0.00  0.00    +0.037 C 
ATOM      7  C   UNL     1       6.194  -4.379  24.098  0.00  0.00    -0.033 A 
ATOM      8  C   UNL     1       6.379  -5.040  25.326  0.00  0.00    +0.006 A 
ATOM      9  C   UNL     1       5.586  -6.083  25.749  0.00  0.00    +0.047 A 
ATOM     10  C   UNL     1       4.649  -6.671  24.906  0.00  0.00    +0.026 A 
ATOM     11  C   UNL     1       4.559  -6.132  23.606  0.00  0.00    +0.002 A 
ATOM     12  N   UNL     1       5.956  -6.326  27.055  0.00  0.00    -0.360 N 
ATOM     13  H   UNL     1       5.501  -6.976  27.677  0.00  0.00    +0.165 HD
ATOM     14  C   UNL     1       7.062  -5.565  27.387  0.00  0.00    +0.087 A 
ATOM     15  C   UNL     1       7.406  -4.847  26.271  0.00  0.00    -0.021 A 
ATOM     16  C   UNL     1       5.293  -4.991  23.218  0.00  0.00    +0.004 A 
ATOM     17  C   UNL     1       8.535  -3.937  25.927  0.00  0.00    +0.056 C 
ENDROOT
BRANCH   2  18
ATOM     18  C   UNL     1       9.882  -2.067  23.742  0.00  0.00    +0.084 C 
BRANCH  18  19
ATOM     19  C   UNL     1      10.136  -0.861  22.835  0.00  0.00    +0.012 C 
ATOM     20  C   UNL     1       9.540  -1.051  21.447  0.00  0.00    +0.005 C 
ENDBRANCH  18  19
ENDBRANCH   2  18
BRANCH   4  21
ATOM     21  C   UNL     1       5.615  -0.581  25.364  0.00  0.00    +0.073 C 
BRANCH  21  22
ATOM     22  S   UNL     1       5.078   1.043  26.001  0.00  0.00    -0.164 S 
ATOM     23  C   UNL     1       5.135   2.025  24.487  0.00  0.00    +0.084 C 
ENDBRANCH  21  22
ENDBRANCH   4  21
TORSDOF 4
ENDMDL
MODEL 4
REMARK VINA RESULT:      -5.7      1.947      2.737
REMARK  Name = 
REMARK  6 active torsions:
REMARK  status: ('A' for Active; 'I' for Inactive)
REMARK    1  A    between atoms: C_16  and  C_18
REMARK    2  A    between atoms: C_18  and  S_19
REMARK    3  A    between atoms: S_19  and  C_20
REMARK    4  A    between atoms: N_22  and  C_23
REMARK    5  A    between atoms: C_23  and  C_24
REMARK    6  A    between atoms: C_24  and  C_25
REMARK                            x       y       z     vdW  Elec       q    Type
REMARK                         _______ _______ _______ _____ _____    ______ ____
ROOT
ATOM      1  C   UNL     1       8.983  -1.367  24.163  0.00  0.00    +0.068 C 
ATOM      2  N   UNL     1       9.780  -0.153  23.975  0.00  0.00    -0.298 NA
ATOM      3  C   UNL     1       9.094   0.989  24.608  0.00  0.00    +0.089 C 
ATOM      4  C   UNL     1       7.571   0.805  24.936  0.00  0.00    +0.013 C 
ATOM      5  C   UNL     1       6.859  -0.011  23.808  0.00  0.00    +0.015 C 
ATOM      6  C   UNL     1       7.621  -1.294  23.353  0.00  0.00    +0.037 C 
ATOM      7  C   UNL     1       6.852  -2.605  23.447  0.00  0.00    -0.033 A 
ATOM      8  C   UNL     1       7.499  -3.692  24.063  0.00  0.00    +0.006 A 
ATOM      9  C   UNL     1       6.887  -4.904  24.292  0.00  0.00    +0.047 A 
ATOM     10  C   UNL     1       5.631  -5.194  23.769  0.00  0.00    +0.026 A 
ATOM     11  C   UNL     1       5.028  -4.175  23.002  0.00  0.00    +0.002 A 
ATOM     12  N   UNL     1       7.768  -5.625  25.071  0.00  0.00    -0.360 N 
ATOM     13  H   UNL     1       7.578  -6.525  25.482  0.00  0.00    +0.165 HD
ATOM     14  C   UNL     1       8.966  -4.944  25.189  0.00  0.00    +0.087 A 
ATOM     15  C   UNL     1       8.846  -3.790  24.461  0.00  0.00    -0.021 A 
ATOM     16  C   UNL     1       5.611  -2.897  22.868  0.00  0.00    +0.004 A 
ATOM     17  C   UNL     1       9.783  -2.690  24.094  0.00  0.00    +0.056 C 
ENDROOT
BRANCH   2  18
ATOM     18  C   UNL     1      10.191   0.072  22.580  0.00  0.00    +0.084 C 
BRANCH  18  19
ATOM     19  C   UNL     1       9.854   1.509  22.177  0.00  0.00    +0.012 C 
ATOM     20  C   UNL     1       8.701   1.571  21.184  0.00  0.00    +0.005 C 
ENDBRANCH  18  19
ENDBRANCH   2  18
BRANCH   4  21
ATOM     21  C   UNL     1       7.196   0.213  26.329  0.00  0.00    +0.073 C 
BRANCH  21  22
ATOM     22  S   UNL     1       5.509  -0.443  26.567  0.00  0.00    -0.164 S 
ATOM     23  C   UNL     1       5.879  -2.165  26.963  0.00  0.00    +0.084 C 
ENDBRANCH  21  22
ENDBRANCH   4  21
TORSDOF 4
ENDMDL
MODEL 5
REMARK VINA RESULT:      -5.6      2.338      3.394
REMARK  Name = 
REMARK  6 active torsions:
REMARK  status: ('A' for Active; 'I' for Inactive)
REMARK    1  A    between atoms: C_16  and  C_18
REMARK    2  A    between atoms: C_18  and  S_19
REMARK    3  A    between atoms: S_19  and  C_20
REMARK    4  A    between atoms: N_22  and  C_23
REMARK    5  A    between atoms: C_23  and  C_24
REMARK    6  A    between atoms: C_24  and  C_25
REMARK                            x       y       z     vdW  Elec       q    Type
REMARK                         _______ _______ _______ _____ _____    ______ ____
ROOT
ATOM      1  C   UNL     1       8.829  -0.983  24.044  0.00  0.00    +0.068 C 
ATOM      2  N   UNL     1       9.276   0.411  24.068  0.00  0.00    -0.298 NA
ATOM      3  C   UNL     1       8.158   1.280  24.482  0.00  0.00    +0.089 C 
ATOM      4  C   UNL     1       6.717   0.668  24.386  0.00  0.00    +0.013 C 
ATOM      5  C   UNL     1       6.582  -0.232  23.114  0.00  0.00    +0.015 C 
ATOM      6  C   UNL     1       7.764  -1.227  22.895  0.00  0.00    +0.037 C 
ATOM      7  C   UNL     1       7.394  -2.701  22.788  0.00  0.00    -0.033 A 
ATOM      8  C   UNL     1       8.132  -3.611  23.566  0.00  0.00    +0.006 A 
ATOM      9  C   UNL     1       7.845  -4.956  23.630  0.00  0.00    +0.047 A 
ATOM     10  C   UNL     1       6.903  -5.539  22.789  0.00  0.00    +0.026 A 
ATOM     11  C   UNL     1       6.264  -4.672  21.879  0.00  0.00    +0.002 A 
ATOM     12  N   UNL     1       8.655  -5.462  24.625  0.00  0.00    -0.360 N 
ATOM     13  H   UNL     1       8.622  -6.406  24.978  0.00  0.00    +0.165 HD
ATOM     14  C   UNL     1       9.541  -4.493  25.058  0.00  0.00    +0.087 A 
ATOM     15  C   UNL     1       9.300  -3.367  24.314  0.00  0.00    -0.021 A 
ATOM     16  C   UNL     1       6.481  -3.278  21.897  0.00  0.00    +0.004 A 
ATOM     17  C   UNL     1       9.955  -2.032  24.206  0.00  0.00    +0.056 C 
ENDROOT
BRANCH   2  18
ATOM     18  C   UNL     1       9.960   0.832  22.834  0.00  0.00    +0.084 C 
BRANCH  18  19
ATOM     19  C   UNL     1       9.807   2.345  22.661  0.00  0.00    +0.012 C 
ATOM     20  C   UNL     1      10.942   3.116  23.321  0.00  0.00    +0.005 C 
ENDBRANCH  18  19
ENDBRANCH   2  18
BRANCH   4  21
ATOM     21  C   UNL     1       6.169  -0.096  25.630  0.00  0.00    +0.073 C 
BRANCH  21  22
ATOM     22  S   UNL     1       6.959   0.202  27.248  0.00  0.00    -0.164 S 
ATOM     23  C   UNL     1       5.502   0.301  28.311  0.00  0.00    +0.084 C 
ENDBRANCH  21  22
ENDBRANCH   4  21
TORSDOF 4
ENDMDL
MODEL 6
REMARK VINA RESULT:      -5.5      2.701      4.434
REMARK  Name = 
REMARK  6 active torsions:
REMARK  status: ('A' for Active; 'I' for Inactive)
REMARK    1  A    between atoms: C_16  and  C_18
REMARK    2  A    between atoms: C_18  and  S_19
REMARK    3  A    between atoms: S_19  and  C_20
REMARK    4  A    between atoms: N_22  and  C_23
REMARK    5  A    between atoms: C_23  and  C_24
REMARK    6  A    between atoms: C_24  and  C_25
REMARK                            x       y       z     vdW  Elec       q    Type
REMARK                         _______ _______ _______ _____ _____    ______ ____
ROOT
ATOM      1  C   UNL     1       7.330  -0.517  24.324  0.00  0.00    +0.068 C 
ATOM      2  N   UNL     1       6.968   0.879  24.577  0.00  0.00    -0.298 NA
ATOM      3  C   UNL     1       8.194   1.689  24.711  0.00  0.00    +0.089 C 
ATOM      4  C   UNL     1       9.527   0.911  24.988  0.00  0.00    +0.013 C 
ATOM      5  C   UNL     1       9.273  -0.293  25.953  0.00  0.00    +0.015 C 
ATOM      6  C   UNL     1       8.034  -1.168  25.587  0.00  0.00    +0.037 C 
ATOM      7  C   UNL     1       8.296  -2.652  25.371  0.00  0.00    -0.033 A 
ATOM      8  C   UNL     1       7.756  -3.242  24.213  0.00  0.00    +0.006 A 
ATOM      9  C   UNL     1       7.992  -4.549  23.852  0.00  0.00    +0.047 A 
ATOM     10  C   UNL     1       8.644  -5.433  24.705  0.00  0.00    +0.026 A 
ATOM     11  C   UNL     1       9.051  -4.907  25.949  0.00  0.00    +0.002 A 
ATOM     12  N   UNL     1       7.459  -4.688  22.587  0.00  0.00    -0.360 N 
ATOM     13  H   UNL     1       7.544  -5.508  22.006  0.00  0.00    +0.165 HD
ATOM     14  C   UNL     1       6.766  -3.544  22.233  0.00  0.00    +0.087 A 
ATOM     15  C   UNL     1       6.846  -2.682  23.296  0.00  0.00    -0.021 A 
ATOM     16  C   UNL     1       8.908  -3.540  26.264  0.00  0.00    +0.004 A 
ATOM     17  C   UNL     1       6.246  -1.353  23.603  0.00  0.00    +0.056 C 
ENDROOT
BRANCH   2  18
ATOM     18  C   UNL     1       5.996   1.047  25.668  0.00  0.00    +0.084 C 
BRANCH  18  19
ATOM     19  C   UNL     1       6.502   2.117  26.639  0.00  0.00    +0.012 C 
ATOM     20  C   UNL     1       6.703   1.568  28.045  0.00  0.00    +0.005 C 
ENDBRANCH  18  19
ENDBRANCH   2  18
BRANCH   4  21
ATOM     21  C   UNL     1      10.357   0.432  23.758  0.00  0.00    +0.073 C 
BRANCH  21  22
ATOM     22  S   UNL     1       9.909   1.071  22.108  0.00  0.00    -0.164 S 
ATOM     23  C   UNL     1       9.348  -0.448  21.309  0.00  0.00    +0.084 C 
ENDBRANCH  21  22
ENDBRANCH   4  21
TORSDOF 4
ENDMDL
MODEL 7
REMARK VINA RESULT:      -5.4      2.318      4.393
REMARK  Name = 
REMARK  6 active torsions:
REMARK  status: ('A' for Active; 'I' for Inactive)
REMARK    1  A    between atoms: C_16  and  C_18
REMARK    2  A    between atoms: C_18  and  S_19
REMARK    3  A    between atoms: S_19  and  C_20
REMARK    4  A    between atoms: N_22  and  C_23
REMARK    5  A    between atoms: C_23  and  C_24
REMARK    6  A    between atoms: C_24  and  C_25
REMARK                            x       y       z     vdW  Elec       q    Type
REMARK                         _______ _______ _______ _____ _____    ______ ____
ROOT
ATOM      1  C   UNL     1       7.872  -1.385  24.972  0.00  0.00    +0.068 C 
ATOM      2  N   UNL     1       8.735  -0.486  24.203  0.00  0.00    -0.298 NA
ATOM      3  C   UNL     1       8.923  -1.028  22.844  0.00  0.00    +0.089 C 
ATOM      4  C   UNL     1       8.579  -2.544  22.635  0.00  0.00    +0.013 C 
ATOM      5  C   UNL     1       9.008  -3.384  23.882  0.00  0.00    +0.015 C 
ATOM      6  C   UNL     1       8.590  -2.771  25.254  0.00  0.00    +0.037 C 
ATOM      7  C   UNL     1       7.746  -3.657  26.160  0.00  0.00    -0.033 A 
ATOM      8  C   UNL     1       6.590  -3.088  26.726  0.00  0.00    +0.006 A 
ATOM      9  C   UNL     1       5.693  -3.801  27.489  0.00  0.00    +0.047 A 
ATOM     10  C   UNL     1       5.962  -5.102  27.899  0.00  0.00    +0.026 A 
ATOM     11  C   UNL     1       7.197  -5.641  27.483  0.00  0.00    +0.002 A 
ATOM     12  N   UNL     1       4.621  -2.956  27.691  0.00  0.00    -0.360 N 
ATOM     13  H   UNL     1       3.756  -3.212  28.142  0.00  0.00    +0.165 HD
ATOM     14  C   UNL     1       4.911  -1.694  27.205  0.00  0.00    +0.087 A 
ATOM     15  C   UNL     1       6.187  -1.738  26.708  0.00  0.00    -0.021 A 
ATOM     16  C   UNL     1       8.057  -4.947  26.607  0.00  0.00    +0.004 A 
ATOM     17  C   UNL     1       7.121  -0.719  26.150  0.00  0.00    +0.056 C 
ENDROOT
BRANCH   2  18
ATOM     18  C   UNL     1       9.979  -0.123  24.900  0.00  0.00    +0.084 C 
BRANCH  18  19
ATOM     19  C   UNL     1      10.493   1.214  24.358  0.00  0.00    +0.012 C 
ATOM     20  C   UNL     1       9.441   2.311  24.446  0.00  0.00    +0.005 C 
ENDBRANCH  18  19
ENDBRANCH   2  18
BRANCH   4  21
ATOM     21  C   UNL     1       7.116  -2.907  22.235  0.00  0.00    +0.073 C 
BRANCH  21  22
ATOM     22  S   UNL     1       6.526  -4.604  22.553  0.00  0.00    -0.164 S 
ATOM     23  C   UNL     1       5.071  -4.262  23.565  0.00  0.00    +0.084 C 
ENDBRANCH  21  22
ENDBRANCH   4  21
TORSDOF 4
ENDMDL
MODEL 8
REMARK VINA RESULT:      -5.4      5.123      7.114
REMARK  Name = 
REMARK  6 active torsions:
REMARK  status: ('A' for Active; 'I' for Inactive)
REMARK    1  A    between atoms: C_16  and  C_18
REMARK    2  A    between atoms: C_18  and  S_19
REMARK    3  A    between atoms: S_19  and  C_20
REMARK    4  A    between atoms: N_22  and  C_23
REMARK    5  A    between atoms: C_23  and  C_24
REMARK    6  A    between atoms: C_24  and  C_25
REMARK                            x       y       z     vdW  Elec       q    Type
REMARK                         _______ _______ _______ _____ _____    ______ ____
ROOT
ATOM      1  C   UNL     1       8.057   3.021  22.626  0.00  0.00    +0.068 C 
ATOM      2  N   UNL     1       7.408   4.303  22.344  0.00  0.00    -0.298 NA
ATOM      3  C   UNL     1       8.141   5.386  23.026  0.00  0.00    +0.089 C 
ATOM      4  C   UNL     1       9.110   4.963  24.184  0.00  0.00    +0.013 C 
ATOM      5  C   UNL     1       8.498   3.786  25.013  0.00  0.00    +0.015 C 
ATOM      6  C   UNL     1       7.909   2.624  24.155  0.00  0.00    +0.037 C 
ATOM      7  C   UNL     1       8.472   1.235  24.422  0.00  0.00    -0.033 A 
ATOM      8  C   UNL     1       8.869   0.472  23.309  0.00  0.00    +0.006 A 
ATOM      9  C   UNL     1       9.474  -0.760  23.414  0.00  0.00    +0.047 A 
ATOM     10  C   UNL     1       9.578  -1.416  24.636  0.00  0.00    +0.026 A 
ATOM     11  C   UNL     1       9.035  -0.742  25.750  0.00  0.00    +0.002 A 
ATOM     12  N   UNL     1       9.874  -1.088  22.135  0.00  0.00    -0.360 N 
ATOM     13  H   UNL     1      10.426  -1.895  21.888  0.00  0.00    +0.165 HD
ATOM     14  C   UNL     1       9.388  -0.162  21.231  0.00  0.00    +0.087 A 
ATOM     15  C   UNL     1       8.656   0.751  21.945  0.00  0.00    -0.021 A 
ATOM     16  C   UNL     1       8.520   0.567  25.653  0.00  0.00    +0.004 A 
ATOM     17  C   UNL     1       7.801   1.914  21.575  0.00  0.00    +0.056 C 
ENDROOT
BRANCH   2  18
ATOM     18  C   UNL     1       5.956   4.294  22.585  0.00  0.00    +0.084 C 
BRANCH  18  19
ATOM     19  C   UNL     1       5.563   5.552  23.363  0.00  0.00    +0.012 C 
ATOM     20  C   UNL     1       4.856   5.221  24.670  0.00  0.00    +0.005 C 
ENDBRANCH  18  19
ENDBRANCH   2  18
BRANCH   4  21
ATOM     21  C   UNL     1      10.586   4.628  23.809  0.00  0.00    +0.073 C 
BRANCH  21  22
ATOM     22  S   UNL     1      11.849   5.931  24.011  0.00  0.00    -0.164 S 
ATOM     23  C   UNL     1      11.117   6.891  25.353  0.00  0.00    +0.084 C 
ENDBRANCH  21  22
ENDBRANCH   4  21
TORSDOF 4
ENDMDL
MODEL 9
REMARK VINA RESULT:      -5.4      2.212      5.959
REMARK  Name = 
REMARK  6 active torsions:
REMARK  status: ('A' for Active; 'I' for Inactive)
REMARK    1  A    between atoms: C_16  and  C_18
REMARK    2  A    between atoms: C_18  and  S_19
REMARK    3  A    between atoms: S_19  and  C_20
REMARK    4  A    between atoms: N_22  and  C_23
REMARK    5  A    between atoms: C_23  and  C_24
REMARK    6  A    between atoms: C_24  and  C_25
REMARK                            x       y       z     vdW  Elec       q    Type
REMARK                         _______ _______ _______ _____ _____    ______ ____
ROOT
ATOM      1  C   UNL     1       7.085  -1.848  24.096  0.00  0.00    +0.068 C 
ATOM      2  N   UNL     1       6.514  -3.185  24.271  0.00  0.00    -0.298 NA
ATOM      3  C   UNL     1       6.252  -3.425  25.703  0.00  0.00    +0.089 C 
ATOM      4  C   UNL     1       6.983  -2.482  26.721  0.00  0.00    +0.013 C 
ATOM      5  C   UNL     1       8.433  -2.160  26.232  0.00  0.00    +0.015 C 
ATOM      6  C   UNL     1       8.536  -1.754  24.729  0.00  0.00    +0.037 C 
ATOM      7  C   UNL     1       9.180  -0.405  24.437  0.00  0.00    -0.033 A 
ATOM      8  C   UNL     1       8.504   0.457  23.553  0.00  0.00    +0.006 A 
ATOM      9  C   UNL     1       8.929   1.735  23.273  0.00  0.00    +0.047 A 
ATOM     10  C   UNL     1      10.161   2.205  23.715  0.00  0.00    +0.026 A 
ATOM     11  C   UNL     1      10.937   1.298  24.468  0.00  0.00    +0.002 A 
ATOM     12  N   UNL     1       7.918   2.309  22.531  0.00  0.00    -0.360 N 
ATOM     13  H   UNL     1       7.885   3.275  22.241  0.00  0.00    +0.165 HD
ATOM     14  C   UNL     1       6.959   1.363  22.218  0.00  0.00    +0.087 A 
ATOM     15  C   UNL     1       7.381   0.173  22.753  0.00  0.00    -0.021 A 
ATOM     16  C   UNL     1      10.446   0.032  24.847  0.00  0.00    +0.004 A 
ATOM     17  C   UNL     1       6.878  -1.229  22.692  0.00  0.00    +0.056 C 
ENDROOT
BRANCH   2  18
ATOM     18  C   UNL     1       7.280  -4.246  23.598  0.00  0.00    +0.084 C 
BRANCH  18  19
ATOM     19  C   UNL     1       6.343  -5.405  23.247  0.00  0.00    +0.012 C 
ATOM     20  C   UNL     1       6.537  -5.885  21.815  0.00  0.00    +0.005 C 
ENDBRANCH  18  19
ENDBRANCH   2  18
BRANCH   4  21
ATOM     21  C   UNL     1       6.262  -1.162  27.134  0.00  0.00    +0.073 C 
BRANCH  21  22
ATOM     22  S   UNL     1       7.284   0.267  27.627  0.00  0.00    -0.164 S 
ATOM     23  C   UNL     1       6.661   1.523  26.490  0.00  0.00    +0.084 C 
ENDBRANCH  21  22
ENDBRANCH   4  21
TORSDOF 4
ENDMDL
