MODEL 1
REMARK VINA RESULT:      -6.5      0.000      0.000
REMARK  Name = 
REMARK  7 active torsions:
REMARK  status: ('A' for Active; 'I' for Inactive)
REMARK    1  A    between atoms: C_1  and  N_2
REMARK    2  A    between atoms: N_2  and  C_3
REMARK    3  A    between atoms: N_2  and  C_4
REMARK    4  A    between atoms: C_7  and  C_10
REMARK    5  A    between atoms: C_17  and  C_19
REMARK    6  A    between atoms: C_25  and  N_28
REMARK    7  A    between atoms: N_31  and  C_32
REMARK                            x       y       z     vdW  Elec       q    Type
REMARK                         _______ _______ _______ _____ _____    ______ ____
ROOT
ATOM      1  C   UNL     1       4.058  -5.529  24.012  0.00  0.00    +0.139 A 
ATOM      2  N   UNL     1       5.299  -5.847  23.505  0.00  0.00    -0.338 N 
ATOM      3  H   UNL     1       5.662  -6.781  23.396  0.00  0.00    +0.167 HD
ATOM      4  C   UNL     1       6.002  -4.686  23.305  0.00  0.00    +0.067 A 
ATOM      5  C   UNL     1       7.304  -4.431  22.882  0.00  0.00    +0.028 A 
ATOM      6  C   UNL     1       7.685  -3.082  22.818  0.00  0.00    +0.013 A 
ATOM      7  C   UNL     1       6.808  -2.033  23.152  0.00  0.00    +0.019 A 
ATOM      8  C   UNL     1       5.502  -2.344  23.572  0.00  0.00    +0.041 A 
ATOM      9  C   UNL     1       5.108  -3.687  23.656  0.00  0.00    +0.090 A 
ATOM     10  N   UNL     1       3.918  -4.218  24.080  0.00  0.00    -0.228 NA
ENDROOT
BRANCH   7  11
ATOM     11  C   UNL     1       7.280  -0.645  23.055  0.00  0.00    +0.139 A 
ATOM     12  N   UNL     1       8.420  -0.172  23.669  0.00  0.00    -0.338 N 
ATOM     13  H   UNL     1       9.051  -0.713  24.239  0.00  0.00    +0.167 HD
ATOM     14  C   UNL     1       8.541   1.167  23.413  0.00  0.00    +0.068 A 
ATOM     15  C   UNL     1       9.474   2.121  23.824  0.00  0.00    +0.051 A 
ATOM     16  C   UNL     1       9.288   3.460  23.430  0.00  0.00    +0.032 A 
ATOM     17  C   UNL     1       8.186   3.757  22.607  0.00  0.00    +0.025 A 
ATOM     18  C   UNL     1       7.266   2.778  22.187  0.00  0.00    +0.032 A 
ATOM     19  C   UNL     1       7.448   1.461  22.616  0.00  0.00    +0.090 A 
ATOM     20  N   UNL     1       6.689   0.338  22.396  0.00  0.00    -0.228 NA
BRANCH  16  21
ATOM     21  N   UNL     1      10.135   4.445  23.907  0.00  0.00    -0.327 N 
ATOM     22  C   UNL     1       9.674   5.454  24.874  0.00  0.00    +0.120 C 
ATOM     23  C   UNL     1      10.286   6.831  24.529  0.00  0.00    +0.103 C 
ATOM     24  N   UNL     1      11.761   6.850  24.389  0.00  0.00    -0.302 NA
ATOM     25  C   UNL     1      12.425   6.711  25.682  0.00  0.00    +0.105 C 
ATOM     26  C   UNL     1      12.168   5.776  23.454  0.00  0.00    +0.103 C 
ATOM     27  C   UNL     1      11.593   4.366  23.749  0.00  0.00    +0.120 C 
ENDBRANCH  16  21
ENDBRANCH   7  11
BRANCH   1  31
ATOM     28  C   UNL     1       1.470  -8.576  25.659  0.00  0.00    +0.029 A 
ATOM     29  C   UNL     1       1.902  -7.467  26.404  0.00  0.00    +0.024 A 
ATOM     30  C   UNL     1       2.705  -6.460  25.848  0.00  0.00    +0.013 A 
ATOM     31  C   UNL     1       3.115  -6.526  24.517  0.00  0.00    +0.017 A 
ATOM     32  C   UNL     1       2.642  -7.578  23.735  0.00  0.00    +0.013 A 
ATOM     33  C   UNL     1       1.832  -8.578  24.300  0.00  0.00    +0.024 A 
BRANCH  28  35
ATOM     34  C   UNL     1       0.445 -10.824  25.481  0.00  0.00    +0.129 C 
ATOM     35  N   UNL     1       0.727  -9.605  26.230  0.00  0.00    -0.336 N 
ATOM     36  C   UNL     1       0.443  -9.614  27.660  0.00  0.00    +0.129 C 
ENDBRANCH  28  35
ENDBRANCH   1  31
TORSDOF 4
ENDMDL
MODEL 2
REMARK VINA RESULT:      -5.3      1.775      2.437
REMARK  Name = 
REMARK  7 active torsions:
REMARK  status: ('A' for Active; 'I' for Inactive)
REMARK    1  A    between atoms: C_1  and  N_2
REMARK    2  A    between atoms: N_2  and  C_3
REMARK    3  A    between atoms: N_2  and  C_4
REMARK    4  A    between atoms: C_7  and  C_10
REMARK    5  A    between atoms: C_17  and  C_19
REMARK    6  A    between atoms: C_25  and  N_28
REMARK    7  A    between atoms: N_31  and  C_32
REMARK                            x       y       z     vdW  Elec       q    Type
REMARK                         _______ _______ _______ _____ _____    ______ ____
ROOT
ATOM      1  C   UNL     1       3.069  -4.852  26.167  0.00  0.00    +0.139 A 
ATOM      2  N   UNL     1       3.608  -4.991  24.906  0.00  0.00    -0.338 N 
ATOM      3  H   UNL     1       3.540  -5.817  24.332  0.00  0.00    +0.167 HD
ATOM      4  C   UNL     1       4.359  -3.878  24.624  0.00  0.00    +0.067 A 
ATOM      5  C   UNL     1       5.161  -3.529  23.540  0.00  0.00    +0.028 A 
ATOM      6  C   UNL     1       5.807  -2.286  23.618  0.00  0.00    +0.013 A 
ATOM      7  C   UNL     1       5.654  -1.424  24.720  0.00  0.00    +0.019 A 
ATOM      8  C   UNL     1       4.831  -1.822  25.789  0.00  0.00    +0.041 A 
ATOM      9  C   UNL     1       4.189  -3.068  25.735  0.00  0.00    +0.090 A 
ATOM     10  N   UNL     1       3.390  -3.674  26.670  0.00  0.00    -0.228 NA
ENDROOT
BRANCH   7  11
ATOM     11  C   UNL     1       6.361  -0.136  24.724  0.00  0.00    +0.139 A 
ATOM     12  N   UNL     1       7.398   0.180  23.874  0.00  0.00    -0.338 N 
ATOM     13  H   UNL     1       7.781  -0.421  23.162  0.00  0.00    +0.167 HD
ATOM     14  C   UNL     1       7.856   1.433  24.177  0.00  0.00    +0.068 A 
ATOM     15  C   UNL     1       8.901   2.203  23.658  0.00  0.00    +0.051 A 
ATOM     16  C   UNL     1       9.163   3.460  24.234  0.00  0.00    +0.032 A 
ATOM     17  C   UNL     1       8.329   3.891  25.282  0.00  0.00    +0.025 A 
ATOM     18  C   UNL     1       7.268   3.110  25.779  0.00  0.00    +0.032 A 
ATOM     19  C   UNL     1       7.045   1.851  25.217  0.00  0.00    +0.090 A 
ATOM     20  N   UNL     1       6.125   0.882  25.536  0.00  0.00    -0.228 NA
BRANCH  16  21
ATOM     21  N   UNL     1      10.255   4.199  23.814  0.00  0.00    -0.327 N 
ATOM     22  C   UNL     1      11.402   3.566  23.147  0.00  0.00    +0.120 C 
ATOM     23  C   UNL     1      12.719   4.214  23.635  0.00  0.00    +0.103 C 
ATOM     24  N   UNL     1      12.775   5.691  23.524  0.00  0.00    -0.302 NA
ATOM     25  C   UNL     1      12.904   6.120  22.135  0.00  0.00    +0.105 C 
ATOM     26  C   UNL     1      11.567   6.266  24.158  0.00  0.00    +0.103 C 
ATOM     27  C   UNL     1      10.211   5.664  23.705  0.00  0.00    +0.120 C 
ENDBRANCH  16  21
ENDBRANCH   7  11
BRANCH   1  31
ATOM     28  C   UNL     1       1.212  -8.185  28.200  0.00  0.00    +0.029 A 
ATOM     29  C   UNL     1       2.243  -7.426  28.777  0.00  0.00    +0.024 A 
ATOM     30  C   UNL     1       2.809  -6.319  28.129  0.00  0.00    +0.013 A 
ATOM     31  C   UNL     1       2.367  -5.927  26.866  0.00  0.00    +0.017 A 
ATOM     32  C   UNL     1       1.296  -6.618  26.300  0.00  0.00    +0.013 A 
ATOM     33  C   UNL     1       0.732  -7.722  26.962  0.00  0.00    +0.024 A 
BRANCH  28  35
ATOM     34  C   UNL     1       0.443 -10.535  28.051  0.00  0.00    +0.129 C 
ATOM     35  N   UNL     1       0.696  -9.320  28.817  0.00  0.00    -0.336 N 
ATOM     36  C   UNL     1       0.648  -9.421  30.271  0.00  0.00    +0.129 C 
ENDBRANCH  28  35
ENDBRANCH   1  31
TORSDOF 4
ENDMDL
MODEL 3
REMARK VINA RESULT:      -4.8      1.987     12.971
REMARK  Name = 
REMARK  7 active torsions:
REMARK  status: ('A' for Active; 'I' for Inactive)
REMARK    1  A    between atoms: C_1  and  N_2
REMARK    2  A    between atoms: N_2  and  C_3
REMARK    3  A    between atoms: N_2  and  C_4
REMARK    4  A    between atoms: C_7  and  C_10
REMARK    5  A    between atoms: C_17  and  C_19
REMARK    6  A    between atoms: C_25  and  N_28
REMARK    7  A    between atoms: N_31  and  C_32
REMARK                            x       y       z     vdW  Elec       q    Type
REMARK                         _______ _______ _______ _____ _____    ______ ____
ROOT
ATOM      1  C   UNL     1       9.063   1.295  23.921  0.00  0.00    +0.139 A 
ATOM      2  N   UNL     1       8.996   0.288  22.983  0.00  0.00    -0.338 N 
ATOM      3  H   UNL     1       9.491   0.277  22.105  0.00  0.00    +0.167 HD
ATOM      4  C   UNL     1       8.048  -0.620  23.381  0.00  0.00    +0.067 A 
ATOM      5  C   UNL     1       7.536  -1.772  22.788  0.00  0.00    +0.028 A 
ATOM      6  C   UNL     1       6.534  -2.447  23.503  0.00  0.00    +0.013 A 
ATOM      7  C   UNL     1       6.070  -2.002  24.754  0.00  0.00    +0.019 A 
ATOM      8  C   UNL     1       6.621  -0.834  25.311  0.00  0.00    +0.041 A 
ATOM      9  C   UNL     1       7.613  -0.138  24.604  0.00  0.00    +0.090 A 
ATOM     10  N   UNL     1       8.249   1.033  24.927  0.00  0.00    -0.228 NA
ENDROOT
BRANCH   7  11
ATOM     11  C   UNL     1       5.021  -2.767  25.442  0.00  0.00    +0.139 A 
ATOM     12  N   UNL     1       5.213  -4.012  26.001  0.00  0.00    -0.338 N 
ATOM     13  H   UNL     1       6.078  -4.529  26.006  0.00  0.00    +0.167 HD
ATOM     14  C   UNL     1       4.026  -4.457  26.516  0.00  0.00    +0.068 A 
ATOM     15  C   UNL     1       3.663  -5.651  27.144  0.00  0.00    +0.051 A 
ATOM     16  C   UNL     1       2.318  -5.836  27.517  0.00  0.00    +0.032 A 
ATOM     17  C   UNL     1       1.417  -4.784  27.270  0.00  0.00    +0.025 A 
ATOM     18  C   UNL     1       1.805  -3.579  26.655  0.00  0.00    +0.032 A 
ATOM     19  C   UNL     1       3.137  -3.428  26.260  0.00  0.00    +0.090 A 
ATOM     20  N   UNL     1       3.763  -2.393  25.610  0.00  0.00    -0.228 NA
BRANCH  16  21
ATOM     21  N   UNL     1       1.906  -7.047  28.043  0.00  0.00    -0.327 N 
ATOM     22  C   UNL     1       1.799  -8.253  27.207  0.00  0.00    +0.120 C 
ATOM     23  C   UNL     1       0.545  -9.063  27.611  0.00  0.00    +0.103 C 
ATOM     24  N   UNL     1       0.443  -9.392  29.052  0.00  0.00    -0.302 NA
ATOM     25  C   UNL     1       1.412 -10.414  29.439  0.00  0.00    +0.105 C 
ATOM     26  C   UNL     1       0.619  -8.152  29.842  0.00  0.00    +0.103 C 
ATOM     27  C   UNL     1       1.865  -7.296  29.490  0.00  0.00    +0.120 C 
ENDBRANCH  16  21
ENDBRANCH   7  11
BRANCH   1  31
ATOM     28  C   UNL     1      11.494   4.852  23.563  0.00  0.00    +0.029 A 
ATOM     29  C   UNL     1      11.952   3.582  23.179  0.00  0.00    +0.024 A 
ATOM     30  C   UNL     1      11.141   2.441  23.257  0.00  0.00    +0.013 A 
ATOM     31  C   UNL     1       9.832   2.525  23.730  0.00  0.00    +0.017 A 
ATOM     32  C   UNL     1       9.328   3.784  24.051  0.00  0.00    +0.013 A 
ATOM     33  C   UNL     1      10.148   4.922  23.963  0.00  0.00    +0.024 A 
BRANCH  28  35
ATOM     34  C   UNL     1      12.377   6.875  24.688  0.00  0.00    +0.129 C 
ATOM     35  N   UNL     1      12.321   5.972  23.545  0.00  0.00    -0.336 N 
ATOM     36  C   UNL     1      13.341   6.128  22.515  0.00  0.00    +0.129 C 
ENDBRANCH  28  35
ENDBRANCH   1  31
TORSDOF 4
ENDMDL
MODEL 4
REMARK VINA RESULT:      -4.2      2.607     13.061
REMARK  Name = 
REMARK  7 active torsions:
REMARK  status: ('A' for Active; 'I' for Inactive)
REMARK    1  A    between atoms: C_1  and  N_2
REMARK    2  A    between atoms: N_2  and  C_3
REMARK    3  A    between atoms: N_2  and  C_4
REMARK    4  A    between atoms: C_7  and  C_10
REMARK    5  A    between atoms: C_17  and  C_19
REMARK    6  A    between atoms: C_25  and  N_28
REMARK    7  A    between atoms: N_31  and  C_32
REMARK                            x       y       z     vdW  Elec       q    Type
REMARK                         _______ _______ _______ _____ _____    ______ ____
ROOT
ATOM      1  C   UNL     1       7.842   3.020  24.571  0.00  0.00    +0.139 A 
ATOM      2  N   UNL     1       6.829   3.538  25.349  0.00  0.00    -0.338 N 
ATOM      3  H   UNL     1       6.763   4.497  25.654  0.00  0.00    +0.167 HD
ATOM      4  C   UNL     1       6.011   2.511  25.746  0.00  0.00    +0.067 A 
ATOM      5  C   UNL     1       4.898   2.459  26.582  0.00  0.00    +0.028 A 
ATOM      6  C   UNL     1       4.322   1.194  26.773  0.00  0.00    +0.013 A 
ATOM      7  C   UNL     1       4.824   0.034  26.154  0.00  0.00    +0.019 A 
ATOM      8  C   UNL     1       5.950   0.140  25.317  0.00  0.00    +0.041 A 
ATOM      9  C   UNL     1       6.548   1.395  25.126  0.00  0.00    +0.090 A 
ATOM     10  N   UNL     1       7.665   1.722  24.403  0.00  0.00    -0.228 NA
ENDROOT
BRANCH   7  11
ATOM     11  C   UNL     1       4.161  -1.254  26.400  0.00  0.00    +0.139 A 
ATOM     12  N   UNL     1       4.185  -2.316  25.522  0.00  0.00    -0.338 N 
ATOM     13  H   UNL     1       4.654  -2.333  24.630  0.00  0.00    +0.167 HD
ATOM     14  C   UNL     1       3.434  -3.337  26.037  0.00  0.00    +0.068 A 
ATOM     15  C   UNL     1       3.099  -4.600  25.543  0.00  0.00    +0.051 A 
ATOM     16  C   UNL     1       2.241  -5.416  26.303  0.00  0.00    +0.032 A 
ATOM     17  C   UNL     1       1.795  -4.927  27.544  0.00  0.00    +0.025 A 
ATOM     18  C   UNL     1       2.159  -3.659  28.036  0.00  0.00    +0.032 A 
ATOM     19  C   UNL     1       2.984  -2.849  27.252  0.00  0.00    +0.090 A 
ATOM     20  N   UNL     1       3.447  -1.574  27.466  0.00  0.00    -0.228 NA
BRANCH  16  21
ATOM     21  N   UNL     1       1.806  -6.627  25.792  0.00  0.00    -0.327 N 
ATOM     22  C   UNL     1       2.551  -7.873  26.028  0.00  0.00    +0.120 C 
ATOM     23  C   UNL     1       2.538  -8.743  24.750  0.00  0.00    +0.103 C 
ATOM     24  N   UNL     1       1.196  -9.013  24.182  0.00  0.00    -0.302 NA
ATOM     25  C   UNL     1       0.443  -9.952  25.009  0.00  0.00    +0.105 C 
ATOM     26  C   UNL     1       0.474  -7.730  24.026  0.00  0.00    +0.103 C 
ATOM     27  C   UNL     1       0.443  -6.813  25.277  0.00  0.00    +0.120 C 
ENDBRANCH  16  21
ENDBRANCH   7  11
BRANCH   1  31
ATOM     28  C   UNL     1      11.397   5.225  23.480  0.00  0.00    +0.029 A 
ATOM     29  C   UNL     1      11.296   3.832  23.333  0.00  0.00    +0.024 A 
ATOM     30  C   UNL     1      10.123   3.131  23.647  0.00  0.00    +0.013 A 
ATOM     31  C   UNL     1       8.998   3.798  24.130  0.00  0.00    +0.017 A 
ATOM     32  C   UNL     1       9.046   5.189  24.218  0.00  0.00    +0.013 A 
ATOM     33  C   UNL     1      10.225   5.882  23.894  0.00  0.00    +0.024 A 
BRANCH  28  35
ATOM     34  C   UNL     1      13.139   6.823  24.218  0.00  0.00    +0.129 C 
ATOM     35  N   UNL     1      12.581   5.910  23.228  0.00  0.00    -0.336 N 
ATOM     36  C   UNL     1      13.431   5.541  22.101  0.00  0.00    +0.129 C 
ENDBRANCH  28  35
ENDBRANCH   1  31
TORSDOF 4
ENDMDL
MODEL 5
REMARK VINA RESULT:      -4.0      3.800     13.165
REMARK  Name = 
REMARK  7 active torsions:
REMARK  status: ('A' for Active; 'I' for Inactive)
REMARK    1  A    between atoms: C_1  and  N_2
REMARK    2  A    between atoms: N_2  and  C_3
REMARK    3  A    between atoms: N_2  and  C_4
REMARK    4  A    between atoms: C_7  and  C_10
REMARK    5  A    between atoms: C_17  and  C_19
REMARK    6  A    between atoms: C_25  and  N_28
REMARK    7  A    between atoms: N_31  and  C_32
REMARK                            x       y       z     vdW  Elec       q    Type
REMARK                         _______ _______ _______ _____ _____    ______ ____
ROOT
ATOM      1  C   UNL     1       7.237   3.231  24.793  0.00  0.00    +0.139 A 
ATOM      2  N   UNL     1       5.986   3.810  24.767  0.00  0.00    -0.338 N 
ATOM      3  H   UNL     1       5.782   4.739  24.433  0.00  0.00    +0.167 HD
ATOM      4  C   UNL     1       5.100   2.970  25.391  0.00  0.00    +0.067 A 
ATOM      5  C   UNL     1       3.747   3.085  25.701  0.00  0.00    +0.028 A 
ATOM      6  C   UNL     1       3.170   2.001  26.381  0.00  0.00    +0.013 A 
ATOM      7  C   UNL     1       3.903   0.852  26.730  0.00  0.00    +0.019 A 
ATOM      8  C   UNL     1       5.267   0.784  26.393  0.00  0.00    +0.041 A 
ATOM      9  C   UNL     1       5.864   1.864  25.726  0.00  0.00    +0.090 A 
ATOM     10  N   UNL     1       7.170   2.034  25.347  0.00  0.00    -0.228 NA
ENDROOT
BRANCH   7  11
ATOM     11  C   UNL     1       3.225  -0.242  27.438  0.00  0.00    +0.139 A 
ATOM     12  N   UNL     1       3.642  -1.556  27.411  0.00  0.00    -0.338 N 
ATOM     13  H   UNL     1       4.445  -1.909  26.916  0.00  0.00    +0.167 HD
ATOM     14  C   UNL     1       2.764  -2.317  28.133  0.00  0.00    +0.068 A 
ATOM     15  C   UNL     1       2.697  -3.689  28.386  0.00  0.00    +0.051 A 
ATOM     16  C   UNL     1       1.614  -4.185  29.136  0.00  0.00    +0.032 A 
ATOM     17  C   UNL     1       0.673  -3.260  29.624  0.00  0.00    +0.025 A 
ATOM     18  C   UNL     1       0.767  -1.878  29.375  0.00  0.00    +0.032 A 
ATOM     19  C   UNL     1       1.830  -1.408  28.601  0.00  0.00    +0.090 A 
ATOM     20  N   UNL     1       2.131  -0.138  28.175  0.00  0.00    -0.228 NA
BRANCH  16  21
ATOM     21  N   UNL     1       1.463  -5.549  29.314  0.00  0.00    -0.327 N 
ATOM     22  C   UNL     1       2.029  -6.240  30.483  0.00  0.00    +0.120 C 
ATOM     23  C   UNL     1       2.598  -7.614  30.057  0.00  0.00    +0.103 C 
ATOM     24  N   UNL     1       1.657  -8.485  29.315  0.00  0.00    -0.302 NA
ATOM     25  C   UNL     1       0.618  -9.020  30.191  0.00  0.00    +0.105 C 
ATOM     26  C   UNL     1       1.075  -7.718  28.191  0.00  0.00    +0.103 C 
ATOM     27  C   UNL     1       0.479  -6.332  28.553  0.00  0.00    +0.120 C 
ENDBRANCH  16  21
ENDBRANCH   7  11
BRANCH   1  31
ATOM     28  C   UNL     1      10.969   5.169  23.789  0.00  0.00    +0.029 A 
ATOM     29  C   UNL     1      10.744   3.800  23.569  0.00  0.00    +0.024 A 
ATOM     30  C   UNL     1       9.515   3.189  23.856  0.00  0.00    +0.013 A 
ATOM     31  C   UNL     1       8.456   3.927  24.384  0.00  0.00    +0.017 A 
ATOM     32  C   UNL     1       8.627   5.301  24.546  0.00  0.00    +0.013 A 
ATOM     33  C   UNL     1       9.861   5.904  24.248  0.00  0.00    +0.024 A 
BRANCH  28  35
ATOM     34  C   UNL     1      12.752   6.733  24.503  0.00  0.00    +0.129 C 
ATOM     35  N   UNL     1      12.209   5.759  23.564  0.00  0.00    -0.336 N 
ATOM     36  C   UNL     1      13.110   5.234  22.544  0.00  0.00    +0.129 C 
ENDBRANCH  28  35
ENDBRANCH   1  31
TORSDOF 4
ENDMDL
MODEL 6
REMARK VINA RESULT:      -3.5      6.544     12.368
REMARK  Name = 
REMARK  7 active torsions:
REMARK  status: ('A' for Active; 'I' for Inactive)
REMARK    1  A    between atoms: C_1  and  N_2
REMARK    2  A    between atoms: N_2  and  C_3
REMARK    3  A    between atoms: N_2  and  C_4
REMARK    4  A    between atoms: C_7  and  C_10
REMARK    5  A    between atoms: C_17  and  C_19
REMARK    6  A    between atoms: C_25  and  N_28
REMARK    7  A    between atoms: N_31  and  C_32
REMARK                            x       y       z     vdW  Elec       q    Type
REMARK                         _______ _______ _______ _____ _____    ______ ____
ROOT
ATOM      1  C   UNL     1       2.316   5.383  20.387  0.00  0.00    +0.139 A 
ATOM      2  N   UNL     1       3.078   6.201  21.193  0.00  0.00    -0.338 N 
ATOM      3  H   UNL     1       3.484   7.080  20.911  0.00  0.00    +0.167 HD
ATOM      4  C   UNL     1       3.301   5.561  22.385  0.00  0.00    +0.067 A 
ATOM      5  C   UNL     1       4.049   5.895  23.511  0.00  0.00    +0.028 A 
ATOM      6  C   UNL     1       4.058   4.955  24.554  0.00  0.00    +0.013 A 
ATOM      7  C   UNL     1       3.347   3.743  24.483  0.00  0.00    +0.019 A 
ATOM      8  C   UNL     1       2.605   3.453  23.324  0.00  0.00    +0.041 A 
ATOM      9  C   UNL     1       2.597   4.374  22.266  0.00  0.00    +0.090 A 
ATOM     10  N   UNL     1       1.992   4.281  21.039  0.00  0.00    -0.228 NA
ENDROOT
BRANCH   7  11
ATOM     11  C   UNL     1       3.402   2.813  25.619  0.00  0.00    +0.139 A 
ATOM     12  N   UNL     1       3.938   1.545  25.554  0.00  0.00    -0.338 N 
ATOM     13  H   UNL     1       4.350   1.119  24.739  0.00  0.00    +0.167 HD
ATOM     14  C   UNL     1       3.786   0.934  26.770  0.00  0.00    +0.068 A 
ATOM     15  C   UNL     1       4.110  -0.346  27.226  0.00  0.00    +0.051 A 
ATOM     16  C   UNL     1       3.766  -0.700  28.544  0.00  0.00    +0.032 A 
ATOM     17  C   UNL     1       3.146   0.275  29.346  0.00  0.00    +0.025 A 
ATOM     18  C   UNL     1       2.844   1.567  28.876  0.00  0.00    +0.032 A 
ATOM     19  C   UNL     1       3.162   1.889  27.554  0.00  0.00    +0.090 A 
ATOM     20  N   UNL     1       2.942   3.040  26.839  0.00  0.00    -0.228 NA
BRANCH  16  21
ATOM     21  N   UNL     1       3.978  -1.993  28.990  0.00  0.00    -0.327 N 
ATOM     22  C   UNL     1       4.702  -2.980  28.175  0.00  0.00    +0.120 C 
ATOM     23  C   UNL     1       4.031  -4.367  28.310  0.00  0.00    +0.103 C 
ATOM     24  N   UNL     1       3.843  -4.845  29.700  0.00  0.00    -0.302 NA
ATOM     25  C   UNL     1       5.112  -5.233  30.310  0.00  0.00    +0.105 C 
ATOM     26  C   UNL     1       3.167  -3.787  30.485  0.00  0.00    +0.103 C 
ATOM     27  C   UNL     1       3.796  -2.372  30.398  0.00  0.00    +0.120 C 
ENDBRANCH  16  21
ENDBRANCH   7  11
BRANCH   1  31
ATOM     28  C   UNL     1       1.717   6.052  16.158  0.00  0.00    +0.029 A 
ATOM     29  C   UNL     1       1.378   4.843  16.789  0.00  0.00    +0.024 A 
ATOM     30  C   UNL     1       1.534   4.651  18.169  0.00  0.00    +0.013 A 
ATOM     31  C   UNL     1       2.044   5.665  18.979  0.00  0.00    +0.017 A 
ATOM     32  C   UNL     1       2.322   6.898  18.392  0.00  0.00    +0.013 A 
ATOM     33  C   UNL     1       2.155   7.082  17.009  0.00  0.00    +0.024 A 
BRANCH  28  35
ATOM     34  C   UNL     1       2.702   6.843  14.028  0.00  0.00    +0.129 C 
ATOM     35  N   UNL     1       1.620   6.218  14.780  0.00  0.00    -0.336 N 
ATOM     36  C   UNL     1       0.576   5.542  14.019  0.00  0.00    +0.129 C 
ENDBRANCH  28  35
ENDBRANCH   1  31
TORSDOF 4
ENDMDL
