MODEL 1
REMARK VINA RESULT:      -6.9      0.000      0.000
REMARK  Name = 
REMARK  4 active torsions:
REMARK  status: ('A' for Active; 'I' for Inactive)
REMARK    1  A    between atoms: N_4  and  C_5
REMARK    2  A    between atoms: C_8  and  C_9
REMARK    3  A    between atoms: C_9  and  C_10
REMARK    4  A    between atoms: C_10  and  C_12
REMARK                            x       y       z     vdW  Elec       q    Type
REMARK                         _______ _______ _______ _____ _____    ______ ____
ROOT
ATOM      1  C   UNL     1       9.461   1.326  22.347  0.00  0.00    +0.100 A 
ATOM      2  C   UNL     1       9.765   1.096  23.694  0.00  0.00    +0.042 A 
ATOM      3  C   UNL     1       9.973  -0.194  24.177  0.00  0.00    +0.007 A 
ATOM      4  C   UNL     1       9.888  -1.292  23.315  0.00  0.00    -0.040 A 
ATOM      5  C   UNL     1       9.659  -1.063  21.952  0.00  0.00    +0.007 A 
ATOM      6  C   UNL     1       9.460   0.236  21.471  0.00  0.00    +0.042 A 
ENDROOT
BRANCH   1  11
ATOM      7  N   UNL     1       6.798   2.462  22.182  0.00  0.00    -0.289 N 
ATOM      8  H   UNL     1       6.896   1.576  21.696  0.00  0.00    +0.255 HD
ATOM      9  H   UNL     1       5.916   2.911  21.989  0.00  0.00    +0.255 HD
ATOM     10  C   UNL     1       7.905   3.236  22.092  0.00  0.00    +0.381 C 
ATOM     11  N   UNL     1       9.080   2.596  21.870  0.00  0.00    -0.244 N 
ATOM     12  H   UNL     1       9.863   3.225  21.726  0.00  0.00    +0.265 HD
ATOM     13  N   UNL     1       7.838   4.520  22.137  0.00  0.00    -0.129 NA
ATOM     14  H   UNL     1       6.870   4.793  22.323  0.00  0.00    +0.306 HD
ENDBRANCH   1  11
BRANCH   4  15
ATOM     15  C   UNL     1       9.919  -2.693  23.875  0.00  0.00    +0.114 C 
BRANCH  15  16
ATOM     16  C   UNL     1       8.590  -3.258  24.338  0.00  0.00    +0.167 C 
ATOM     17  O   UNL     1       8.169  -3.165  25.489  0.00  0.00    -0.292 OA
BRANCH  16  18
ATOM     18  C   UNL     1       7.736  -3.931  23.315  0.00  0.00    +0.018 A 
ATOM     19  C   UNL     1       7.870  -5.314  23.145  0.00  0.00    +0.011 A 
ATOM     20  C   UNL     1       7.091  -5.986  22.201  0.00  0.00    +0.001 A 
ATOM     21  C   UNL     1       6.183  -5.278  21.416  0.00  0.00    +0.000 A 
ATOM     22  C   UNL     1       6.047  -3.900  21.575  0.00  0.00    +0.001 A 
ATOM     23  C   UNL     1       6.819  -3.225  22.525  0.00  0.00    +0.011 A 
ENDBRANCH  16  18
ENDBRANCH  15  16
ENDBRANCH   4  15
TORSDOF 4
ENDMDL
MODEL 2
REMARK VINA RESULT:      -6.8      4.341      7.689
REMARK  Name = 
REMARK  4 active torsions:
REMARK  status: ('A' for Active; 'I' for Inactive)
REMARK    1  A    between atoms: N_4  and  C_5
REMARK    2  A    between atoms: C_8  and  C_9
REMARK    3  A    between atoms: C_9  and  C_10
REMARK    4  A    between atoms: C_10  and  C_12
REMARK                            x       y       z     vdW  Elec       q    Type
REMARK                         _______ _______ _______ _____ _____    ______ ____
ROOT
ATOM      1  C   UNL     1       8.545  -2.733  25.326  0.00  0.00    +0.100 A 
ATOM      2  C   UNL     1       8.453  -1.571  26.100  0.00  0.00    +0.042 A 
ATOM      3  C   UNL     1       9.147  -0.414  25.750  0.00  0.00    +0.007 A 
ATOM      4  C   UNL     1       9.948  -0.392  24.604  0.00  0.00    -0.040 A 
ATOM      5  C   UNL     1       9.985  -1.527  23.785  0.00  0.00    +0.007 A 
ATOM      6  C   UNL     1       9.279  -2.683  24.136  0.00  0.00    +0.042 A 
ENDROOT
BRANCH   1  11
ATOM      7  N   UNL     1       9.891  -4.972  26.585  0.00  0.00    -0.289 N 
ATOM      8  H   UNL     1      10.295  -4.700  25.695  0.00  0.00    +0.255 HD
ATOM      9  H   UNL     1      10.273  -5.838  26.933  0.00  0.00    +0.255 HD
ATOM     10  C   UNL     1       8.542  -4.851  26.609  0.00  0.00    +0.381 C 
ATOM     11  N   UNL     1       7.994  -3.960  25.745  0.00  0.00    -0.244 N 
ATOM     12  H   UNL     1       6.980  -3.970  25.743  0.00  0.00    +0.265 HD
ATOM     13  N   UNL     1       7.810  -5.598  27.357  0.00  0.00    -0.129 NA
ATOM     14  H   UNL     1       8.418  -6.184  27.934  0.00  0.00    +0.306 HD
ENDBRANCH   1  11
BRANCH   4  15
ATOM     15  C   UNL     1      10.847   0.792  24.338  0.00  0.00    +0.114 C 
BRANCH  15  16
ATOM     16  C   UNL     1      10.396   1.739  23.242  0.00  0.00    +0.167 C 
ATOM     17  O   UNL     1       9.989   1.372  22.143  0.00  0.00    -0.292 OA
BRANCH  16  18
ATOM     18  C   UNL     1      10.419   3.201  23.546  0.00  0.00    +0.018 A 
ATOM     19  C   UNL     1      11.598   3.913  23.292  0.00  0.00    +0.011 A 
ATOM     20  C   UNL     1      11.665   5.281  23.560  0.00  0.00    +0.001 A 
ATOM     21  C   UNL     1      10.559   5.943  24.091  0.00  0.00    +0.000 A 
ATOM     22  C   UNL     1       9.384   5.241  24.352  0.00  0.00    +0.001 A 
ATOM     23  C   UNL     1       9.310   3.872  24.077  0.00  0.00    +0.011 A 
ENDBRANCH  16  18
ENDBRANCH  15  16
ENDBRANCH   4  15
TORSDOF 4
ENDMDL
MODEL 3
REMARK VINA RESULT:      -6.7      2.121      2.978
REMARK  Name = 
REMARK  4 active torsions:
REMARK  status: ('A' for Active; 'I' for Inactive)
REMARK    1  A    between atoms: N_4  and  C_5
REMARK    2  A    between atoms: C_8  and  C_9
REMARK    3  A    between atoms: C_9  and  C_10
REMARK    4  A    between atoms: C_10  and  C_12
REMARK                            x       y       z     vdW  Elec       q    Type
REMARK                         _______ _______ _______ _____ _____    ______ ____
ROOT
ATOM      1  C   UNL     1      10.123   2.343  23.438  0.00  0.00    +0.100 A 
ATOM      2  C   UNL     1      10.511   1.359  24.354  0.00  0.00    +0.042 A 
ATOM      3  C   UNL     1      10.477   0.006  24.019  0.00  0.00    +0.007 A 
ATOM      4  C   UNL     1      10.057  -0.394  22.747  0.00  0.00    -0.040 A 
ATOM      5  C   UNL     1       9.739   0.589  21.801  0.00  0.00    +0.007 A 
ATOM      6  C   UNL     1       9.784   1.945  22.140  0.00  0.00    +0.042 A 
ENDROOT
BRANCH   1  11
ATOM      7  N   UNL     1      12.046   4.491  23.131  0.00  0.00    -0.289 N 
ATOM      8  H   UNL     1      12.399   3.698  23.657  0.00  0.00    +0.255 HD
ATOM      9  H   UNL     1      12.670   5.282  23.163  0.00  0.00    +0.255 HD
ATOM     10  C   UNL     1      10.737   4.741  23.372  0.00  0.00    +0.381 C 
ATOM     11  N   UNL     1       9.986   3.696  23.803  0.00  0.00    -0.244 N 
ATOM     12  H   UNL     1       9.037   3.955  24.050  0.00  0.00    +0.265 HD
ATOM     13  N   UNL     1      10.245   5.925  23.272  0.00  0.00    -0.129 NA
ATOM     14  H   UNL     1      10.971   6.555  22.923  0.00  0.00    +0.306 HD
ENDBRANCH   1  11
BRANCH   4  15
ATOM     15  C   UNL     1       9.835  -1.859  22.455  0.00  0.00    +0.114 C 
BRANCH  15  16
ATOM     16  C   UNL     1       8.471  -2.414  22.818  0.00  0.00    +0.167 C 
ATOM     17  O   UNL     1       7.428  -2.097  22.250  0.00  0.00    -0.292 OA
BRANCH  16  18
ATOM     18  C   UNL     1       8.413  -3.433  23.907  0.00  0.00    +0.018 A 
ATOM     19  C   UNL     1       7.183  -4.048  24.175  0.00  0.00    +0.011 A 
ATOM     20  C   UNL     1       7.081  -5.007  25.183  0.00  0.00    +0.001 A 
ATOM     21  C   UNL     1       8.204  -5.351  25.935  0.00  0.00    +0.000 A 
ATOM     22  C   UNL     1       9.429  -4.740  25.679  0.00  0.00    +0.001 A 
ATOM     23  C   UNL     1       9.538  -3.785  24.664  0.00  0.00    +0.011 A 
ENDBRANCH  16  18
ENDBRANCH  15  16
ENDBRANCH   4  15
TORSDOF 4
ENDMDL
MODEL 4
REMARK VINA RESULT:      -6.6      4.304      7.326
REMARK  Name = 
REMARK  4 active torsions:
REMARK  status: ('A' for Active; 'I' for Inactive)
REMARK    1  A    between atoms: N_4  and  C_5
REMARK    2  A    between atoms: C_8  and  C_9
REMARK    3  A    between atoms: C_9  and  C_10
REMARK    4  A    between atoms: C_10  and  C_12
REMARK                            x       y       z     vdW  Elec       q    Type
REMARK                         _______ _______ _______ _____ _____    ______ ____
ROOT
ATOM      1  C   UNL     1       5.715  -5.753  23.871  0.00  0.00    +0.100 A 
ATOM      2  C   UNL     1       6.343  -5.847  22.624  0.00  0.00    +0.042 A 
ATOM      3  C   UNL     1       7.198  -4.845  22.169  0.00  0.00    +0.007 A 
ATOM      4  C   UNL     1       7.451  -3.721  22.961  0.00  0.00    -0.040 A 
ATOM      5  C   UNL     1       6.886  -3.657  24.241  0.00  0.00    +0.007 A 
ATOM      6  C   UNL     1       6.036  -4.671  24.696  0.00  0.00    +0.042 A 
ENDROOT
BRANCH   1  11
ATOM      7  N   UNL     1       2.867  -5.666  23.333  0.00  0.00    -0.289 N 
ATOM      8  H   UNL     1       3.224  -4.830  23.785  0.00  0.00    +0.255 HD
ATOM      9  H   UNL     1       1.860  -5.680  23.291  0.00  0.00    +0.255 HD
ATOM     10  C   UNL     1       3.471  -6.797  23.767  0.00  0.00    +0.381 C 
ATOM     11  N   UNL     1       4.720  -6.662  24.280  0.00  0.00    -0.244 N 
ATOM     12  H   UNL     1       5.093  -7.522  24.668  0.00  0.00    +0.265 HD
ATOM     13  N   UNL     1       2.866  -7.931  23.765  0.00  0.00    -0.129 NA
ATOM     14  H   UNL     1       1.948  -7.814  23.327  0.00  0.00    +0.306 HD
ENDBRANCH   1  11
BRANCH   4  15
ATOM     15  C   UNL     1       8.217  -2.553  22.388  0.00  0.00    +0.114 C 
BRANCH  15  16
ATOM     16  C   UNL     1       9.462  -2.133  23.145  0.00  0.00    +0.167 C 
ATOM     17  O   UNL     1      10.214  -2.918  23.718  0.00  0.00    -0.292 OA
BRANCH  16  18
ATOM     18  C   UNL     1       9.802  -0.679  23.155  0.00  0.00    +0.018 A 
ATOM     19  C   UNL     1       9.577   0.063  21.989  0.00  0.00    +0.011 A 
ATOM     20  C   UNL     1       9.879   1.425  21.952  0.00  0.00    +0.001 A 
ATOM     21  C   UNL     1      10.416   2.051  23.076  0.00  0.00    +0.000 A 
ATOM     22  C   UNL     1      10.648   1.319  24.239  0.00  0.00    +0.001 A 
ATOM     23  C   UNL     1      10.339  -0.044  24.283  0.00  0.00    +0.011 A 
ENDBRANCH  16  18
ENDBRANCH  15  16
ENDBRANCH   4  15
TORSDOF 4
ENDMDL
MODEL 5
REMARK VINA RESULT:      -6.6      4.676      7.316
REMARK  Name = 
REMARK  4 active torsions:
REMARK  status: ('A' for Active; 'I' for Inactive)
REMARK    1  A    between atoms: N_4  and  C_5
REMARK    2  A    between atoms: C_8  and  C_9
REMARK    3  A    between atoms: C_9  and  C_10
REMARK    4  A    between atoms: C_10  and  C_12
REMARK                            x       y       z     vdW  Elec       q    Type
REMARK                         _______ _______ _______ _____ _____    ______ ____
ROOT
ATOM      1  C   UNL     1       7.235  -5.060  26.427  0.00  0.00    +0.100 A 
ATOM      2  C   UNL     1       8.186  -4.044  26.575  0.00  0.00    +0.042 A 
ATOM      3  C   UNL     1       8.472  -3.165  25.533  0.00  0.00    +0.007 A 
ATOM      4  C   UNL     1       7.802  -3.279  24.310  0.00  0.00    -0.040 A 
ATOM      5  C   UNL     1       6.797  -4.245  24.180  0.00  0.00    +0.007 A 
ATOM      6  C   UNL     1       6.507  -5.119  25.234  0.00  0.00    +0.042 A 
ENDROOT
BRANCH   1  11
ATOM      7  N   UNL     1       5.322  -5.121  28.604  0.00  0.00    -0.289 N 
ATOM      8  H   UNL     1       5.920  -4.301  28.608  0.00  0.00    +0.255 HD
ATOM      9  H   UNL     1       4.771  -5.199  29.445  0.00  0.00    +0.255 HD
ATOM     10  C   UNL     1       5.966  -6.240  28.197  0.00  0.00    +0.381 C 
ATOM     11  N   UNL     1       7.049  -6.063  27.399  0.00  0.00    -0.244 N 
ATOM     12  H   UNL     1       7.545  -6.923  27.192  0.00  0.00    +0.265 HD
ATOM     13  N   UNL     1       5.618  -7.408  28.605  0.00  0.00    -0.129 NA
ATOM     14  H   UNL     1       4.777  -7.318  29.181  0.00  0.00    +0.306 HD
ENDBRANCH   1  11
BRANCH   4  15
ATOM     15  C   UNL     1       8.251  -2.455  23.127  0.00  0.00    +0.114 C 
BRANCH  15  16
ATOM     16  C   UNL     1       9.681  -1.953  23.166  0.00  0.00    +0.167 C 
ATOM     17  O   UNL     1      10.665  -2.688  23.212  0.00  0.00    -0.292 OA
BRANCH  16  18
ATOM     18  C   UNL     1       9.893  -0.476  23.107  0.00  0.00    +0.018 A 
ATOM     19  C   UNL     1      10.299   0.183  24.273  0.00  0.00    +0.011 A 
ATOM     20  C   UNL     1      10.509   1.563  24.264  0.00  0.00    +0.001 A 
ATOM     21  C   UNL     1      10.306   2.292  23.093  0.00  0.00    +0.000 A 
ATOM     22  C   UNL     1       9.897   1.644  21.930  0.00  0.00    +0.001 A 
ATOM     23  C   UNL     1       9.693   0.261  21.932  0.00  0.00    +0.011 A 
ENDBRANCH  16  18
ENDBRANCH  15  16
ENDBRANCH   4  15
TORSDOF 4
ENDMDL
MODEL 6
REMARK VINA RESULT:      -6.6      1.216      2.045
REMARK  Name = 
REMARK  4 active torsions:
REMARK  status: ('A' for Active; 'I' for Inactive)
REMARK    1  A    between atoms: N_4  and  C_5
REMARK    2  A    between atoms: C_8  and  C_9
REMARK    3  A    between atoms: C_9  and  C_10
REMARK    4  A    between atoms: C_10  and  C_12
REMARK                            x       y       z     vdW  Elec       q    Type
REMARK                         _______ _______ _______ _____ _____    ______ ____
ROOT
ATOM      1  C   UNL     1      10.225   1.697  23.020  0.00  0.00    +0.100 A 
ATOM      2  C   UNL     1       9.848   0.818  21.998  0.00  0.00    +0.042 A 
ATOM      3  C   UNL     1       9.706  -0.548  22.236  0.00  0.00    +0.007 A 
ATOM      4  C   UNL     1       9.932  -1.068  23.515  0.00  0.00    -0.040 A 
ATOM      5  C   UNL     1      10.236  -0.184  24.558  0.00  0.00    +0.007 A 
ATOM      6  C   UNL     1      10.368   1.187  24.315  0.00  0.00    +0.042 A 
ENDROOT
BRANCH   1  11
ATOM      7  N   UNL     1       8.748   4.063  23.811  0.00  0.00    -0.289 N 
ATOM      8  H   UNL     1       8.201   3.402  23.269  0.00  0.00    +0.255 HD
ATOM      9  H   UNL     1       8.268   4.939  23.947  0.00  0.00    +0.255 HD
ATOM     10  C   UNL     1      10.038   4.136  23.406  0.00  0.00    +0.381 C 
ATOM     11  N   UNL     1      10.540   3.047  22.771  0.00  0.00    -0.244 N 
ATOM     12  H   UNL     1      11.480   3.184  22.414  0.00  0.00    +0.265 HD
ATOM     13  N   UNL     1      10.732   5.210  23.547  0.00  0.00    -0.129 NA
ATOM     14  H   UNL     1      10.173   5.898  24.058  0.00  0.00    +0.306 HD
ENDBRANCH   1  11
BRANCH   4  15
ATOM     15  C   UNL     1       9.969  -2.563  23.723  0.00  0.00    +0.114 C 
BRANCH  15  16
ATOM     16  C   UNL     1       8.703  -3.192  24.272  0.00  0.00    +0.167 C 
ATOM     17  O   UNL     1       8.355  -3.117  25.448  0.00  0.00    -0.292 OA
BRANCH  16  18
ATOM     18  C   UNL     1       7.818  -3.910  23.307  0.00  0.00    +0.018 A 
ATOM     19  C   UNL     1       6.956  -3.151  22.508  0.00  0.00    +0.011 A 
ATOM     20  C   UNL     1       6.111  -3.779  21.591  0.00  0.00    +0.001 A 
ATOM     21  C   UNL     1       6.118  -5.168  21.474  0.00  0.00    +0.000 A 
ATOM     22  C   UNL     1       6.970  -5.931  22.270  0.00  0.00    +0.001 A 
ATOM     23  C   UNL     1       7.823  -5.306  23.183  0.00  0.00    +0.011 A 
ENDBRANCH  16  18
ENDBRANCH  15  16
ENDBRANCH   4  15
TORSDOF 4
ENDMDL
MODEL 7
REMARK VINA RESULT:      -6.5      2.164      3.095
REMARK  Name = 
REMARK  4 active torsions:
REMARK  status: ('A' for Active; 'I' for Inactive)
REMARK    1  A    between atoms: N_4  and  C_5
REMARK    2  A    between atoms: C_8  and  C_9
REMARK    3  A    between atoms: C_9  and  C_10
REMARK    4  A    between atoms: C_10  and  C_12
REMARK                            x       y       z     vdW  Elec       q    Type
REMARK                         _______ _______ _______ _____ _____    ______ ____
ROOT
ATOM      1  C   UNL     1       9.472   0.058  23.330  0.00  0.00    +0.100 A 
ATOM      2  C   UNL     1       8.134   0.014  23.738  0.00  0.00    +0.042 A 
ATOM      3  C   UNL     1       7.310  -1.057  23.399  0.00  0.00    +0.007 A 
ATOM      4  C   UNL     1       7.812  -2.122  22.644  0.00  0.00    -0.040 A 
ATOM      5  C   UNL     1       9.169  -2.121  22.297  0.00  0.00    +0.007 A 
ATOM      6  C   UNL     1       9.994  -1.047  22.648  0.00  0.00    +0.042 A 
ENDROOT
BRANCH   1  11
ATOM      7  N   UNL     1       9.915   2.255  21.492  0.00  0.00    -0.289 N 
ATOM      8  H   UNL     1      10.140   1.345  21.103  0.00  0.00    +0.255 HD
ATOM      9  H   UNL     1      10.215   3.012  20.897  0.00  0.00    +0.255 HD
ATOM     10  C   UNL     1      10.226   2.357  22.806  0.00  0.00    +0.381 C 
ATOM     11  N   UNL     1      10.276   1.200  23.512  0.00  0.00    -0.244 N 
ATOM     12  H   UNL     1      10.596   1.322  24.467  0.00  0.00    +0.265 HD
ATOM     13  N   UNL     1      10.535   3.484  23.342  0.00  0.00    -0.129 NA
ATOM     14  H   UNL     1      10.421   4.224  22.644  0.00  0.00    +0.306 HD
ENDBRANCH   1  11
BRANCH   4  15
ATOM     15  C   UNL     1       6.872  -3.178  22.116  0.00  0.00    +0.114 C 
BRANCH  15  16
ATOM     16  C   UNL     1       7.147  -4.601  22.563  0.00  0.00    +0.167 C 
ATOM     17  O   UNL     1       7.275  -5.549  21.792  0.00  0.00    -0.292 OA
BRANCH  16  18
ATOM     18  C   UNL     1       7.307  -4.842  24.028  0.00  0.00    +0.018 A 
ATOM     19  C   UNL     1       8.599  -5.038  24.530  0.00  0.00    +0.011 A 
ATOM     20  C   UNL     1       8.797  -5.266  25.892  0.00  0.00    +0.001 A 
ATOM     21  C   UNL     1       7.705  -5.308  26.758  0.00  0.00    +0.000 A 
ATOM     22  C   UNL     1       6.415  -5.119  26.266  0.00  0.00    +0.001 A 
ATOM     23  C   UNL     1       6.214  -4.883  24.903  0.00  0.00    +0.011 A 
ENDBRANCH  16  18
ENDBRANCH  15  16
ENDBRANCH   4  15
TORSDOF 4
ENDMDL
MODEL 8
REMARK VINA RESULT:      -6.5      1.816      2.531
REMARK  Name = 
REMARK  4 active torsions:
REMARK  status: ('A' for Active; 'I' for Inactive)
REMARK    1  A    between atoms: N_4  and  C_5
REMARK    2  A    between atoms: C_8  and  C_9
REMARK    3  A    between atoms: C_9  and  C_10
REMARK    4  A    between atoms: C_10  and  C_12
REMARK                            x       y       z     vdW  Elec       q    Type
REMARK                         _______ _______ _______ _____ _____    ______ ____
ROOT
ATOM      1  C   UNL     1       9.794  -0.434  24.007  0.00  0.00    +0.100 A 
ATOM      2  C   UNL     1       8.865  -0.074  24.991  0.00  0.00    +0.042 A 
ATOM      3  C   UNL     1       8.133  -1.039  25.680  0.00  0.00    +0.007 A 
ATOM      4  C   UNL     1       8.321  -2.397  25.404  0.00  0.00    -0.040 A 
ATOM      5  C   UNL     1       9.303  -2.766  24.475  0.00  0.00    +0.007 A 
ATOM      6  C   UNL     1      10.041  -1.793  23.793  0.00  0.00    +0.042 A 
ENDROOT
BRANCH   1  11
ATOM      7  N   UNL     1       9.125   0.303  21.284  0.00  0.00    -0.289 N 
ATOM      8  H   UNL     1       9.310  -0.687  21.406  0.00  0.00    +0.255 HD
ATOM      9  H   UNL     1       9.042   0.562  20.313  0.00  0.00    +0.255 HD
ATOM     10  C   UNL     1       9.917   1.085  22.055  0.00  0.00    +0.381 C 
ATOM     11  N   UNL     1      10.420   0.520  23.181  0.00  0.00    -0.244 N 
ATOM     12  H   UNL     1      11.074   1.118  23.676  0.00  0.00    +0.265 HD
ATOM     13  N   UNL     1      10.241   2.278  21.701  0.00  0.00    -0.129 NA
ATOM     14  H   UNL     1       9.746   2.510  20.835  0.00  0.00    +0.306 HD
ENDBRANCH   1  11
BRANCH   4  15
ATOM     15  C   UNL     1       7.392  -3.423  26.007  0.00  0.00    +0.114 C 
BRANCH  15  16
ATOM     16  C   UNL     1       7.537  -4.841  25.491  0.00  0.00    +0.167 C 
ATOM     17  O   UNL     1       8.132  -5.733  26.093  0.00  0.00    -0.292 OA
BRANCH  16  18
ATOM     18  C   UNL     1       6.880  -5.169  24.191  0.00  0.00    +0.018 A 
ATOM     19  C   UNL     1       7.694  -5.522  23.107  0.00  0.00    +0.011 A 
ATOM     20  C   UNL     1       7.124  -5.838  21.873  0.00  0.00    +0.001 A 
ATOM     21  C   UNL     1       5.740  -5.793  21.713  0.00  0.00    +0.000 A 
ATOM     22  C   UNL     1       4.923  -5.439  22.785  0.00  0.00    +0.001 A 
ATOM     23  C   UNL     1       5.490  -5.130  24.025  0.00  0.00    +0.011 A 
ENDBRANCH  16  18
ENDBRANCH  15  16
ENDBRANCH   4  15
TORSDOF 4
ENDMDL
MODEL 9
REMARK VINA RESULT:      -6.4      1.845      2.742
REMARK  Name = 
REMARK  4 active torsions:
REMARK  status: ('A' for Active; 'I' for Inactive)
REMARK    1  A    between atoms: N_4  and  C_5
REMARK    2  A    between atoms: C_8  and  C_9
REMARK    3  A    between atoms: C_9  and  C_10
REMARK    4  A    between atoms: C_10  and  C_12
REMARK                            x       y       z     vdW  Elec       q    Type
REMARK                         _______ _______ _______ _____ _____    ______ ____
ROOT
ATOM      1  C   UNL     1       9.502   2.614  23.538  0.00  0.00    +0.100 A 
ATOM      2  C   UNL     1       9.324   2.142  22.233  0.00  0.00    +0.042 A 
ATOM      3  C   UNL     1       9.481   0.792  21.926  0.00  0.00    +0.007 A 
ATOM      4  C   UNL     1       9.813  -0.125  22.928  0.00  0.00    -0.040 A 
ATOM      5  C   UNL     1       9.918   0.328  24.249  0.00  0.00    +0.007 A 
ATOM      6  C   UNL     1       9.751   1.684  24.552  0.00  0.00    +0.042 A 
ENDROOT
BRANCH   1  11
ATOM      7  N   UNL     1      11.699   4.489  23.280  0.00  0.00    -0.289 N 
ATOM      8  H   UNL     1      11.915   3.682  23.857  0.00  0.00    +0.255 HD
ATOM      9  H   UNL     1      12.416   5.196  23.324  0.00  0.00    +0.255 HD
ATOM     10  C   UNL     1      10.421   4.911  23.425  0.00  0.00    +0.381 C 
ATOM     11  N   UNL     1       9.518   3.989  23.843  0.00  0.00    -0.244 N 
ATOM     12  H   UNL     1       8.596   4.375  24.018  0.00  0.00    +0.265 HD
ATOM     13  N   UNL     1      10.091   6.142  23.249  0.00  0.00    -0.129 NA
ATOM     14  H   UNL     1      10.912   6.659  22.925  0.00  0.00    +0.306 HD
ENDBRANCH   1  11
BRANCH   4  15
ATOM     15  C   UNL     1      10.172  -1.545  22.560  0.00  0.00    +0.114 C 
BRANCH  15  16
ATOM     16  C   UNL     1       9.579  -2.632  23.435  0.00  0.00    +0.167 C 
ATOM     17  O   UNL     1      10.245  -3.374  24.154  0.00  0.00    -0.292 OA
BRANCH  16  18
ATOM     18  C   UNL     1       8.092  -2.774  23.442  0.00  0.00    +0.018 A 
ATOM     19  C   UNL     1       7.430  -2.872  22.212  0.00  0.00    +0.011 A 
ATOM     20  C   UNL     1       6.042  -3.006  22.170  0.00  0.00    +0.001 A 
ATOM     21  C   UNL     1       5.307  -3.034  23.354  0.00  0.00    +0.000 A 
ATOM     22  C   UNL     1       5.958  -2.931  24.582  0.00  0.00    +0.001 A 
ATOM     23  C   UNL     1       7.349  -2.805  24.629  0.00  0.00    +0.011 A 
ENDBRANCH  16  18
ENDBRANCH  15  16
ENDBRANCH   4  15
TORSDOF 4
ENDMDL
