MODEL 1
REMARK VINA RESULT:      -7.5      0.000      0.000
REMARK  Name = 
REMARK  14 active torsions:
REMARK  status: ('A' for Active; 'I' for Inactive)
REMARK    1  A    between atoms: C_1  and  N_2
REMARK    2  A    between atoms: N_2  and  C_3
REMARK    3  A    between atoms: C_8  and  C_9
REMARK    4  A    between atoms: C_9  and  O_11
REMARK    5  A    between atoms: O_11  and  C_12
REMARK    6  A    between atoms: C_15  and  N_30
REMARK    7  A    between atoms: C_18  and  C_20
REMARK    8  A    between atoms: C_20  and  O_21
REMARK    9  A    between atoms: O_21  and  P_22
REMARK   10  A    between atoms: P_22  and  O_23
REMARK   11  A    between atoms: P_22  and  O_25
REMARK   12  A    between atoms: O_25  and  P_26
REMARK   13  A    between atoms: P_26  and  O_27
REMARK   14  A    between atoms: P_26  and  O_28
REMARK                            x       y       z     vdW  Elec       q    Type
REMARK                         _______ _______ _______ _____ _____    ______ ____
ROOT
ATOM      1  C   UNL     1       7.038  -3.037  25.361  0.00  0.00    +0.212 C 
ATOM      2  C   UNL     1       6.838  -4.067  24.243  0.00  0.00    +0.188 C 
ATOM      3  O   UNL     1       8.105  -4.124  23.514  0.00  0.00    -0.347 OA
ATOM      4  C   UNL     1       9.050  -3.172  24.090  0.00  0.00    +0.226 C 
ATOM      5  C   UNL     1       8.545  -2.960  25.505  0.00  0.00    +0.102 C 
ENDROOT
BRANCH   4   6
ATOM      6  N   UNL     1       9.205  -1.986  23.255  0.00  0.00    -0.288 N 
ATOM      7  C   UNL     1       9.796  -0.797  23.618  0.00  0.00    +0.167 A 
ATOM      8  N   UNL     1      10.343  -0.461  24.797  0.00  0.00    -0.216 NA
ATOM      9  C   UNL     1      10.776   0.823  24.794  0.00  0.00    +0.225 A 
ATOM     10  N   UNL     1      10.711   1.724  23.792  0.00  0.00    -0.219 NA
ATOM     11  C   UNL     1      10.180   1.335  22.611  0.00  0.00    +0.147 A 
ATOM     12  N   UNL     1      10.122   2.265  21.586  0.00  0.00    -0.341 N 
ATOM     13  H   UNL     1      10.035   1.838  20.670  0.00  0.00    +0.144 HD
ATOM     14  H   UNL     1      10.815   2.993  21.701  0.00  0.00    +0.144 HD
ATOM     15  C   UNL     1       9.704   0.013  22.493  0.00  0.00    +0.147 A 
ATOM     16  N   UNL     1       9.169  -0.686  21.433  0.00  0.00    -0.231 NA
ATOM     17  C   UNL     1       8.892  -1.879  21.921  0.00  0.00    +0.203 A 
ENDBRANCH   4   6
BRANCH   1  18
ATOM     18  O   UNL     1       6.444  -1.716  25.198  0.00  0.00    -0.455 OA
BRANCH  18  19
ATOM     19  C   UNL     1       6.385  -0.740  26.144  0.00  0.00    +0.341 C 
ATOM     20  O   UNL     1       6.307  -0.922  27.347  0.00  0.00    -0.245 OA
BRANCH  19  22
ATOM     21  C   UNL     1       7.223   1.666  26.218  0.00  0.00    +0.041 A 
ATOM     22  C   UNL     1       6.587   0.611  25.521  0.00  0.00    +0.080 A 
ATOM     23  C   UNL     1       6.219   0.811  24.175  0.00  0.00    +0.017 A 
ATOM     24  C   UNL     1       6.581   1.977  23.495  0.00  0.00    +0.001 A 
ATOM     25  C   UNL     1       7.371   2.925  24.126  0.00  0.00    +0.002 A 
ATOM     26  C   UNL     1       7.698   2.759  25.466  0.00  0.00    +0.024 A 
BRANCH  21  28
ATOM     27  C   UNL     1       6.511   2.518  28.373  0.00  0.00    +0.125 C 
ATOM     28  N   UNL     1       7.444   1.678  27.614  0.00  0.00    -0.346 N 
ATOM     29  H   UNL     1       7.465   0.720  27.988  0.00  0.00    +0.146 HD
ENDBRANCH  21  28
ENDBRANCH  19  22
ENDBRANCH  18  19
ENDBRANCH   1  18
BRANCH   2  30
ATOM     30  C   UNL     1       6.437  -5.480  24.783  0.00  0.00    +0.207 C 
BRANCH  30  31
ATOM     31  O   UNL     1       5.083  -5.511  25.261  0.00  0.00    -0.284 OA
BRANCH  31  32
ATOM     32  P   UNL     1       4.673  -6.533  26.507  0.00  0.00    +0.483 P 
ATOM     33  O   UNL     1       3.208  -6.287  26.848  0.00  0.00    -0.227 OA
BRANCH  32  34
ATOM     34  O   UNL     1       4.117  -7.703  25.360  0.00  0.00    -0.302 OA
ATOM     35  H   UNL     1       3.142  -7.665  25.473  0.00  0.00    +0.222 HD
ENDBRANCH  32  34
BRANCH  32  36
ATOM     36  O   UNL     1       5.227  -5.363  27.655  0.00  0.00    -0.186 OA
BRANCH  36  37
ATOM     37  P   UNL     1       5.964  -6.173  28.994  0.00  0.00    +0.481 P 
ATOM     38  O   UNL     1       6.624  -6.898  30.193  0.00  0.00    -0.227 OA
BRANCH  37  39
ATOM     39  O   UNL     1       7.322  -6.137  28.086  0.00  0.00    -0.302 OA
ATOM     40  H   UNL     1       7.109  -5.701  27.241  0.00  0.00    +0.222 HD
ENDBRANCH  37  39
BRANCH  37  41
ATOM     41  O   UNL     1       5.409  -7.548  28.286  0.00  0.00    -0.302 OA
ATOM     42  H   UNL     1       6.115  -8.175  28.061  0.00  0.00    +0.222 HD
ENDBRANCH  37  41
ENDBRANCH  36  37
ENDBRANCH  32  36
ENDBRANCH  31  32
ENDBRANCH  30  31
ENDBRANCH   2  30
TORSDOF 13
ENDMDL
MODEL 2
REMARK VINA RESULT:      -7.4      2.738      4.577
REMARK  Name = 
REMARK  14 active torsions:
REMARK  status: ('A' for Active; 'I' for Inactive)
REMARK    1  A    between atoms: C_1  and  N_2
REMARK    2  A    between atoms: N_2  and  C_3
REMARK    3  A    between atoms: C_8  and  C_9
REMARK    4  A    between atoms: C_9  and  O_11
REMARK    5  A    between atoms: O_11  and  C_12
REMARK    6  A    between atoms: C_15  and  N_30
REMARK    7  A    between atoms: C_18  and  C_20
REMARK    8  A    between atoms: C_20  and  O_21
REMARK    9  A    between atoms: O_21  and  P_22
REMARK   10  A    between atoms: P_22  and  O_23
REMARK   11  A    between atoms: P_22  and  O_25
REMARK   12  A    between atoms: O_25  and  P_26
REMARK   13  A    between atoms: P_26  and  O_27
REMARK   14  A    between atoms: P_26  and  O_28
REMARK                            x       y       z     vdW  Elec       q    Type
REMARK                         _______ _______ _______ _____ _____    ______ ____
ROOT
ATOM      1  C   UNL     1       7.967  -1.066  24.880  0.00  0.00    +0.212 C 
ATOM      2  C   UNL     1       8.938  -1.621  23.832  0.00  0.00    +0.188 C 
ATOM      3  O   UNL     1       9.864  -0.532  23.520  0.00  0.00    -0.347 OA
ATOM      4  C   UNL     1       9.499   0.659  24.280  0.00  0.00    +0.226 C 
ATOM      5  C   UNL     1       8.714   0.119  25.461  0.00  0.00    +0.102 C 
ENDROOT
BRANCH   4   6
ATOM      6  N   UNL     1       8.839   1.657  23.445  0.00  0.00    -0.288 N 
ATOM      7  C   UNL     1       8.592   2.971  23.773  0.00  0.00    +0.167 A 
ATOM      8  N   UNL     1       8.886   3.617  24.914  0.00  0.00    -0.216 NA
ATOM      9  C   UNL     1       8.433   4.893  24.889  0.00  0.00    +0.225 A 
ATOM     10  N   UNL     1       7.767   5.526  23.901  0.00  0.00    -0.219 NA
ATOM     11  C   UNL     1       7.519   4.848  22.758  0.00  0.00    +0.147 A 
ATOM     12  N   UNL     1       6.839   5.506  21.745  0.00  0.00    -0.341 N 
ATOM     13  H   UNL     1       6.979   5.082  20.835  0.00  0.00    +0.144 HD
ATOM     14  H   UNL     1       6.942   6.509  21.817  0.00  0.00    +0.144 HD
ATOM     15  C   UNL     1       7.953   3.509  22.664  0.00  0.00    +0.147 A 
ATOM     16  N   UNL     1       7.901   2.590  21.639  0.00  0.00    -0.231 NA
ATOM     17  C   UNL     1       8.448   1.499  22.137  0.00  0.00    +0.203 A 
ENDBRANCH   4   6
BRANCH   1  18
ATOM     18  O   UNL     1       6.623  -0.698  24.452  0.00  0.00    -0.455 OA
BRANCH  18  19
ATOM     19  C   UNL     1       5.459  -1.072  25.049  0.00  0.00    +0.341 C 
ATOM     20  O   UNL     1       4.772  -0.366  25.766  0.00  0.00    -0.245 OA
BRANCH  19  22
ATOM     21  C   UNL     1       4.131  -3.231  25.321  0.00  0.00    +0.041 A 
ATOM     22  C   UNL     1       5.043  -2.438  24.584  0.00  0.00    +0.080 A 
ATOM     23  C   UNL     1       5.496  -2.909  23.335  0.00  0.00    +0.017 A 
ATOM     24  C   UNL     1       4.969  -4.072  22.769  0.00  0.00    +0.001 A 
ATOM     25  C   UNL     1       3.936  -4.741  23.407  0.00  0.00    +0.002 A 
ATOM     26  C   UNL     1       3.516  -4.313  24.660  0.00  0.00    +0.024 A 
BRANCH  21  28
ATOM     27  C   UNL     1       3.042  -4.083  27.312  0.00  0.00    +0.125 C 
ATOM     28  N   UNL     1       3.771  -2.986  26.666  0.00  0.00    -0.346 N 
ATOM     29  H   UNL     1       4.594  -2.713  27.220  0.00  0.00    +0.146 HD
ENDBRANCH  21  28
ENDBRANCH  19  22
ENDBRANCH  18  19
ENDBRANCH   1  18
BRANCH   2  30
ATOM     30  C   UNL     1       9.710  -2.888  24.330  0.00  0.00    +0.207 C 
BRANCH  30  31
ATOM     31  O   UNL     1       8.984  -3.599  25.345  0.00  0.00    -0.284 OA
BRANCH  31  32
ATOM     32  P   UNL     1       8.862  -5.256  25.263  0.00  0.00    +0.483 P 
ATOM     33  O   UNL     1       8.736  -5.641  23.794  0.00  0.00    -0.227 OA
BRANCH  32  34
ATOM     34  O   UNL     1      10.576  -5.367  25.054  0.00  0.00    -0.302 OA
ATOM     35  H   UNL     1      10.662  -5.521  24.088  0.00  0.00    +0.222 HD
ENDBRANCH  32  34
BRANCH  32  36
ATOM     36  O   UNL     1       7.148  -5.145  25.471  0.00  0.00    -0.186 OA
BRANCH  36  37
ATOM     37  P   UNL     1       6.755  -5.360  27.142  0.00  0.00    +0.481 P 
ATOM     38  O   UNL     1       6.403  -5.553  28.638  0.00  0.00    -0.227 OA
BRANCH  37  39
ATOM     39  O   UNL     1       6.921  -3.738  27.244  0.00  0.00    -0.302 OA
ATOM     40  H   UNL     1       6.400  -3.335  26.527  0.00  0.00    +0.222 HD
ENDBRANCH  37  39
BRANCH  37  41
ATOM     41  O   UNL     1       8.362  -5.636  27.339  0.00  0.00    -0.302 OA
ATOM     42  H   UNL     1       8.706  -6.333  26.755  0.00  0.00    +0.222 HD
ENDBRANCH  37  41
ENDBRANCH  36  37
ENDBRANCH  32  36
ENDBRANCH  31  32
ENDBRANCH  30  31
ENDBRANCH   2  30
TORSDOF 13
ENDMDL
MODEL 3
REMARK VINA RESULT:      -7.3      2.839      4.606
REMARK  Name = 
REMARK  14 active torsions:
REMARK  status: ('A' for Active; 'I' for Inactive)
REMARK    1  A    between atoms: C_1  and  N_2
REMARK    2  A    between atoms: N_2  and  C_3
REMARK    3  A    between atoms: C_8  and  C_9
REMARK    4  A    between atoms: C_9  and  O_11
REMARK    5  A    between atoms: O_11  and  C_12
REMARK    6  A    between atoms: C_15  and  N_30
REMARK    7  A    between atoms: C_18  and  C_20
REMARK    8  A    between atoms: C_20  and  O_21
REMARK    9  A    between atoms: O_21  and  P_22
REMARK   10  A    between atoms: P_22  and  O_23
REMARK   11  A    between atoms: P_22  and  O_25
REMARK   12  A    between atoms: O_25  and  P_26
REMARK   13  A    between atoms: P_26  and  O_27
REMARK   14  A    between atoms: P_26  and  O_28
REMARK                            x       y       z     vdW  Elec       q    Type
REMARK                         _______ _______ _______ _____ _____    ______ ____
ROOT
ATOM      1  C   UNL     1       9.340  -2.323  23.618  0.00  0.00    +0.212 C 
ATOM      2  C   UNL     1       7.934  -2.061  23.066  0.00  0.00    +0.188 C 
ATOM      3  O   UNL     1       8.072  -0.964  22.108  0.00  0.00    -0.347 OA
ATOM      4  C   UNL     1       9.461  -0.517  22.067  0.00  0.00    +0.226 C 
ATOM      5  C   UNL     1      10.250  -1.711  22.571  0.00  0.00    +0.102 C 
ENDROOT
BRANCH   4   6
ATOM      6  N   UNL     1       9.647   0.747  22.771  0.00  0.00    -0.288 N 
ATOM      7  C   UNL     1       8.845   1.863  22.684  0.00  0.00    +0.167 A 
ATOM      8  N   UNL     1       7.741   2.042  21.940  0.00  0.00    -0.216 NA
ATOM      9  C   UNL     1       7.254   3.299  22.074  0.00  0.00    +0.225 A 
ATOM     10  N   UNL     1       7.739   4.308  22.827  0.00  0.00    -0.219 NA
ATOM     11  C   UNL     1       8.835   4.075  23.584  0.00  0.00    +0.147 A 
ATOM     12  N   UNL     1       9.324   5.115  24.358  0.00  0.00    -0.341 N 
ATOM     13  H   UNL     1       9.908   4.797  25.123  0.00  0.00    +0.144 HD
ATOM     14  H   UNL     1       8.606   5.795  24.567  0.00  0.00    +0.144 HD
ATOM     15  C   UNL     1       9.426   2.796  23.533  0.00  0.00    +0.147 A 
ATOM     16  N   UNL     1      10.491   2.242  24.208  0.00  0.00    -0.231 NA
ATOM     17  C   UNL     1      10.589   1.015  23.736  0.00  0.00    +0.203 A 
ENDBRANCH   4   6
BRANCH   1  18
ATOM     18  O   UNL     1       9.659  -1.841  24.956  0.00  0.00    -0.455 OA
BRANCH  18  19
ATOM     19  C   UNL     1       8.765  -1.550  25.939  0.00  0.00    +0.341 C 
ATOM     20  O   UNL     1       8.470  -0.430  26.319  0.00  0.00    -0.245 OA
BRANCH  19  22
ATOM     21  C   UNL     1       6.671  -2.812  26.659  0.00  0.00    +0.041 A 
ATOM     22  C   UNL     1       8.063  -2.795  26.400  0.00  0.00    +0.080 A 
ATOM     23  C   UNL     1       8.785  -4.002  26.487  0.00  0.00    +0.017 A 
ATOM     24  C   UNL     1       8.132  -5.218  26.702  0.00  0.00    +0.001 A 
ATOM     25  C   UNL     1       6.748  -5.255  26.764  0.00  0.00    +0.002 A 
ATOM     26  C   UNL     1       6.031  -4.066  26.727  0.00  0.00    +0.024 A 
BRANCH  21  28
ATOM     27  C   UNL     1       5.043  -1.320  25.660  0.00  0.00    +0.125 C 
ATOM     28  N   UNL     1       5.877  -1.654  26.820  0.00  0.00    -0.346 N 
ATOM     29  H   UNL     1       5.310  -1.717  27.676  0.00  0.00    +0.146 HD
ENDBRANCH  21  28
ENDBRANCH  19  22
ENDBRANCH  18  19
ENDBRANCH   1  18
BRANCH   2  30
ATOM     30  C   UNL     1       7.303  -3.322  22.387  0.00  0.00    +0.207 C 
BRANCH  30  31
ATOM     31  O   UNL     1       6.356  -3.980  23.245  0.00  0.00    -0.284 OA
BRANCH  31  32
ATOM     32  P   UNL     1       5.908  -5.549  22.927  0.00  0.00    +0.483 P 
ATOM     33  O   UNL     1       5.304  -5.586  21.528  0.00  0.00    -0.227 OA
BRANCH  32  34
ATOM     34  O   UNL     1       7.441  -5.830  22.176  0.00  0.00    -0.302 OA
ATOM     35  H   UNL     1       7.274  -5.562  21.246  0.00  0.00    +0.222 HD
ENDBRANCH  32  34
BRANCH  32  36
ATOM     36  O   UNL     1       4.374  -5.268  23.676  0.00  0.00    -0.186 OA
BRANCH  36  37
ATOM     37  P   UNL     1       3.733  -6.766  24.257  0.00  0.00    +0.481 P 
ATOM     38  O   UNL     1       3.159  -8.107  24.776  0.00  0.00    -0.227 OA
BRANCH  37  39
ATOM     39  O   UNL     1       5.098  -7.424  23.645  0.00  0.00    -0.302 OA
ATOM     40  H   UNL     1       5.175  -8.332  23.988  0.00  0.00    +0.222 HD
ENDBRANCH  37  39
BRANCH  37  41
ATOM     41  O   UNL     1       2.944  -6.823  22.817  0.00  0.00    -0.302 OA
ATOM     42  H   UNL     1       2.080  -7.264  22.870  0.00  0.00    +0.222 HD
ENDBRANCH  37  41
ENDBRANCH  36  37
ENDBRANCH  32  36
ENDBRANCH  31  32
ENDBRANCH  30  31
ENDBRANCH   2  30
TORSDOF 13
ENDMDL
MODEL 4
REMARK VINA RESULT:      -7.2      2.229      4.366
REMARK  Name = 
REMARK  14 active torsions:
REMARK  status: ('A' for Active; 'I' for Inactive)
REMARK    1  A    between atoms: C_1  and  N_2
REMARK    2  A    between atoms: N_2  and  C_3
REMARK    3  A    between atoms: C_8  and  C_9
REMARK    4  A    between atoms: C_9  and  O_11
REMARK    5  A    between atoms: O_11  and  C_12
REMARK    6  A    between atoms: C_15  and  N_30
REMARK    7  A    between atoms: C_18  and  C_20
REMARK    8  A    between atoms: C_20  and  O_21
REMARK    9  A    between atoms: O_21  and  P_22
REMARK   10  A    between atoms: P_22  and  O_23
REMARK   11  A    between atoms: P_22  and  O_25
REMARK   12  A    between atoms: O_25  and  P_26
REMARK   13  A    between atoms: P_26  and  O_27
REMARK   14  A    between atoms: P_26  and  O_28
REMARK                            x       y       z     vdW  Elec       q    Type
REMARK                         _______ _______ _______ _____ _____    ______ ____
ROOT
ATOM      1  C   UNL     1       7.734  -2.307  22.974  0.00  0.00    +0.212 C 
ATOM      2  C   UNL     1       7.785  -3.525  23.904  0.00  0.00    +0.188 C 
ATOM      3  O   UNL     1       6.752  -3.307  24.916  0.00  0.00    -0.347 OA
ATOM      4  C   UNL     1       6.100  -2.021  24.686  0.00  0.00    +0.226 C 
ATOM      5  C   UNL     1       6.350  -1.736  23.217  0.00  0.00    +0.102 C 
ENDROOT
BRANCH   4   6
ATOM      6  N   UNL     1       6.538  -1.010  25.643  0.00  0.00    -0.288 N 
ATOM      7  C   UNL     1       6.041   0.267  25.775  0.00  0.00    +0.167 A 
ATOM      8  N   UNL     1       5.071   0.864  25.063  0.00  0.00    -0.216 NA
ATOM      9  C   UNL     1       4.898   2.152  25.447  0.00  0.00    +0.225 A 
ATOM     10  N   UNL     1       5.559   2.835  26.405  0.00  0.00    -0.219 NA
ATOM     11  C   UNL     1       6.507   2.187  27.118  0.00  0.00    +0.147 A 
ATOM     12  N   UNL     1       7.178   2.894  28.103  0.00  0.00    -0.341 N 
ATOM     13  H   UNL     1       7.610   2.293  28.796  0.00  0.00    +0.144 HD
ATOM     14  H   UNL     1       6.635   3.679  28.435  0.00  0.00    +0.144 HD
ATOM     15  C   UNL     1       6.769   0.835  26.813  0.00  0.00    +0.147 A 
ATOM     16  N   UNL     1       7.615  -0.094  27.378  0.00  0.00    -0.231 NA
ATOM     17  C   UNL     1       7.444  -1.187  26.662  0.00  0.00    +0.203 A 
ENDBRANCH   4   6
BRANCH   1  18
ATOM     18  O   UNL     1       8.769  -1.289  23.110  0.00  0.00    -0.455 OA
BRANCH  18  19
ATOM     19  C   UNL     1       8.977  -0.239  22.270  0.00  0.00    +0.341 C 
ATOM     20  O   UNL     1       9.374  -0.319  21.121  0.00  0.00    -0.245 OA
BRANCH  19  22
ATOM     21  C   UNL     1       9.063   1.528  24.105  0.00  0.00    +0.041 A 
ATOM     22  C   UNL     1       8.505   1.040  22.899  0.00  0.00    +0.080 A 
ATOM     23  C   UNL     1       7.548   1.827  22.226  0.00  0.00    +0.017 A 
ATOM     24  C   UNL     1       7.239   3.116  22.664  0.00  0.00    +0.001 A 
ATOM     25  C   UNL     1       7.930   3.664  23.734  0.00  0.00    +0.002 A 
ATOM     26  C   UNL     1       8.840   2.880  24.433  0.00  0.00    +0.024 A 
BRANCH  21  28
ATOM     27  C   UNL     1      11.288   0.740  24.657  0.00  0.00    +0.125 C 
ATOM     28  N   UNL     1       9.857   0.757  24.983  0.00  0.00    -0.346 N 
ATOM     29  H   UNL     1       9.705   1.043  25.959  0.00  0.00    +0.146 HD
ENDBRANCH  21  28
ENDBRANCH  19  22
ENDBRANCH  18  19
ENDBRANCH   1  18
BRANCH   2  30
ATOM     30  C   UNL     1       7.554  -4.876  23.148  0.00  0.00    +0.207 C 
BRANCH  30  31
ATOM     31  O   UNL     1       6.473  -5.634  23.715  0.00  0.00    -0.284 OA
BRANCH  31  32
ATOM     32  P   UNL     1       5.051  -5.800  22.869  0.00  0.00    +0.483 P 
ATOM     33  O   UNL     1       4.787  -4.488  22.140  0.00  0.00    -0.227 OA
BRANCH  32  34
ATOM     34  O   UNL     1       5.945  -6.294  21.473  0.00  0.00    -0.302 OA
ATOM     35  H   UNL     1       6.180  -5.436  21.057  0.00  0.00    +0.222 HD
ENDBRANCH  32  34
BRANCH  32  36
ATOM     36  O   UNL     1       4.157  -5.306  24.266  0.00  0.00    -0.186 OA
BRANCH  36  37
ATOM     37  P   UNL     1       3.435  -6.691  25.008  0.00  0.00    +0.481 P 
ATOM     38  O   UNL     1       2.788  -7.932  25.673  0.00  0.00    -0.227 OA
BRANCH  37  39
ATOM     39  O   UNL     1       4.755  -6.688  25.970  0.00  0.00    -0.302 OA
ATOM     40  H   UNL     1       4.801  -7.549  26.423  0.00  0.00    +0.222 HD
ENDBRANCH  37  39
BRANCH  37  41
ATOM     41  O   UNL     1       4.183  -7.543  23.819  0.00  0.00    -0.302 OA
ATOM     42  H   UNL     1       4.904  -8.106  24.146  0.00  0.00    +0.222 HD
ENDBRANCH  37  41
ENDBRANCH  36  37
ENDBRANCH  32  36
ENDBRANCH  31  32
ENDBRANCH  30  31
ENDBRANCH   2  30
TORSDOF 13
ENDMDL
MODEL 5
REMARK VINA RESULT:      -7.2      1.748      2.946
REMARK  Name = 
REMARK  14 active torsions:
REMARK  status: ('A' for Active; 'I' for Inactive)
REMARK    1  A    between atoms: C_1  and  N_2
REMARK    2  A    between atoms: N_2  and  C_3
REMARK    3  A    between atoms: C_8  and  C_9
REMARK    4  A    between atoms: C_9  and  O_11
REMARK    5  A    between atoms: O_11  and  C_12
REMARK    6  A    between atoms: C_15  and  N_30
REMARK    7  A    between atoms: C_18  and  C_20
REMARK    8  A    between atoms: C_20  and  O_21
REMARK    9  A    between atoms: O_21  and  P_22
REMARK   10  A    between atoms: P_22  and  O_23
REMARK   11  A    between atoms: P_22  and  O_25
REMARK   12  A    between atoms: O_25  and  P_26
REMARK   13  A    between atoms: P_26  and  O_27
REMARK   14  A    between atoms: P_26  and  O_28
REMARK                            x       y       z     vdW  Elec       q    Type
REMARK                         _______ _______ _______ _____ _____    ______ ____
ROOT
ATOM      1  C   UNL     1       7.397  -2.893  26.025  0.00  0.00    +0.212 C 
ATOM      2  C   UNL     1       7.063  -4.018  25.040  0.00  0.00    +0.188 C 
ATOM      3  O   UNL     1       8.221  -4.140  24.156  0.00  0.00    -0.347 OA
ATOM      4  C   UNL     1       9.222  -3.140  24.513  0.00  0.00    +0.226 C 
ATOM      5  C   UNL     1       8.909  -2.802  25.958  0.00  0.00    +0.102 C 
ENDROOT
BRANCH   4   6
ATOM      6  N   UNL     1       9.249  -2.033  23.562  0.00  0.00    -0.288 N 
ATOM      7  C   UNL     1       9.790  -0.784  23.770  0.00  0.00    +0.167 A 
ATOM      8  N   UNL     1      10.392  -0.307  24.871  0.00  0.00    -0.216 NA
ATOM      9  C   UNL     1      10.744   0.992  24.718  0.00  0.00    +0.225 A 
ATOM     10  N   UNL     1      10.559   1.788  23.645  0.00  0.00    -0.219 NA
ATOM     11  C   UNL     1       9.976   1.258  22.546  0.00  0.00    +0.147 A 
ATOM     12  N   UNL     1       9.794   2.080  21.445  0.00  0.00    -0.341 N 
ATOM     13  H   UNL     1       9.673   1.563  20.582  0.00  0.00    +0.144 HD
ATOM     14  H   UNL     1      10.447   2.852  21.443  0.00  0.00    +0.144 HD
ATOM     15  C   UNL     1       9.574  -0.094  22.585  0.00  0.00    +0.147 A 
ATOM     16  N   UNL     1       9.015  -0.920  21.635  0.00  0.00    -0.231 NA
ATOM     17  C   UNL     1       8.844  -2.073  22.250  0.00  0.00    +0.203 A 
ENDBRANCH   4   6
BRANCH   1  18
ATOM     18  O   UNL     1       6.770  -1.591  25.828  0.00  0.00    -0.455 OA
BRANCH  18  19
ATOM     19  C   UNL     1       7.151  -0.420  26.406  0.00  0.00    +0.341 C 
ATOM     20  O   UNL     1       7.743  -0.313  27.465  0.00  0.00    -0.245 OA
BRANCH  19  22
ATOM     21  C   UNL     1       7.207   2.065  25.843  0.00  0.00    +0.041 A 
ATOM     22  C   UNL     1       6.880   0.735  25.485  0.00  0.00    +0.080 A 
ATOM     23  C   UNL     1       6.374   0.484  24.193  0.00  0.00    +0.017 A 
ATOM     24  C   UNL     1       6.309   1.498  23.236  0.00  0.00    +0.001 A 
ATOM     25  C   UNL     1       6.810   2.756  23.530  0.00  0.00    +0.002 A 
ATOM     26  C   UNL     1       7.266   3.027  24.815  0.00  0.00    +0.024 A 
BRANCH  21  28
ATOM     27  C   UNL     1       6.360   2.961  27.930  0.00  0.00    +0.125 C 
ATOM     28  N   UNL     1       7.512   2.483  27.158  0.00  0.00    -0.346 N 
ATOM     29  H   UNL     1       8.017   1.745  27.667  0.00  0.00    +0.146 HD
ENDBRANCH  21  28
ENDBRANCH  19  22
ENDBRANCH  18  19
ENDBRANCH   1  18
BRANCH   2  30
ATOM     30  C   UNL     1       6.755  -5.378  25.753  0.00  0.00    +0.207 C 
BRANCH  30  31
ATOM     31  O   UNL     1       5.446  -5.873  25.428  0.00  0.00    -0.284 OA
BRANCH  31  32
ATOM     32  P   UNL     1       4.727  -5.424  23.998  0.00  0.00    +0.483 P 
ATOM     33  O   UNL     1       3.553  -6.365  23.751  0.00  0.00    -0.227 OA
BRANCH  32  34
ATOM     34  O   UNL     1       3.623  -4.420  24.873  0.00  0.00    -0.302 OA
ATOM     35  H   UNL     1       3.009  -4.116  24.169  0.00  0.00    +0.222 HD
ENDBRANCH  32  34
BRANCH  32  36
ATOM     36  O   UNL     1       5.830  -6.429  23.122  0.00  0.00    -0.186 OA
BRANCH  36  37
ATOM     37  P   UNL     1       5.920  -5.892  21.480  0.00  0.00    +0.481 P 
ATOM     38  O   UNL     1       6.000  -5.411  20.010  0.00  0.00    -0.227 OA
BRANCH  37  39
ATOM     39  O   UNL     1       7.434  -5.416  21.868  0.00  0.00    -0.302 OA
ATOM     40  H   UNL     1       7.954  -6.210  22.085  0.00  0.00    +0.222 HD
ENDBRANCH  37  39
BRANCH  37  41
ATOM     41  O   UNL     1       5.235  -4.508  22.044  0.00  0.00    -0.302 OA
ATOM     42  H   UNL     1       5.787  -4.046  22.697  0.00  0.00    +0.222 HD
ENDBRANCH  37  41
ENDBRANCH  36  37
ENDBRANCH  32  36
ENDBRANCH  31  32
ENDBRANCH  30  31
ENDBRANCH   2  30
TORSDOF 13
ENDMDL
MODEL 6
REMARK VINA RESULT:      -7.2      4.863      7.727
REMARK  Name = 
REMARK  14 active torsions:
REMARK  status: ('A' for Active; 'I' for Inactive)
REMARK    1  A    between atoms: C_1  and  N_2
REMARK    2  A    between atoms: N_2  and  C_3
REMARK    3  A    between atoms: C_8  and  C_9
REMARK    4  A    between atoms: C_9  and  O_11
REMARK    5  A    between atoms: O_11  and  C_12
REMARK    6  A    between atoms: C_15  and  N_30
REMARK    7  A    between atoms: C_18  and  C_20
REMARK    8  A    between atoms: C_20  and  O_21
REMARK    9  A    between atoms: O_21  and  P_22
REMARK   10  A    between atoms: P_22  and  O_23
REMARK   11  A    between atoms: P_22  and  O_25
REMARK   12  A    between atoms: O_25  and  P_26
REMARK   13  A    between atoms: P_26  and  O_27
REMARK   14  A    between atoms: P_26  and  O_28
REMARK                            x       y       z     vdW  Elec       q    Type
REMARK                         _______ _______ _______ _____ _____    ______ ____
ROOT
ATOM      1  C   UNL     1       9.035  -0.947  22.292  0.00  0.00    +0.212 C 
ATOM      2  C   UNL     1       8.591   0.365  22.951  0.00  0.00    +0.188 C 
ATOM      3  O   UNL     1       9.016   0.281  24.348  0.00  0.00    -0.347 OA
ATOM      4  C   UNL     1       9.656  -1.008  24.593  0.00  0.00    +0.226 C 
ATOM      5  C   UNL     1      10.119  -1.458  23.220  0.00  0.00    +0.102 C 
ENDROOT
BRANCH   4   6
ATOM      6  N   UNL     1       8.784  -1.916  25.331  0.00  0.00    -0.288 N 
ATOM      7  C   UNL     1       8.891  -3.287  25.395  0.00  0.00    +0.167 A 
ATOM      8  N   UNL     1       9.792  -4.084  24.798  0.00  0.00    -0.216 NA
ATOM      9  C   UNL     1       9.540  -5.391  25.050  0.00  0.00    +0.225 A 
ATOM     10  N   UNL     1       8.544  -5.923  25.788  0.00  0.00    -0.219 NA
ATOM     11  C   UNL     1       7.676  -5.083  26.397  0.00  0.00    +0.147 A 
ATOM     12  N   UNL     1       6.659  -5.637  27.157  0.00  0.00    -0.341 N 
ATOM     13  H   UNL     1       6.270  -4.987  27.830  0.00  0.00    +0.144 HD
ATOM     14  H   UNL     1       6.898  -6.564  27.484  0.00  0.00    +0.144 HD
ATOM     15  C   UNL     1       7.846  -3.695  26.213  0.00  0.00    +0.147 A 
ATOM     16  N   UNL     1       7.178  -2.606  26.728  0.00  0.00    -0.231 NA
ATOM     17  C   UNL     1       7.771  -1.560  26.189  0.00  0.00    +0.203 A 
ENDBRANCH   4   6
BRANCH   1  18
ATOM     18  O   UNL     1       8.025  -1.966  22.031  0.00  0.00    -0.455 OA
BRANCH  18  19
ATOM     19  C   UNL     1       6.838  -2.105  22.679  0.00  0.00    +0.341 C 
ATOM     20  O   UNL     1       6.077  -1.198  22.968  0.00  0.00    -0.245 OA
BRANCH  19  22
ATOM     21  C   UNL     1       5.401  -3.976  23.643  0.00  0.00    +0.041 A 
ATOM     22  C   UNL     1       6.506  -3.558  22.863  0.00  0.00    +0.080 A 
ATOM     23  C   UNL     1       7.253  -4.530  22.167  0.00  0.00    +0.017 A 
ATOM     24  C   UNL     1       6.847  -5.866  22.140  0.00  0.00    +0.001 A 
ATOM     25  C   UNL     1       5.657  -6.238  22.746  0.00  0.00    +0.002 A 
ATOM     26  C   UNL     1       4.939  -5.297  23.475  0.00  0.00    +0.024 A 
BRANCH  21  28
ATOM     27  C   UNL     1       3.860  -3.862  25.511  0.00  0.00    +0.125 C 
ATOM     28  N   UNL     1       4.709  -3.145  24.553  0.00  0.00    -0.346 N 
ATOM     29  H   UNL     1       5.361  -2.515  25.039  0.00  0.00    +0.146 HD
ENDBRANCH  21  28
ENDBRANCH  19  22
ENDBRANCH  18  19
ENDBRANCH   1  18
BRANCH   2  30
ATOM     30  C   UNL     1       9.197   1.629  22.255  0.00  0.00    +0.207 C 
BRANCH  30  31
ATOM     31  O   UNL     1       8.181   2.469  21.682  0.00  0.00    -0.284 OA
BRANCH  31  32
ATOM     32  P   UNL     1       7.347   3.530  22.652  0.00  0.00    +0.483 P 
ATOM     33  O   UNL     1       7.407   4.905  21.998  0.00  0.00    -0.227 OA
BRANCH  32  34
ATOM     34  O   UNL     1       5.915   3.248  21.723  0.00  0.00    -0.302 OA
ATOM     35  H   UNL     1       5.237   3.099  22.418  0.00  0.00    +0.222 HD
ENDBRANCH  32  34
BRANCH  32  36
ATOM     36  O   UNL     1       8.778   3.813  23.582  0.00  0.00    -0.186 OA
BRANCH  36  37
ATOM     37  P   UNL     1       8.340   4.328  25.174  0.00  0.00    +0.481 P 
ATOM     38  O   UNL     1       7.947   4.790  26.599  0.00  0.00    -0.227 OA
BRANCH  37  39
ATOM     39  O   UNL     1       8.446   2.745  25.562  0.00  0.00    -0.302 OA
ATOM     40  H   UNL     1       7.723   2.274  25.111  0.00  0.00    +0.222 HD
ENDBRANCH  37  39
BRANCH  37  41
ATOM     41  O   UNL     1       6.792   4.194  24.638  0.00  0.00    -0.302 OA
ATOM     42  H   UNL     1       6.645   3.408  24.086  0.00  0.00    +0.222 HD
ENDBRANCH  37  41
ENDBRANCH  36  37
ENDBRANCH  32  36
ENDBRANCH  31  32
ENDBRANCH  30  31
ENDBRANCH   2  30
TORSDOF 13
ENDMDL
MODEL 7
REMARK VINA RESULT:      -7.1      1.425      2.670
REMARK  Name = 
REMARK  14 active torsions:
REMARK  status: ('A' for Active; 'I' for Inactive)
REMARK    1  A    between atoms: C_1  and  N_2
REMARK    2  A    between atoms: N_2  and  C_3
REMARK    3  A    between atoms: C_8  and  C_9
REMARK    4  A    between atoms: C_9  and  O_11
REMARK    5  A    between atoms: O_11  and  C_12
REMARK    6  A    between atoms: C_15  and  N_30
REMARK    7  A    between atoms: C_18  and  C_20
REMARK    8  A    between atoms: C_20  and  O_21
REMARK    9  A    between atoms: O_21  and  P_22
REMARK   10  A    between atoms: P_22  and  O_23
REMARK   11  A    between atoms: P_22  and  O_25
REMARK   12  A    between atoms: O_25  and  P_26
REMARK   13  A    between atoms: P_26  and  O_27
REMARK   14  A    between atoms: P_26  and  O_28
REMARK                            x       y       z     vdW  Elec       q    Type
REMARK                         _______ _______ _______ _____ _____    ______ ____
ROOT
ATOM      1  C   UNL     1       6.452  -3.114  24.882  0.00  0.00    +0.212 C 
ATOM      2  C   UNL     1       6.579  -4.187  23.795  0.00  0.00    +0.188 C 
ATOM      3  O   UNL     1       7.982  -4.179  23.380  0.00  0.00    -0.347 OA
ATOM      4  C   UNL     1       8.708  -3.147  24.114  0.00  0.00    +0.226 C 
ATOM      5  C   UNL     1       7.877  -2.929  25.365  0.00  0.00    +0.102 C 
ENDROOT
BRANCH   4   6
ATOM      6  N   UNL     1       8.981  -1.978  23.285  0.00  0.00    -0.288 N 
ATOM      7  C   UNL     1       9.575  -0.804  23.689  0.00  0.00    +0.167 A 
ATOM      8  N   UNL     1      10.019  -0.470  24.912  0.00  0.00    -0.216 NA
ATOM      9  C   UNL     1      10.492   0.799  24.936  0.00  0.00    +0.225 A 
ATOM     10  N   UNL     1      10.552   1.689  23.923  0.00  0.00    -0.219 NA
ATOM     11  C   UNL     1      10.122   1.301  22.701  0.00  0.00    +0.147 A 
ATOM     12  N   UNL     1      10.192   2.218  21.665  0.00  0.00    -0.341 N 
ATOM     13  H   UNL     1      10.178   1.782  20.750  0.00  0.00    +0.144 HD
ATOM     14  H   UNL     1      10.895   2.924  21.838  0.00  0.00    +0.144 HD
ATOM     15  C   UNL     1       9.615  -0.007  22.552  0.00  0.00    +0.147 A 
ATOM     16  N   UNL     1       9.161  -0.703  21.454  0.00  0.00    -0.231 NA
ATOM     17  C   UNL     1       8.799  -1.879  21.926  0.00  0.00    +0.203 A 
ENDBRANCH   4   6
BRANCH   1  18
ATOM     18  O   UNL     1       5.833  -1.842  24.529  0.00  0.00    -0.455 OA
BRANCH  18  19
ATOM     19  C   UNL     1       5.280  -0.951  25.395  0.00  0.00    +0.341 C 
ATOM     20  O   UNL     1       4.259  -1.127  26.038  0.00  0.00    -0.245 OA
BRANCH  19  22
ATOM     21  C   UNL     1       6.501   1.101  24.504  0.00  0.00    +0.041 A 
ATOM     22  C   UNL     1       6.181   0.236  25.578  0.00  0.00    +0.080 A 
ATOM     23  C   UNL     1       6.648   0.556  26.869  0.00  0.00    +0.017 A 
ATOM     24  C   UNL     1       7.307   1.762  27.118  0.00  0.00    +0.001 A 
ATOM     25  C   UNL     1       7.448   2.693  26.101  0.00  0.00    +0.002 A 
ATOM     26  C   UNL     1       7.035   2.367  24.815  0.00  0.00    +0.024 A 
BRANCH  21  28
ATOM     27  C   UNL     1       6.509   1.908  22.218  0.00  0.00    +0.125 C 
ATOM     28  N   UNL     1       6.287   0.790  23.141  0.00  0.00    -0.346 N 
ATOM     29  H   UNL     1       6.839  -0.032  22.864  0.00  0.00    +0.146 HD
ENDBRANCH  21  28
ENDBRANCH  19  22
ENDBRANCH  18  19
ENDBRANCH   1  18
BRANCH   2  30
ATOM     30  C   UNL     1       6.150  -5.608  24.291  0.00  0.00    +0.207 C 
BRANCH  30  31
ATOM     31  O   UNL     1       5.794  -5.610  25.683  0.00  0.00    -0.284 OA
BRANCH  31  32
ATOM     32  P   UNL     1       4.379  -6.336  26.170  0.00  0.00    +0.483 P 
ATOM     33  O   UNL     1       4.207  -7.613  25.357  0.00  0.00    -0.227 OA
BRANCH  32  34
ATOM     34  O   UNL     1       5.265  -7.287  27.312  0.00  0.00    -0.302 OA
ATOM     35  H   UNL     1       4.821  -8.161  27.248  0.00  0.00    +0.222 HD
ENDBRANCH  32  34
BRANCH  32  36
ATOM     36  O   UNL     1       3.493  -5.385  25.028  0.00  0.00    -0.186 OA
BRANCH  36  37
ATOM     37  P   UNL     1       2.419  -4.323  25.872  0.00  0.00    +0.481 P 
ATOM     38  O   UNL     1       1.458  -3.373  26.628  0.00  0.00    -0.227 OA
BRANCH  37  39
ATOM     39  O   UNL     1       2.885  -3.208  24.773  0.00  0.00    -0.302 OA
ATOM     40  H   UNL     1       3.196  -2.421  25.254  0.00  0.00    +0.222 HD
ENDBRANCH  37  39
BRANCH  37  41
ATOM     41  O   UNL     1       3.704  -4.034  26.855  0.00  0.00    -0.302 OA
ATOM     42  H   UNL     1       3.758  -3.112  27.154  0.00  0.00    +0.222 HD
ENDBRANCH  37  41
ENDBRANCH  36  37
ENDBRANCH  32  36
ENDBRANCH  31  32
ENDBRANCH  30  31
ENDBRANCH   2  30
TORSDOF 13
ENDMDL
MODEL 8
REMARK VINA RESULT:      -7.1      2.545      3.948
REMARK  Name = 
REMARK  14 active torsions:
REMARK  status: ('A' for Active; 'I' for Inactive)
REMARK    1  A    between atoms: C_1  and  N_2
REMARK    2  A    between atoms: N_2  and  C_3
REMARK    3  A    between atoms: C_8  and  C_9
REMARK    4  A    between atoms: C_9  and  O_11
REMARK    5  A    between atoms: O_11  and  C_12
REMARK    6  A    between atoms: C_15  and  N_30
REMARK    7  A    between atoms: C_18  and  C_20
REMARK    8  A    between atoms: C_20  and  O_21
REMARK    9  A    between atoms: O_21  and  P_22
REMARK   10  A    between atoms: P_22  and  O_23
REMARK   11  A    between atoms: P_22  and  O_25
REMARK   12  A    between atoms: O_25  and  P_26
REMARK   13  A    between atoms: P_26  and  O_27
REMARK   14  A    between atoms: P_26  and  O_28
REMARK                            x       y       z     vdW  Elec       q    Type
REMARK                         _______ _______ _______ _____ _____    ______ ____
ROOT
ATOM      1  C   UNL     1       8.285  -0.544  24.828  0.00  0.00    +0.212 C 
ATOM      2  C   UNL     1       8.655  -1.264  23.526  0.00  0.00    +0.188 C 
ATOM      3  O   UNL     1       9.447  -0.312  22.747  0.00  0.00    -0.347 OA
ATOM      4  C   UNL     1       9.553   0.951  23.471  0.00  0.00    +0.226 C 
ATOM      5  C   UNL     1       9.311   0.569  24.920  0.00  0.00    +0.102 C 
ENDROOT
BRANCH   4   6
ATOM      6  N   UNL     1       8.688   1.979  22.902  0.00  0.00    -0.288 N 
ATOM      7  C   UNL     1       8.711   3.325  23.191  0.00  0.00    +0.167 A 
ATOM      8  N   UNL     1       9.507   3.982  24.049  0.00  0.00    -0.216 NA
ATOM      9  C   UNL     1       9.193   5.298  24.105  0.00  0.00    +0.225 A 
ATOM     10  N   UNL     1       8.228   5.958  23.431  0.00  0.00    -0.219 NA
ATOM     11  C   UNL     1       7.469   5.263  22.554  0.00  0.00    +0.147 A 
ATOM     12  N   UNL     1       6.483   5.948  21.862  0.00  0.00    -0.341 N 
ATOM     13  H   UNL     1       6.193   5.473  21.015  0.00  0.00    +0.144 HD
ATOM     14  H   UNL     1       6.688   6.936  21.799  0.00  0.00    +0.144 HD
ATOM     15  C   UNL     1       7.712   3.882  22.403  0.00  0.00    +0.147 A 
ATOM     16  N   UNL     1       7.159   2.931  21.573  0.00  0.00    -0.231 NA
ATOM     17  C   UNL     1       7.773   1.809  21.891  0.00  0.00    +0.203 A 
ENDBRANCH   4   6
BRANCH   1  18
ATOM     18  O   UNL     1       6.926  -0.038  24.977  0.00  0.00    -0.455 OA
BRANCH  18  19
ATOM     19  C   UNL     1       6.394   0.516  26.099  0.00  0.00    +0.341 C 
ATOM     20  O   UNL     1       6.058  -0.094  27.099  0.00  0.00    -0.245 OA
BRANCH  19  22
ATOM     21  C   UNL     1       5.587   2.717  25.098  0.00  0.00    +0.041 A 
ATOM     22  C   UNL     1       6.414   2.015  26.008  0.00  0.00    +0.080 A 
ATOM     23  C   UNL     1       7.205   2.751  26.913  0.00  0.00    +0.017 A 
ATOM     24  C   UNL     1       7.091   4.140  27.005  0.00  0.00    +0.001 A 
ATOM     25  C   UNL     1       6.140   4.804  26.247  0.00  0.00    +0.002 A 
ATOM     26  C   UNL     1       5.390   4.095  25.317  0.00  0.00    +0.024 A 
BRANCH  21  28
ATOM     27  C   UNL     1       4.035   3.022  23.261  0.00  0.00    +0.125 C 
ATOM     28  N   UNL     1       4.918   2.118  24.006  0.00  0.00    -0.346 N 
ATOM     29  H   UNL     1       5.588   1.657  23.377  0.00  0.00    +0.146 HD
ENDBRANCH  21  28
ENDBRANCH  19  22
ENDBRANCH  18  19
ENDBRANCH   1  18
BRANCH   2  30
ATOM     30  C   UNL     1       9.452  -2.589  23.770  0.00  0.00    +0.207 C 
BRANCH  30  31
ATOM     31  O   UNL     1       9.304  -3.068  25.116  0.00  0.00    -0.284 OA
BRANCH  31  32
ATOM     32  P   UNL     1       8.944  -4.669  25.386  0.00  0.00    +0.483 P 
ATOM     33  O   UNL     1       8.491  -5.274  24.063  0.00  0.00    -0.227 OA
BRANCH  32  34
ATOM     34  O   UNL     1      10.556  -5.104  24.931  0.00  0.00    -0.302 OA
ATOM     35  H   UNL     1      11.075  -4.857  25.728  0.00  0.00    +0.222 HD
ENDBRANCH  32  34
BRANCH  32  36
ATOM     36  O   UNL     1       7.332  -4.235  25.841  0.00  0.00    -0.186 OA
BRANCH  36  37
ATOM     37  P   UNL     1       6.786  -5.286  27.102  0.00  0.00    +0.481 P 
ATOM     38  O   UNL     1       6.297  -6.227  28.230  0.00  0.00    -0.227 OA
BRANCH  37  39
ATOM     39  O   UNL     1       8.276  -5.948  27.001  0.00  0.00    -0.302 OA
ATOM     40  H   UNL     1       8.796  -5.639  27.765  0.00  0.00    +0.222 HD
ENDBRANCH  37  39
BRANCH  37  41
ATOM     41  O   UNL     1       6.187  -6.208  25.880  0.00  0.00    -0.302 OA
ATOM     42  H   UNL     1       6.879  -6.638  25.350  0.00  0.00    +0.222 HD
ENDBRANCH  37  41
ENDBRANCH  36  37
ENDBRANCH  32  36
ENDBRANCH  31  32
ENDBRANCH  30  31
ENDBRANCH   2  30
TORSDOF 13
ENDMDL
MODEL 9
REMARK VINA RESULT:      -7.1      3.247      5.584
REMARK  Name = 
REMARK  14 active torsions:
REMARK  status: ('A' for Active; 'I' for Inactive)
REMARK    1  A    between atoms: C_1  and  N_2
REMARK    2  A    between atoms: N_2  and  C_3
REMARK    3  A    between atoms: C_8  and  C_9
REMARK    4  A    between atoms: C_9  and  O_11
REMARK    5  A    between atoms: O_11  and  C_12
REMARK    6  A    between atoms: C_15  and  N_30
REMARK    7  A    between atoms: C_18  and  C_20
REMARK    8  A    between atoms: C_20  and  O_21
REMARK    9  A    between atoms: O_21  and  P_22
REMARK   10  A    between atoms: P_22  and  O_23
REMARK   11  A    between atoms: P_22  and  O_25
REMARK   12  A    between atoms: O_25  and  P_26
REMARK   13  A    between atoms: P_26  and  O_27
REMARK   14  A    between atoms: P_26  and  O_28
REMARK                            x       y       z     vdW  Elec       q    Type
REMARK                         _______ _______ _______ _____ _____    ______ ____
ROOT
ATOM      1  C   UNL     1       9.102  -0.225  23.698  0.00  0.00    +0.212 C 
ATOM      2  C   UNL     1       8.712  -1.219  24.798  0.00  0.00    +0.188 C 
ATOM      3  O   UNL     1       7.257  -1.351  24.729  0.00  0.00    -0.347 OA
ATOM      4  C   UNL     1       6.731  -0.477  23.684  0.00  0.00    +0.226 C 
ATOM      5  C   UNL     1       7.912  -0.255  22.758  0.00  0.00    +0.102 C 
ENDROOT
BRANCH   4   6
ATOM      6  N   UNL     1       6.090   0.710  24.241  0.00  0.00    -0.288 N 
ATOM      7  C   UNL     1       5.954   1.935  23.627  0.00  0.00    +0.167 A 
ATOM      8  N   UNL     1       6.379   2.311  22.410  0.00  0.00    -0.216 NA
ATOM      9  C   UNL     1       6.112   3.619  22.176  0.00  0.00    +0.225 A 
ATOM     10  N   UNL     1       5.505   4.507  22.990  0.00  0.00    -0.219 NA
ATOM     11  C   UNL     1       5.065   4.078  24.194  0.00  0.00    +0.147 A 
ATOM     12  N   UNL     1       4.438   4.995  25.023  0.00  0.00    -0.341 N 
ATOM     13  H   UNL     1       3.857   4.557  25.728  0.00  0.00    +0.144 HD
ATOM     14  H   UNL     1       4.042   5.763  24.498  0.00  0.00    +0.144 HD
ATOM     15  C   UNL     1       5.280   2.729  24.546  0.00  0.00    +0.147 A 
ATOM     16  N   UNL     1       4.914   1.991  25.650  0.00  0.00    -0.231 NA
ATOM     17  C   UNL     1       5.405   0.788  25.430  0.00  0.00    +0.203 A 
ENDBRANCH   4   6
BRANCH   1  18
ATOM     18  O   UNL     1       9.447   1.137  24.087  0.00  0.00    -0.455 OA
BRANCH  18  19
ATOM     19  C   UNL     1       9.915   2.113  23.263  0.00  0.00    +0.341 C 
ATOM     20  O   UNL     1      10.258   1.958  22.104  0.00  0.00    -0.245 OA
BRANCH  19  22
ATOM     21  C   UNL     1      10.673   4.526  23.582  0.00  0.00    +0.041 A 
ATOM     22  C   UNL     1       9.810   3.457  23.925  0.00  0.00    +0.080 A 
ATOM     23  C   UNL     1       8.767   3.694  24.844  0.00  0.00    +0.017 A 
ATOM     24  C   UNL     1       8.505   4.981  25.318  0.00  0.00    +0.001 A 
ATOM     25  C   UNL     1       9.230   6.057  24.831  0.00  0.00    +0.002 A 
ATOM     26  C   UNL     1      10.291   5.828  23.963  0.00  0.00    +0.024 A 
BRANCH  21  28
ATOM     27  C   UNL     1      12.934   5.321  23.221  0.00  0.00    +0.125 C 
ATOM     28  N   UNL     1      11.874   4.376  22.853  0.00  0.00    -0.346 N 
ATOM     29  H   UNL     1      12.212   3.405  22.903  0.00  0.00    +0.146 HD
ENDBRANCH  21  28
ENDBRANCH  19  22
ENDBRANCH  18  19
ENDBRANCH   1  18
BRANCH   2  30
ATOM     30  C   UNL     1       9.411  -2.610  24.635  0.00  0.00    +0.207 C 
BRANCH  30  31
ATOM     31  O   UNL     1       8.721  -3.454  23.698  0.00  0.00    -0.284 OA
BRANCH  31  32
ATOM     32  P   UNL     1       8.126  -4.924  24.198  0.00  0.00    +0.483 P 
ATOM     33  O   UNL     1       8.227  -5.890  23.023  0.00  0.00    -0.227 OA
BRANCH  32  34
ATOM     34  O   UNL     1       9.726  -5.420  24.629  0.00  0.00    -0.302 OA
ATOM     35  H   UNL     1       9.914  -4.867  25.419  0.00  0.00    +0.222 HD
ENDBRANCH  32  34
BRANCH  32  36
ATOM     36  O   UNL     1       6.526  -4.428  23.765  0.00  0.00    -0.186 OA
BRANCH  36  37
ATOM     37  P   UNL     1       6.195  -4.906  22.136  0.00  0.00    +0.481 P 
ATOM     38  O   UNL     1       5.898  -5.334  20.677  0.00  0.00    -0.227 OA
BRANCH  37  39
ATOM     39  O   UNL     1       6.839  -3.460  21.731  0.00  0.00    -0.302 OA
ATOM     40  H   UNL     1       6.472  -3.197  20.868  0.00  0.00    +0.222 HD
ENDBRANCH  37  39
BRANCH  37  41
ATOM     41  O   UNL     1       4.701  -4.276  22.404  0.00  0.00    -0.302 OA
ATOM     42  H   UNL     1       4.670  -3.310  22.310  0.00  0.00    +0.222 HD
ENDBRANCH  37  41
ENDBRANCH  36  37
ENDBRANCH  32  36
ENDBRANCH  31  32
ENDBRANCH  30  31
ENDBRANCH   2  30
TORSDOF 13
ENDMDL
