MODEL 1
REMARK VINA RESULT:      -8.0      0.000      0.000
REMARK  Name = 
REMARK  3 active torsions:
REMARK  status: ('A' for Active; 'I' for Inactive)
REMARK    1  A    between atoms: O_1  and  C_2
REMARK    2  A    between atoms: C_3  and  O_4
REMARK    3  A    between atoms: C_9  and  C_12
REMARK                            x       y       z     vdW  Elec       q    Type
REMARK                         _______ _______ _______ _____ _____    ______ ____
ROOT
ATOM      1  C   UNL     1       4.971  -4.688  23.453  0.00  0.00    +0.167 C 
ATOM      2  C   UNL     1       5.043  -5.435  24.704  0.00  0.00    +0.031 A 
ATOM      3  C   UNL     1       4.153  -6.488  24.973  0.00  0.00    +0.012 A 
ATOM      4  C   UNL     1       4.169  -7.142  26.205  0.00  0.00    +0.001 A 
ATOM      5  C   UNL     1       5.085  -6.761  27.180  0.00  0.00    +0.001 A 
ATOM      6  C   UNL     1       5.982  -5.724  26.921  0.00  0.00    +0.012 A 
ATOM      7  C   UNL     1       5.958  -5.051  25.687  0.00  0.00    +0.033 A 
ATOM      8  C   UNL     1       6.902  -3.921  25.455  0.00  0.00    +0.197 C 
ATOM      9  O   UNL     1       7.654  -3.620  26.375  0.00  0.00    -0.287 OA
ATOM     10  C   UNL     1       6.903  -3.250  24.077  0.00  0.00    +0.067 C 
ATOM     11  C   UNL     1       7.844  -2.314  23.736  0.00  0.00    -0.055 C 
ATOM     12  C   UNL     1       7.988  -1.779  22.312  0.00  0.00    +0.032 C 
ATOM     13  C   UNL     1       9.424  -1.502  21.860  0.00  0.00    +0.012 C 
ATOM     14  C   UNL     1      10.162  -0.558  22.817  0.00  0.00    +0.020 C 
ATOM     15  C   UNL     1      10.193  -1.302  24.164  0.00  0.00    +0.012 C 
ATOM     16  C   UNL     1       8.791  -1.606  24.709  0.00  0.00    +0.032 C 
ATOM     17  C   UNL     1       5.812  -3.685  23.181  0.00  0.00    +0.170 C 
ENDROOT
BRANCH  14  18
ATOM     18  C   UNL     1       9.622   0.877  22.857  0.00  0.00    -0.044 A 
ATOM     19  C   UNL     1       9.936   1.756  23.912  0.00  0.00    +0.005 A 
ATOM     20  C   UNL     1       9.442   3.064  23.947  0.00  0.00    +0.020 A 
ATOM     21  C   UNL     1       8.595   3.509  22.942  0.00  0.00    +0.041 A 
ATOM     22 CL   UNL     1       7.984   5.117  22.985  0.00  0.00    -0.084 Cl
ATOM     23  C   UNL     1       8.236   2.655  21.907  0.00  0.00    +0.020 A 
ATOM     24  C   UNL     1       8.738   1.348  21.871  0.00  0.00    +0.005 A 
ENDBRANCH  14  18
BRANCH   1  25
ATOM     25  O   UNL     1       3.918  -4.994  22.610  0.00  0.00    -0.503 OA
ATOM     26  H   UNL     1       4.311  -5.208  21.743  0.00  0.00    +0.292 HD
ENDBRANCH   1  25
BRANCH  17  27
ATOM     27  O   UNL     1       5.535  -2.910  22.064  0.00  0.00    -0.503 OA
ATOM     28  H   UNL     1       6.401  -2.693  21.673  0.00  0.00    +0.292 HD
ENDBRANCH  17  27
TORSDOF 3
ENDMDL
MODEL 2
REMARK VINA RESULT:      -7.5      1.562      1.983
REMARK  Name = 
REMARK  3 active torsions:
REMARK  status: ('A' for Active; 'I' for Inactive)
REMARK    1  A    between atoms: O_1  and  C_2
REMARK    2  A    between atoms: C_3  and  O_4
REMARK    3  A    between atoms: C_9  and  C_12
REMARK                            x       y       z     vdW  Elec       q    Type
REMARK                         _______ _______ _______ _____ _____    ______ ____
ROOT
ATOM      1  C   UNL     1       4.398  -4.092  25.709  0.00  0.00    +0.167 C 
ATOM      2  C   UNL     1       4.775  -5.015  26.775  0.00  0.00    +0.031 A 
ATOM      3  C   UNL     1       3.808  -5.771  27.456  0.00  0.00    +0.012 A 
ATOM      4  C   UNL     1       4.163  -6.586  28.532  0.00  0.00    +0.001 A 
ATOM      5  C   UNL     1       5.493  -6.665  28.932  0.00  0.00    +0.001 A 
ATOM      6  C   UNL     1       6.466  -5.927  28.256  0.00  0.00    +0.012 A 
ATOM      7  C   UNL     1       6.110  -5.092  27.183  0.00  0.00    +0.033 A 
ATOM      8  C   UNL     1       7.164  -4.285  26.506  0.00  0.00    +0.197 C 
ATOM      9  O   UNL     1       8.307  -4.380  26.940  0.00  0.00    -0.287 OA
ATOM     10  C   UNL     1       6.762  -3.436  25.295  0.00  0.00    +0.067 C 
ATOM     11  C   UNL     1       7.697  -2.794  24.527  0.00  0.00    -0.055 C 
ATOM     12  C   UNL     1       7.344  -2.110  23.207  0.00  0.00    +0.032 C 
ATOM     13  C   UNL     1       8.405  -2.220  22.109  0.00  0.00    +0.012 C 
ATOM     14  C   UNL     1       9.775  -1.712  22.574  0.00  0.00    +0.020 C 
ATOM     15  C   UNL     1      10.164  -2.634  23.743  0.00  0.00    +0.012 C 
ATOM     16  C   UNL     1       9.165  -2.575  24.906  0.00  0.00    +0.032 C 
ATOM     17  C   UNL     1       5.307  -3.366  25.050  0.00  0.00    +0.170 C 
ENDROOT
BRANCH  14  18
ATOM     18  C   UNL     1       9.849  -0.207  22.855  0.00  0.00    -0.044 A 
ATOM     19  C   UNL     1       9.433   0.743  21.902  0.00  0.00    +0.005 A 
ATOM     20  C   UNL     1       9.501   2.117  22.159  0.00  0.00    +0.020 A 
ATOM     21  C   UNL     1      10.018   2.568  23.365  0.00  0.00    +0.041 A 
ATOM     22 CL   UNL     1      10.105   4.257  23.682  0.00  0.00    -0.084 Cl
ATOM     23  C   UNL     1      10.470   1.657  24.312  0.00  0.00    +0.020 A 
ATOM     24  C   UNL     1      10.394   0.283  24.054  0.00  0.00    +0.005 A 
ENDBRANCH  14  18
BRANCH   1  25
ATOM     25  O   UNL     1       3.044  -3.922  25.490  0.00  0.00    -0.503 OA
ATOM     26  H   UNL     1       2.852  -2.980  25.657  0.00  0.00    +0.292 HD
ENDBRANCH   1  25
BRANCH  17  27
ATOM     27  O   UNL     1       4.834  -2.377  24.200  0.00  0.00    -0.503 OA
ATOM     28  H   UNL     1       5.421  -1.612  24.334  0.00  0.00    +0.292 HD
ENDBRANCH  17  27
TORSDOF 3
ENDMDL
MODEL 3
REMARK VINA RESULT:      -7.5      3.684      8.436
REMARK  Name = 
REMARK  3 active torsions:
REMARK  status: ('A' for Active; 'I' for Inactive)
REMARK    1  A    between atoms: O_1  and  C_2
REMARK    2  A    between atoms: C_3  and  O_4
REMARK    3  A    between atoms: C_9  and  C_12
REMARK                            x       y       z     vdW  Elec       q    Type
REMARK                         _______ _______ _______ _____ _____    ______ ____
ROOT
ATOM      1  C   UNL     1       7.947   3.889  25.394  0.00  0.00    +0.167 C 
ATOM      2  C   UNL     1       7.741   4.847  24.313  0.00  0.00    +0.031 A 
ATOM      3  C   UNL     1       7.537   6.210  24.580  0.00  0.00    +0.012 A 
ATOM      4  C   UNL     1       7.255   7.108  23.550  0.00  0.00    +0.001 A 
ATOM      5  C   UNL     1       7.187   6.655  22.236  0.00  0.00    +0.001 A 
ATOM      6  C   UNL     1       7.398   5.304  21.956  0.00  0.00    +0.012 A 
ATOM      7  C   UNL     1       7.666   4.395  22.993  0.00  0.00    +0.033 A 
ATOM      8  C   UNL     1       7.848   2.952  22.667  0.00  0.00    +0.197 C 
ATOM      9  O   UNL     1       7.736   2.624  21.491  0.00  0.00    -0.287 OA
ATOM     10  C   UNL     1       8.208   1.991  23.806  0.00  0.00    +0.067 C 
ATOM     11  C   UNL     1       8.544   0.686  23.564  0.00  0.00    -0.055 C 
ATOM     12  C   UNL     1       9.096  -0.234  24.653  0.00  0.00    +0.032 C 
ATOM     13  C   UNL     1      10.170  -1.223  24.191  0.00  0.00    +0.012 C 
ATOM     14  C   UNL     1       9.696  -2.084  23.014  0.00  0.00    +0.020 C 
ATOM     15  C   UNL     1       9.413  -1.085  21.879  0.00  0.00    +0.012 C 
ATOM     16  C   UNL     1       8.329  -0.061  22.244  0.00  0.00    +0.032 C 
ATOM     17  C   UNL     1       8.144   2.588  25.156  0.00  0.00    +0.170 C 
ENDROOT
BRANCH  14  18
ATOM     18  C   UNL     1       8.564  -3.065  23.342  0.00  0.00    -0.044 A 
ATOM     19  C   UNL     1       8.545  -3.795  24.547  0.00  0.00    +0.005 A 
ATOM     20  C   UNL     1       7.512  -4.690  24.845  0.00  0.00    +0.020 A 
ATOM     21  C   UNL     1       6.492  -4.897  23.927  0.00  0.00    +0.041 A 
ATOM     22 CL   UNL     1       5.223  -5.999  24.290  0.00  0.00    -0.084 Cl
ATOM     23  C   UNL     1       6.502  -4.220  22.713  0.00  0.00    +0.020 A 
ATOM     24  C   UNL     1       7.534  -3.320  22.421  0.00  0.00    +0.005 A 
ENDBRANCH  14  18
BRANCH   1  25
ATOM     25  O   UNL     1       7.815   4.374  26.682  0.00  0.00    -0.503 OA
ATOM     26  H   UNL     1       6.865   4.332  26.899  0.00  0.00    +0.292 HD
ENDBRANCH   1  25
BRANCH  17  27
ATOM     27  O   UNL     1       8.126   1.734  26.249  0.00  0.00    -0.503 OA
ATOM     28  H   UNL     1       8.483   2.252  26.993  0.00  0.00    +0.292 HD
ENDBRANCH  17  27
TORSDOF 3
ENDMDL
MODEL 4
REMARK VINA RESULT:      -7.3      3.829      8.262
REMARK  Name = 
REMARK  3 active torsions:
REMARK  status: ('A' for Active; 'I' for Inactive)
REMARK    1  A    between atoms: O_1  and  C_2
REMARK    2  A    between atoms: C_3  and  O_4
REMARK    3  A    between atoms: C_9  and  C_12
REMARK                            x       y       z     vdW  Elec       q    Type
REMARK                         _______ _______ _______ _____ _____    ______ ____
ROOT
ATOM      1  C   UNL     1       7.055   3.764  23.462  0.00  0.00    +0.167 C 
ATOM      2  C   UNL     1       8.369   4.391  23.549  0.00  0.00    +0.031 A 
ATOM      3  C   UNL     1       8.528   5.774  23.363  0.00  0.00    +0.012 A 
ATOM      4  C   UNL     1       9.796   6.356  23.360  0.00  0.00    +0.001 A 
ATOM      5  C   UNL     1      10.922   5.563  23.559  0.00  0.00    +0.001 A 
ATOM      6  C   UNL     1      10.777   4.189  23.756  0.00  0.00    +0.012 A 
ATOM      7  C   UNL     1       9.503   3.597  23.742  0.00  0.00    +0.033 A 
ATOM      8  C   UNL     1       9.383   2.122  23.915  0.00  0.00    +0.197 C 
ATOM      9  O   UNL     1      10.423   1.486  24.048  0.00  0.00    -0.287 OA
ATOM     10  C   UNL     1       7.978   1.510  23.966  0.00  0.00    +0.067 C 
ATOM     11  C   UNL     1       7.782   0.191  24.279  0.00  0.00    -0.055 C 
ATOM     12  C   UNL     1       6.392  -0.394  24.530  0.00  0.00    +0.032 C 
ATOM     13  C   UNL     1       6.320  -1.460  25.626  0.00  0.00    +0.012 C 
ATOM     14  C   UNL     1       7.300  -2.613  25.378  0.00  0.00    +0.020 C 
ATOM     15  C   UNL     1       8.694  -1.961  25.403  0.00  0.00    +0.012 C 
ATOM     16  C   UNL     1       8.868  -0.888  24.320  0.00  0.00    +0.032 C 
ATOM     17  C   UNL     1       6.887   2.449  23.639  0.00  0.00    +0.170 C 
ENDROOT
BRANCH  14  18
ATOM     18  C   UNL     1       6.987  -3.479  24.152  0.00  0.00    -0.044 A 
ATOM     19  C   UNL     1       7.852  -4.509  23.735  0.00  0.00    +0.005 A 
ATOM     20  C   UNL     1       7.566  -5.299  22.615  0.00  0.00    +0.020 A 
ATOM     21  C   UNL     1       6.421  -5.050  21.871  0.00  0.00    +0.041 A 
ATOM     22 CL   UNL     1       6.068  -6.017  20.493  0.00  0.00    -0.084 Cl
ATOM     23  C   UNL     1       5.566  -4.017  22.235  0.00  0.00    +0.020 A 
ATOM     24  C   UNL     1       5.852  -3.234  23.360  0.00  0.00    +0.005 A 
ENDBRANCH  14  18
BRANCH   1  25
ATOM     25  O   UNL     1       6.006   4.579  23.076  0.00  0.00    -0.503 OA
ATOM     26  H   UNL     1       5.989   4.566  22.101  0.00  0.00    +0.292 HD
ENDBRANCH   1  25
BRANCH  17  27
ATOM     27  O   UNL     1       5.639   1.924  23.337  0.00  0.00    -0.503 OA
ATOM     28  H   UNL     1       5.688   0.979  23.571  0.00  0.00    +0.292 HD
ENDBRANCH  17  27
TORSDOF 3
ENDMDL
MODEL 5
REMARK VINA RESULT:      -7.2      2.361      3.298
REMARK  Name = 
REMARK  3 active torsions:
REMARK  status: ('A' for Active; 'I' for Inactive)
REMARK    1  A    between atoms: O_1  and  C_2
REMARK    2  A    between atoms: C_3  and  O_4
REMARK    3  A    between atoms: C_9  and  C_12
REMARK                            x       y       z     vdW  Elec       q    Type
REMARK                         _______ _______ _______ _____ _____    ______ ____
ROOT
ATOM      1  C   UNL     1       4.917  -5.489  22.993  0.00  0.00    +0.167 C 
ATOM      2  C   UNL     1       3.503  -5.481  23.356  0.00  0.00    +0.031 A 
ATOM      3  C   UNL     1       2.613  -6.431  22.830  0.00  0.00    +0.012 A 
ATOM      4  C   UNL     1       1.248  -6.365  23.111  0.00  0.00    +0.001 A 
ATOM      5  C   UNL     1       0.757  -5.357  23.935  0.00  0.00    +0.001 A 
ATOM      6  C   UNL     1       1.634  -4.413  24.473  0.00  0.00    +0.012 A 
ATOM      7  C   UNL     1       3.007  -4.465  24.178  0.00  0.00    +0.033 A 
ATOM      8  C   UNL     1       3.912  -3.420  24.734  0.00  0.00    +0.197 C 
ATOM      9  O   UNL     1       3.400  -2.543  25.420  0.00  0.00    -0.287 OA
ATOM     10  C   UNL     1       5.414  -3.539  24.455  0.00  0.00    +0.067 C 
ATOM     11  C   UNL     1       6.324  -2.712  25.060  0.00  0.00    -0.055 C 
ATOM     12  C   UNL     1       7.832  -2.936  24.954  0.00  0.00    +0.032 C 
ATOM     13  C   UNL     1       8.632  -2.604  26.217  0.00  0.00    +0.012 C 
ATOM     14  C   UNL     1       8.381  -1.172  26.703  0.00  0.00    +0.020 C 
ATOM     15  C   UNL     1       6.878  -1.123  27.033  0.00  0.00    +0.012 C 
ATOM     16  C   UNL     1       5.992  -1.422  25.817  0.00  0.00    +0.032 C 
ATOM     17  C   UNL     1       5.778  -4.593  23.486  0.00  0.00    +0.170 C 
ENDROOT
BRANCH  14  18
ATOM     18  C   UNL     1       8.899  -0.070  25.772  0.00  0.00    -0.044 A 
ATOM     19  C   UNL     1      10.142  -0.180  25.118  0.00  0.00    +0.005 A 
ATOM     20  C   UNL     1      10.615   0.826  24.268  0.00  0.00    +0.020 A 
ATOM     21  C   UNL     1       9.866   1.979  24.082  0.00  0.00    +0.041 A 
ATOM     22 CL   UNL     1      10.446   3.219  23.040  0.00  0.00    -0.084 Cl
ATOM     23  C   UNL     1       8.653   2.135  24.742  0.00  0.00    +0.020 A 
ATOM     24  C   UNL     1       8.180   1.123  25.585  0.00  0.00    +0.005 A 
ENDBRANCH  14  18
BRANCH   1  25
ATOM     25  O   UNL     1       5.300  -6.401  22.026  0.00  0.00    -0.503 OA
ATOM     26  H   UNL     1       5.034  -6.022  21.167  0.00  0.00    +0.292 HD
ENDBRANCH   1  25
BRANCH  17  27
ATOM     27  O   UNL     1       7.047  -4.559  22.928  0.00  0.00    -0.503 OA
ATOM     28  H   UNL     1       7.254  -5.481  22.689  0.00  0.00    +0.292 HD
ENDBRANCH  17  27
TORSDOF 3
ENDMDL
MODEL 6
REMARK VINA RESULT:      -7.2      3.244      8.063
REMARK  Name = 
REMARK  3 active torsions:
REMARK  status: ('A' for Active; 'I' for Inactive)
REMARK    1  A    between atoms: O_1  and  C_2
REMARK    2  A    between atoms: C_3  and  O_4
REMARK    3  A    between atoms: C_9  and  C_12
REMARK                            x       y       z     vdW  Elec       q    Type
REMARK                         _______ _______ _______ _____ _____    ______ ____
ROOT
ATOM      1  C   UNL     1       8.187   0.605  25.509  0.00  0.00    +0.167 C 
ATOM      2  C   UNL     1       8.964   1.108  24.381  0.00  0.00    +0.031 A 
ATOM      3  C   UNL     1       9.563   2.377  24.420  0.00  0.00    +0.012 A 
ATOM      4  C   UNL     1      10.231   2.889  23.307  0.00  0.00    +0.001 A 
ATOM      5  C   UNL     1      10.321   2.131  22.144  0.00  0.00    +0.001 A 
ATOM      6  C   UNL     1       9.739   0.863  22.096  0.00  0.00    +0.012 A 
ATOM      7  C   UNL     1       9.052   0.351  23.210  0.00  0.00    +0.033 A 
ATOM      8  C   UNL     1       8.407  -0.989  23.115  0.00  0.00    +0.197 C 
ATOM      9  O   UNL     1       8.497  -1.581  22.045  0.00  0.00    -0.287 OA
ATOM     10  C   UNL     1       7.722  -1.554  24.365  0.00  0.00    +0.067 C 
ATOM     11  C   UNL     1       7.247  -2.839  24.403  0.00  0.00    -0.055 C 
ATOM     12  C   UNL     1       6.743  -3.487  25.692  0.00  0.00    +0.032 C 
ATOM     13  C   UNL     1       7.066  -4.976  25.844  0.00  0.00    +0.012 C 
ATOM     14  C   UNL     1       6.569  -5.802  24.651  0.00  0.00    +0.020 C 
ATOM     15  C   UNL     1       7.331  -5.244  23.437  0.00  0.00    +0.012 C 
ATOM     16  C   UNL     1       7.053  -3.755  23.192  0.00  0.00    +0.032 C 
ATOM     17  C   UNL     1       7.613  -0.602  25.488  0.00  0.00    +0.170 C 
ENDROOT
BRANCH  14  18
ATOM     18  C   UNL     1       5.045  -5.881  24.507  0.00  0.00    -0.044 A 
ATOM     19  C   UNL     1       4.209  -6.111  25.618  0.00  0.00    +0.005 A 
ATOM     20  C   UNL     1       2.818  -6.184  25.485  0.00  0.00    +0.020 A 
ATOM     21  C   UNL     1       2.237  -6.060  24.231  0.00  0.00    +0.041 A 
ATOM     22 CL   UNL     1       0.527  -6.151  24.065  0.00  0.00    -0.084 Cl
ATOM     23  C   UNL     1       3.037  -5.869  23.110  0.00  0.00    +0.020 A 
ATOM     24  C   UNL     1       4.428  -5.790  23.248  0.00  0.00    +0.005 A 
ENDBRANCH  14  18
BRANCH   1  25
ATOM     25  O   UNL     1       7.980   1.484  26.557  0.00  0.00    -0.503 OA
ATOM     26  H   UNL     1       7.015   1.536  26.688  0.00  0.00    +0.292 HD
ENDBRANCH   1  25
BRANCH  17  27
ATOM     27  O   UNL     1       6.734  -0.903  26.518  0.00  0.00    -0.503 OA
ATOM     28  H   UNL     1       5.955  -1.304  26.091  0.00  0.00    +0.292 HD
ENDBRANCH  17  27
TORSDOF 3
ENDMDL
MODEL 7
REMARK VINA RESULT:      -7.1      2.180      3.764
REMARK  Name = 
REMARK  3 active torsions:
REMARK  status: ('A' for Active; 'I' for Inactive)
REMARK    1  A    between atoms: O_1  and  C_2
REMARK    2  A    between atoms: C_3  and  O_4
REMARK    3  A    between atoms: C_9  and  C_12
REMARK                            x       y       z     vdW  Elec       q    Type
REMARK                         _______ _______ _______ _____ _____    ______ ____
ROOT
ATOM      1  C   UNL     1       3.458  -7.266  24.559  0.00  0.00    +0.167 C 
ATOM      2  C   UNL     1       2.690  -7.254  25.800  0.00  0.00    +0.031 A 
ATOM      3  C   UNL     1       1.561  -8.073  25.963  0.00  0.00    +0.012 A 
ATOM      4  C   UNL     1       0.780  -7.995  27.116  0.00  0.00    +0.001 A 
ATOM      5  C   UNL     1       1.126  -7.106  28.129  0.00  0.00    +0.001 A 
ATOM      6  C   UNL     1       2.253  -6.294  27.984  0.00  0.00    +0.012 A 
ATOM      7  C   UNL     1       3.032  -6.359  26.817  0.00  0.00    +0.033 A 
ATOM      8  C   UNL     1       4.206  -5.451  26.674  0.00  0.00    +0.197 C 
ATOM      9  O   UNL     1       4.426  -4.670  27.592  0.00  0.00    -0.287 OA
ATOM     10  C   UNL     1       5.080  -5.589  25.422  0.00  0.00    +0.067 C 
ATOM     11  C   UNL     1       6.260  -4.904  25.293  0.00  0.00    -0.055 C 
ATOM     12  C   UNL     1       7.242  -5.172  24.153  0.00  0.00    +0.032 C 
ATOM     13  C   UNL     1       8.723  -5.074  24.529  0.00  0.00    +0.012 C 
ATOM     14  C   UNL     1       9.070  -3.725  25.170  0.00  0.00    +0.020 C 
ATOM     15  C   UNL     1       8.221  -3.664  26.452  0.00  0.00    +0.012 C 
ATOM     16  C   UNL     1       6.714  -3.734  26.171  0.00  0.00    +0.032 C 
ATOM     17  C   UNL     1       4.537  -6.494  24.390  0.00  0.00    +0.170 C 
ENDROOT
BRANCH  14  18
ATOM     18  C   UNL     1       8.960  -2.515  24.235  0.00  0.00    -0.044 A 
ATOM     19  C   UNL     1       9.012  -2.657  22.834  0.00  0.00    +0.005 A 
ATOM     20  C   UNL     1       8.912  -1.552  21.981  0.00  0.00    +0.020 A 
ATOM     21  C   UNL     1       8.791  -0.277  22.516  0.00  0.00    +0.041 A 
ATOM     22 CL   UNL     1       8.671   1.083  21.470  0.00  0.00    -0.084 Cl
ATOM     23  C   UNL     1       8.775  -0.100  23.894  0.00  0.00    +0.020 A 
ATOM     24  C   UNL     1       8.868  -1.208  24.744  0.00  0.00    +0.005 A 
ENDBRANCH  14  18
BRANCH   1  25
ATOM     25  O   UNL     1       2.950  -8.032  23.526  0.00  0.00    -0.503 OA
ATOM     26  H   UNL     1       3.412  -8.890  23.565  0.00  0.00    +0.292 HD
ENDBRANCH   1  25
BRANCH  17  27
ATOM     27  O   UNL     1       5.074  -6.428  23.113  0.00  0.00    -0.503 OA
ATOM     28  H   UNL     1       5.309  -7.344  22.878  0.00  0.00    +0.292 HD
ENDBRANCH  17  27
TORSDOF 3
ENDMDL
MODEL 8
REMARK VINA RESULT:      -7.0      3.366      8.155
REMARK  Name = 
REMARK  3 active torsions:
REMARK  status: ('A' for Active; 'I' for Inactive)
REMARK    1  A    between atoms: O_1  and  C_2
REMARK    2  A    between atoms: C_3  and  O_4
REMARK    3  A    between atoms: C_9  and  C_12
REMARK                            x       y       z     vdW  Elec       q    Type
REMARK                         _______ _______ _______ _____ _____    ______ ____
ROOT
ATOM      1  C   UNL     1       9.546  -1.913  23.049  0.00  0.00    +0.167 C 
ATOM      2  C   UNL     1       9.225  -0.542  22.667  0.00  0.00    +0.031 A 
ATOM      3  C   UNL     1      10.207   0.313  22.141  0.00  0.00    +0.012 A 
ATOM      4  C   UNL     1       9.916   1.648  21.858  0.00  0.00    +0.001 A 
ATOM      5  C   UNL     1       8.635   2.142  22.084  0.00  0.00    +0.001 A 
ATOM      6  C   UNL     1       7.648   1.299  22.597  0.00  0.00    +0.012 A 
ATOM      7  C   UNL     1       7.941  -0.042  22.898  0.00  0.00    +0.033 A 
ATOM      8  C   UNL     1       6.877  -0.908  23.482  0.00  0.00    +0.197 C 
ATOM      9  O   UNL     1       5.784  -0.391  23.687  0.00  0.00    -0.287 OA
ATOM     10  C   UNL     1       7.202  -2.383  23.737  0.00  0.00    +0.067 C 
ATOM     11  C   UNL     1       6.235  -3.275  24.121  0.00  0.00    -0.055 C 
ATOM     12  C   UNL     1       6.489  -4.780  24.189  0.00  0.00    +0.032 C 
ATOM     13  C   UNL     1       5.310  -5.662  23.770  0.00  0.00    +0.012 C 
ATOM     14  C   UNL     1       4.036  -5.342  24.562  0.00  0.00    +0.020 C 
ATOM     15  C   UNL     1       3.714  -3.876  24.222  0.00  0.00    +0.012 C 
ATOM     16  C   UNL     1       4.836  -2.910  24.627  0.00  0.00    +0.032 C 
ATOM     17  C   UNL     1       8.623  -2.741  23.550  0.00  0.00    +0.170 C 
ENDROOT
BRANCH  14  18
ATOM     18  C   UNL     1       4.098  -5.685  26.055  0.00  0.00    -0.044 A 
ATOM     19  C   UNL     1       3.394  -4.932  27.016  0.00  0.00    +0.005 A 
ATOM     20  C   UNL     1       3.451  -5.246  28.378  0.00  0.00    +0.020 A 
ATOM     21  C   UNL     1       4.242  -6.301  28.810  0.00  0.00    +0.041 A 
ATOM     22 CL   UNL     1       4.317  -6.687  30.485  0.00  0.00    -0.084 Cl
ATOM     23  C   UNL     1       4.978  -7.040  27.892  0.00  0.00    +0.020 A 
ATOM     24  C   UNL     1       4.913  -6.727  26.528  0.00  0.00    +0.005 A 
ENDBRANCH  14  18
BRANCH   1  25
ATOM     25  O   UNL     1      10.878  -2.280  22.974  0.00  0.00    -0.503 OA
ATOM     26  H   UNL     1      11.396  -1.500  23.249  0.00  0.00    +0.292 HD
ENDBRANCH   1  25
BRANCH  17  27
ATOM     27  O   UNL     1       9.068  -3.948  24.068  0.00  0.00    -0.503 OA
ATOM     28  H   UNL     1       8.434  -4.618  23.756  0.00  0.00    +0.292 HD
ENDBRANCH  17  27
TORSDOF 3
ENDMDL
MODEL 9
REMARK VINA RESULT:      -7.0      2.096      2.737
REMARK  Name = 
REMARK  3 active torsions:
REMARK  status: ('A' for Active; 'I' for Inactive)
REMARK    1  A    between atoms: O_1  and  C_2
REMARK    2  A    between atoms: C_3  and  O_4
REMARK    3  A    between atoms: C_9  and  C_12
REMARK                            x       y       z     vdW  Elec       q    Type
REMARK                         _______ _______ _______ _____ _____    ______ ____
ROOT
ATOM      1  C   UNL     1       5.288  -2.184  25.365  0.00  0.00    +0.167 C 
ATOM      2  C   UNL     1       5.930  -3.393  25.870  0.00  0.00    +0.031 A 
ATOM      3  C   UNL     1       5.181  -4.415  26.476  0.00  0.00    +0.012 A 
ATOM      4  C   UNL     1       5.808  -5.528  27.035  0.00  0.00    +0.001 A 
ATOM      5  C   UNL     1       7.194  -5.642  26.982  0.00  0.00    +0.001 A 
ATOM      6  C   UNL     1       7.950  -4.638  26.374  0.00  0.00    +0.012 A 
ATOM      7  C   UNL     1       7.322  -3.507  25.824  0.00  0.00    +0.033 A 
ATOM      8  C   UNL     1       8.158  -2.433  25.217  0.00  0.00    +0.197 C 
ATOM      9  O   UNL     1       9.374  -2.587  25.242  0.00  0.00    -0.287 OA
ATOM     10  C   UNL     1       7.447  -1.243  24.564  0.00  0.00    +0.067 C 
ATOM     11  C   UNL     1       8.137  -0.300  23.849  0.00  0.00    -0.055 C 
ATOM     12  C   UNL     1       7.435   0.780  23.025  0.00  0.00    +0.032 C 
ATOM     13  C   UNL     1       8.123   1.149  21.709  0.00  0.00    +0.012 C 
ATOM     14  C   UNL     1       9.586   1.562  21.916  0.00  0.00    +0.020 C 
ATOM     15  C   UNL     1      10.270   0.318  22.509  0.00  0.00    +0.012 C 
ATOM     16  C   UNL     1       9.657  -0.117  23.847  0.00  0.00    +0.032 C 
ATOM     17  C   UNL     1       5.987  -1.203  24.785  0.00  0.00    +0.170 C 
ENDROOT
BRANCH  14  18
ATOM     18  C   UNL     1       9.787   2.871  22.690  0.00  0.00    -0.044 A 
ATOM     19  C   UNL     1       8.702   3.703  23.029  0.00  0.00    +0.005 A 
ATOM     20  C   UNL     1       8.886   4.897  23.735  0.00  0.00    +0.020 A 
ATOM     21  C   UNL     1      10.167   5.299  24.087  0.00  0.00    +0.041 A 
ATOM     22 CL   UNL     1      10.397   6.767  24.952  0.00  0.00    -0.084 Cl
ATOM     23  C   UNL     1      11.262   4.519  23.735  0.00  0.00    +0.020 A 
ATOM     24  C   UNL     1      11.073   3.321  23.035  0.00  0.00    +0.005 A 
ENDBRANCH  14  18
BRANCH   1  25
ATOM     25  O   UNL     1       3.935  -2.052  25.618  0.00  0.00    -0.503 OA
ATOM     26  H   UNL     1       3.838  -1.289  26.217  0.00  0.00    +0.292 HD
ENDBRANCH   1  25
BRANCH  17  27
ATOM     27  O   UNL     1       5.318  -0.017  24.524  0.00  0.00    -0.503 OA
ATOM     28  H   UNL     1       5.994   0.683  24.576  0.00  0.00    +0.292 HD
ENDBRANCH  17  27
TORSDOF 3
ENDMDL
