MODEL 1
REMARK VINA RESULT:      -6.5      0.000      0.000
REMARK  Name = 
REMARK  7 active torsions:
REMARK  status: ('A' for Active; 'I' for Inactive)
REMARK    1  A    between atoms: C_1  and  C_2
REMARK    2  A    between atoms: C_3  and  C_4
REMARK    3  A    between atoms: C_4  and  C_5
REMARK    4  A    between atoms: C_5  and  O_6
REMARK    5  A    between atoms: C_16  and  C_17
REMARK    6  A    between atoms: C_20  and  S_23
REMARK    7  A    between atoms: S_23  and  C_24
REMARK                            x       y       z     vdW  Elec       q    Type
REMARK                         _______ _______ _______ _____ _____    ______ ____
ROOT
ATOM      1  C   UNL     1      10.478  -1.473  22.377  0.00  0.00    +0.044 C 
ATOM      2  C   UNL     1       9.478  -0.991  23.377  0.00  0.00    -0.038 C 
ATOM      3  C   UNL     1       8.347  -1.826  23.826  0.00  0.00    -0.014 C 
ATOM      4  C   UNL     1       7.979  -2.982  23.242  0.00  0.00    +0.016 C 
ATOM      5  C   UNL     1       7.700  -1.099  24.928  0.00  0.00    -0.010 A 
ATOM      6  C   UNL     1       8.327   0.167  24.971  0.00  0.00    -0.011 A 
ATOM      7  C   UNL     1       7.889   1.142  25.853  0.00  0.00    +0.047 A 
ATOM      8  C   UNL     1       6.857   0.816  26.729  0.00  0.00    +0.124 A 
ATOM      9  C   UNL     1       6.292  -0.460  26.752  0.00  0.00    +0.039 A 
ATOM     10  F   UNL     1       6.406   1.749  27.576  0.00  0.00    -0.205 F 
ATOM     11  C   UNL     1       6.714  -1.436  25.843  0.00  0.00    +0.012 A 
ATOM     12  C   UNL     1       9.460   0.196  24.029  0.00  0.00    -0.025 C 
ENDROOT
BRANCH   4  13
ATOM     13  C   UNL     1       6.818  -3.831  23.535  0.00  0.00    -0.024 A 
ATOM     14  C   UNL     1       5.586  -3.575  22.929  0.00  0.00    +0.009 A 
ATOM     15  C   UNL     1       4.462  -4.341  23.265  0.00  0.00    +0.018 A 
ATOM     16  C   UNL     1       4.547  -5.368  24.213  0.00  0.00    +0.039 A 
ATOM     17  C   UNL     1       5.785  -5.630  24.811  0.00  0.00    +0.018 A 
ATOM     18  C   UNL     1       6.912  -4.863  24.477  0.00  0.00    +0.009 A 
BRANCH  16  19
ATOM     19  S   UNL     1       3.100  -6.409  24.545  0.00  0.00    +0.051 S 
ATOM     20  O   UNL     1       3.599  -7.824  24.512  0.00  0.00    -0.252 OA
ATOM     21  C   UNL     1       2.154  -6.138  23.029  0.00  0.00    +0.127 C 
ENDBRANCH  16  19
ENDBRANCH   4  13
BRANCH  12  22
ATOM     22  C   UNL     1      10.430   1.336  23.984  0.00  0.00    +0.156 C 
BRANCH  22  23
ATOM     23  C   UNL     1      10.107   2.496  23.049  0.00  0.00    +0.309 C 
ATOM     24  O   UNL     1       9.844   3.618  23.466  0.00  0.00    -0.251 OA
BRANCH  23  25
ATOM     25  O   UNL     1      10.168   2.237  21.726  0.00  0.00    -0.480 OA
ATOM     26  H   UNL     1       9.453   2.641  21.201  0.00  0.00    +0.295 HD
ENDBRANCH  23  25
ENDBRANCH  22  23
ENDBRANCH  12  22
TORSDOF 5
ENDMDL
MODEL 2
REMARK VINA RESULT:      -6.5      3.371      8.148
REMARK  Name = 
REMARK  7 active torsions:
REMARK  status: ('A' for Active; 'I' for Inactive)
REMARK    1  A    between atoms: C_1  and  C_2
REMARK    2  A    between atoms: C_3  and  C_4
REMARK    3  A    between atoms: C_4  and  C_5
REMARK    4  A    between atoms: C_5  and  O_6
REMARK    5  A    between atoms: C_16  and  C_17
REMARK    6  A    between atoms: C_20  and  S_23
REMARK    7  A    between atoms: S_23  and  C_24
REMARK                            x       y       z     vdW  Elec       q    Type
REMARK                         _______ _______ _______ _____ _____    ______ ____
ROOT
ATOM      1  C   UNL     1       5.647  -5.036  27.768  0.00  0.00    +0.044 C 
ATOM      2  C   UNL     1       5.807  -4.989  26.283  0.00  0.00    -0.038 C 
ATOM      3  C   UNL     1       6.584  -3.933  25.606  0.00  0.00    -0.014 C 
ATOM      4  C   UNL     1       7.029  -2.815  26.210  0.00  0.00    +0.016 C 
ATOM      5  C   UNL     1       6.669  -4.318  24.189  0.00  0.00    -0.010 A 
ATOM      6  C   UNL     1       5.823  -5.441  24.046  0.00  0.00    -0.011 A 
ATOM      7  C   UNL     1       5.606  -6.007  22.800  0.00  0.00    +0.047 A 
ATOM      8  C   UNL     1       6.288  -5.471  21.711  0.00  0.00    +0.124 A 
ATOM      9  C   UNL     1       7.193  -4.418  21.859  0.00  0.00    +0.039 A 
ATOM     10  F   UNL     1       6.078  -5.991  20.495  0.00  0.00    -0.205 F 
ATOM     11  C   UNL     1       7.391  -3.829  23.111  0.00  0.00    +0.012 A 
ATOM     12  C   UNL     1       5.333  -5.869  25.368  0.00  0.00    -0.025 C 
ENDROOT
BRANCH   4  13
ATOM     13  C   UNL     1       7.713  -1.660  25.615  0.00  0.00    -0.024 A 
ATOM     14  C   UNL     1       6.974  -0.596  25.092  0.00  0.00    +0.009 A 
ATOM     15  C   UNL     1       7.625   0.471  24.460  0.00  0.00    +0.018 A 
ATOM     16  C   UNL     1       9.020   0.492  24.334  0.00  0.00    +0.039 A 
ATOM     17  C   UNL     1       9.759  -0.569  24.868  0.00  0.00    +0.018 A 
ATOM     18  C   UNL     1       9.108  -1.640  25.500  0.00  0.00    +0.009 A 
BRANCH  16  19
ATOM     19  S   UNL     1       9.837   1.938  23.607  0.00  0.00    +0.051 S 
ATOM     20  O   UNL     1       8.876   3.079  23.777  0.00  0.00    -0.252 OA
ATOM     21  C   UNL     1       9.818   1.476  21.860  0.00  0.00    +0.127 C 
ENDBRANCH  16  19
ENDBRANCH   4  13
BRANCH  12  22
ATOM     22  C   UNL     1       4.568  -7.142  25.561  0.00  0.00    +0.156 C 
BRANCH  22  23
ATOM     23  C   UNL     1       3.184  -7.231  24.928  0.00  0.00    +0.309 C 
ATOM     24  O   UNL     1       2.317  -6.388  25.130  0.00  0.00    -0.251 OA
BRANCH  23  25
ATOM     25  O   UNL     1       2.971  -8.267  24.090  0.00  0.00    -0.480 OA
ATOM     26  H   UNL     1       2.116  -8.241  23.623  0.00  0.00    +0.295 HD
ENDBRANCH  23  25
ENDBRANCH  22  23
ENDBRANCH  12  22
TORSDOF 5
ENDMDL
MODEL 3
REMARK VINA RESULT:      -6.3      3.508      5.243
REMARK  Name = 
REMARK  7 active torsions:
REMARK  status: ('A' for Active; 'I' for Inactive)
REMARK    1  A    between atoms: C_1  and  C_2
REMARK    2  A    between atoms: C_3  and  C_4
REMARK    3  A    between atoms: C_4  and  C_5
REMARK    4  A    between atoms: C_5  and  O_6
REMARK    5  A    between atoms: C_16  and  C_17
REMARK    6  A    between atoms: C_20  and  S_23
REMARK    7  A    between atoms: S_23  and  C_24
REMARK                            x       y       z     vdW  Elec       q    Type
REMARK                         _______ _______ _______ _____ _____    ______ ____
ROOT
ATOM      1  C   UNL     1       4.890   3.468  24.299  0.00  0.00    +0.044 C 
ATOM      2  C   UNL     1       6.377   3.347  24.215  0.00  0.00    -0.038 C 
ATOM      3  C   UNL     1       7.069   2.046  24.300  0.00  0.00    -0.014 C 
ATOM      4  C   UNL     1       6.476   0.895  24.672  0.00  0.00    +0.016 C 
ATOM      5  C   UNL     1       8.484   2.303  23.996  0.00  0.00    -0.010 A 
ATOM      6  C   UNL     1       8.611   3.709  23.925  0.00  0.00    -0.011 A 
ATOM      7  C   UNL     1       9.852   4.297  23.737  0.00  0.00    +0.047 A 
ATOM      8  C   UNL     1      10.952   3.460  23.562  0.00  0.00    +0.124 A 
ATOM      9  C   UNL     1      10.820   2.071  23.543  0.00  0.00    +0.039 A 
ATOM     10  F   UNL     1      12.162   4.008  23.397  0.00  0.00    -0.205 F 
ATOM     11  C   UNL     1       9.574   1.477  23.762  0.00  0.00    +0.012 A 
ATOM     12  C   UNL     1       7.281   4.336  24.019  0.00  0.00    -0.025 C 
ENDROOT
BRANCH   4  13
ATOM     13  C   UNL     1       7.085  -0.422  24.892  0.00  0.00    -0.024 A 
ATOM     14  C   UNL     1       7.641  -0.744  26.132  0.00  0.00    +0.009 A 
ATOM     15  C   UNL     1       8.286  -1.973  26.318  0.00  0.00    +0.018 A 
ATOM     16  C   UNL     1       8.391  -2.897  25.272  0.00  0.00    +0.039 A 
ATOM     17  C   UNL     1       7.824  -2.578  24.033  0.00  0.00    +0.018 A 
ATOM     18  C   UNL     1       7.179  -1.346  23.844  0.00  0.00    +0.009 A 
BRANCH  16  19
ATOM     19  S   UNL     1       9.136  -4.522  25.577  0.00  0.00    +0.051 S 
ATOM     20  O   UNL     1       8.998  -5.283  24.290  0.00  0.00    -0.252 OA
ATOM     21  C   UNL     1       7.938  -5.213  26.741  0.00  0.00    +0.127 C 
ENDBRANCH  16  19
ENDBRANCH   4  13
BRANCH  12  22
ATOM     22  C   UNL     1       7.073   5.801  23.788  0.00  0.00    +0.156 C 
BRANCH  22  23
ATOM     23  C   UNL     1       6.670   6.240  22.386  0.00  0.00    +0.309 C 
ATOM     24  O   UNL     1       5.596   6.785  22.154  0.00  0.00    -0.251 OA
BRANCH  23  25
ATOM     25  O   UNL     1       7.578   6.039  21.408  0.00  0.00    -0.480 OA
ATOM     26  H   UNL     1       8.451   5.739  21.721  0.00  0.00    +0.295 HD
ENDBRANCH  23  25
ENDBRANCH  22  23
ENDBRANCH  12  22
TORSDOF 5
ENDMDL
MODEL 4
REMARK VINA RESULT:      -6.3      1.350      1.441
REMARK  Name = 
REMARK  7 active torsions:
REMARK  status: ('A' for Active; 'I' for Inactive)
REMARK    1  A    between atoms: C_1  and  C_2
REMARK    2  A    between atoms: C_3  and  C_4
REMARK    3  A    between atoms: C_4  and  C_5
REMARK    4  A    between atoms: C_5  and  O_6
REMARK    5  A    between atoms: C_16  and  C_17
REMARK    6  A    between atoms: C_20  and  S_23
REMARK    7  A    between atoms: S_23  and  C_24
REMARK                            x       y       z     vdW  Elec       q    Type
REMARK                         _______ _______ _______ _____ _____    ______ ____
ROOT
ATOM      1  C   UNL     1       9.803  -0.797  21.490  0.00  0.00    +0.044 C 
ATOM      2  C   UNL     1       8.685  -0.304  22.350  0.00  0.00    -0.038 C 
ATOM      3  C   UNL     1       7.708  -1.217  22.975  0.00  0.00    -0.014 C 
ATOM      4  C   UNL     1       7.588  -2.523  22.669  0.00  0.00    +0.016 C 
ATOM      5  C   UNL     1       6.887  -0.398  23.879  0.00  0.00    -0.010 A 
ATOM      6  C   UNL     1       7.267   0.941  23.633  0.00  0.00    -0.011 A 
ATOM      7  C   UNL     1       6.615   1.987  24.267  0.00  0.00    +0.047 A 
ATOM      8  C   UNL     1       5.621   1.674  25.191  0.00  0.00    +0.124 A 
ATOM      9  C   UNL     1       5.302   0.352  25.503  0.00  0.00    +0.039 A 
ATOM     10  F   UNL     1       4.967   2.670  25.801  0.00  0.00    -0.205 F 
ATOM     11  C   UNL     1       5.939  -0.703  24.844  0.00  0.00    +0.012 A 
ATOM     12  C   UNL     1       8.417   0.973  22.713  0.00  0.00    -0.025 C 
ENDROOT
BRANCH   4  13
ATOM     13  C   UNL     1       6.592  -3.490  23.145  0.00  0.00    -0.024 A 
ATOM     14  C   UNL     1       5.317  -3.528  22.576  0.00  0.00    +0.009 A 
ATOM     15  C   UNL     1       4.345  -4.401  23.080  0.00  0.00    +0.018 A 
ATOM     16  C   UNL     1       4.626  -5.245  24.161  0.00  0.00    +0.039 A 
ATOM     17  C   UNL     1       5.907  -5.214  24.724  0.00  0.00    +0.018 A 
ATOM     18  C   UNL     1       6.882  -4.339  24.221  0.00  0.00    +0.009 A 
BRANCH  16  19
ATOM     19  S   UNL     1       3.380  -6.439  24.719  0.00  0.00    +0.051 S 
ATOM     20  O   UNL     1       4.025  -7.789  24.598  0.00  0.00    -0.252 OA
ATOM     21  C   UNL     1       2.175  -6.297  23.380  0.00  0.00    +0.127 C 
ENDBRANCH  16  19
ENDBRANCH   4  13
BRANCH  12  22
ATOM     22  C   UNL     1       9.161   2.238  22.411  0.00  0.00    +0.156 C 
BRANCH  22  23
ATOM     23  C   UNL     1      10.388   2.549  23.261  0.00  0.00    +0.309 C 
ATOM     24  O   UNL     1      10.793   1.785  24.129  0.00  0.00    -0.251 OA
BRANCH  23  25
ATOM     25  O   UNL     1      11.040   3.696  22.978  0.00  0.00    -0.480 OA
ATOM     26  H   UNL     1      11.965   3.724  23.287  0.00  0.00    +0.295 HD
ENDBRANCH  23  25
ENDBRANCH  22  23
ENDBRANCH  12  22
TORSDOF 5
ENDMDL
MODEL 5
REMARK VINA RESULT:      -6.2      2.969      7.627
REMARK  Name = 
REMARK  7 active torsions:
REMARK  status: ('A' for Active; 'I' for Inactive)
REMARK    1  A    between atoms: C_1  and  C_2
REMARK    2  A    between atoms: C_3  and  C_4
REMARK    3  A    between atoms: C_4  and  C_5
REMARK    4  A    between atoms: C_5  and  O_6
REMARK    5  A    between atoms: C_16  and  C_17
REMARK    6  A    between atoms: C_20  and  S_23
REMARK    7  A    between atoms: S_23  and  C_24
REMARK                            x       y       z     vdW  Elec       q    Type
REMARK                         _______ _______ _______ _____ _____    ______ ____
ROOT
ATOM      1  C   UNL     1       6.082  -6.157  22.269  0.00  0.00    +0.044 C 
ATOM      2  C   UNL     1       5.912  -5.466  23.582  0.00  0.00    -0.038 C 
ATOM      3  C   UNL     1       6.470  -4.125  23.847  0.00  0.00    -0.014 C 
ATOM      4  C   UNL     1       7.349  -3.498  23.043  0.00  0.00    +0.016 C 
ATOM      5  C   UNL     1       5.949  -3.705  25.156  0.00  0.00    -0.010 A 
ATOM      6  C   UNL     1       5.279  -4.833  25.682  0.00  0.00    -0.011 A 
ATOM      7  C   UNL     1       4.739  -4.803  26.958  0.00  0.00    +0.047 A 
ATOM      8  C   UNL     1       4.828  -3.614  27.676  0.00  0.00    +0.124 A 
ATOM      9  C   UNL     1       5.410  -2.469  27.130  0.00  0.00    +0.039 A 
ATOM     10  F   UNL     1       4.329  -3.568  28.918  0.00  0.00    -0.205 F 
ATOM     11  C   UNL     1       5.980  -2.507  25.854  0.00  0.00    +0.012 A 
ATOM     12  C   UNL     1       5.229  -5.902  24.668  0.00  0.00    -0.025 C 
ENDROOT
BRANCH   4  13
ATOM     13  C   UNL     1       8.044  -2.223  23.258  0.00  0.00    -0.024 A 
ATOM     14  C   UNL     1       9.273  -2.193  23.922  0.00  0.00    +0.009 A 
ATOM     15  C   UNL     1       9.899  -0.970  24.192  0.00  0.00    +0.018 A 
ATOM     16  C   UNL     1       9.309   0.241  23.810  0.00  0.00    +0.039 A 
ATOM     17  C   UNL     1       8.083   0.209  23.135  0.00  0.00    +0.018 A 
ATOM     18  C   UNL     1       7.453  -1.016  22.866  0.00  0.00    +0.009 A 
BRANCH  16  19
ATOM     19  S   UNL     1      10.197   1.800  24.077  0.00  0.00    +0.051 S 
ATOM     20  O   UNL     1       9.204   2.733  24.706  0.00  0.00    -0.252 OA
ATOM     21  C   UNL     1      10.430   2.336  22.367  0.00  0.00    +0.127 C 
ENDBRANCH  16  19
ENDBRANCH   4  13
BRANCH  12  22
ATOM     22  C   UNL     1       4.423  -7.149  24.864  0.00  0.00    +0.156 C 
BRANCH  22  23
ATOM     23  C   UNL     1       3.011  -7.168  24.292  0.00  0.00    +0.309 C 
ATOM     24  O   UNL     1       2.258  -6.204  24.375  0.00  0.00    -0.251 OA
BRANCH  23  25
ATOM     25  O   UNL     1       2.639  -8.291  23.643  0.00  0.00    -0.480 OA
ATOM     26  H   UNL     1       1.678  -8.380  23.503  0.00  0.00    +0.295 HD
ENDBRANCH  23  25
ENDBRANCH  22  23
ENDBRANCH  12  22
TORSDOF 5
ENDMDL
MODEL 6
REMARK VINA RESULT:      -6.0      2.703      4.170
REMARK  Name = 
REMARK  7 active torsions:
REMARK  status: ('A' for Active; 'I' for Inactive)
REMARK    1  A    between atoms: C_1  and  C_2
REMARK    2  A    between atoms: C_3  and  C_4
REMARK    3  A    between atoms: C_4  and  C_5
REMARK    4  A    between atoms: C_5  and  O_6
REMARK    5  A    between atoms: C_16  and  C_17
REMARK    6  A    between atoms: C_20  and  S_23
REMARK    7  A    between atoms: S_23  and  C_24
REMARK                            x       y       z     vdW  Elec       q    Type
REMARK                         _______ _______ _______ _____ _____    ______ ____
ROOT
ATOM      1  C   UNL     1      11.320   3.459  23.361  0.00  0.00    +0.044 C 
ATOM      2  C   UNL     1       9.884   3.228  23.698  0.00  0.00    -0.038 C 
ATOM      3  C   UNL     1       9.311   1.873  23.826  0.00  0.00    -0.014 C 
ATOM      4  C   UNL     1       9.942   0.745  23.447  0.00  0.00    +0.016 C 
ATOM      5  C   UNL     1       7.944   2.043  24.339  0.00  0.00    -0.010 A 
ATOM      6  C   UNL     1       7.699   3.435  24.325  0.00  0.00    -0.011 A 
ATOM      7  C   UNL     1       6.454   3.936  24.671  0.00  0.00    +0.047 A 
ATOM      8  C   UNL     1       5.479   3.034  25.087  0.00  0.00    +0.124 A 
ATOM      9  C   UNL     1       5.740   1.667  25.187  0.00  0.00    +0.039 A 
ATOM     10  F   UNL     1       4.264   3.495  25.408  0.00  0.00    -0.205 F 
ATOM     11  C   UNL     1       6.986   1.157  24.811  0.00  0.00    +0.012 A 
ATOM     12  C   UNL     1       8.933   4.155  23.966  0.00  0.00    -0.025 C 
ENDROOT
BRANCH   4  13
ATOM     13  C   UNL     1       9.431  -0.631  23.430  0.00  0.00    -0.024 A 
ATOM     14  C   UNL     1       8.692  -1.095  22.339  0.00  0.00    +0.009 A 
ATOM     15  C   UNL     1       8.144  -2.384  22.356  0.00  0.00    +0.018 A 
ATOM     16  C   UNL     1       8.318  -3.227  23.460  0.00  0.00    +0.039 A 
ATOM     17  C   UNL     1       9.067  -2.764  24.548  0.00  0.00    +0.018 A 
ATOM     18  C   UNL     1       9.616  -1.472  24.534  0.00  0.00    +0.009 A 
BRANCH  16  19
ATOM     19  S   UNL     1       7.688  -4.926  23.404  0.00  0.00    +0.051 S 
ATOM     20  O   UNL     1       7.246  -5.152  21.987  0.00  0.00    -0.252 OA
ATOM     21  C   UNL     1       6.197  -4.751  24.410  0.00  0.00    +0.127 C 
ENDBRANCH  16  19
ENDBRANCH   4  13
BRANCH  12  22
ATOM     22  C   UNL     1       9.038   5.647  24.049  0.00  0.00    +0.156 C 
BRANCH  22  23
ATOM     23  C   UNL     1       9.728   6.234  25.275  0.00  0.00    +0.309 C 
ATOM     24  O   UNL     1      10.769   6.877  25.194  0.00  0.00    -0.251 OA
BRANCH  23  25
ATOM     25  O   UNL     1       9.110   6.049  26.460  0.00  0.00    -0.480 OA
ATOM     26  H   UNL     1       9.578   5.451  27.072  0.00  0.00    +0.295 HD
ENDBRANCH  23  25
ENDBRANCH  22  23
ENDBRANCH  12  22
TORSDOF 5
ENDMDL
MODEL 7
REMARK VINA RESULT:      -6.0      3.309      7.500
REMARK  Name = 
REMARK  7 active torsions:
REMARK  status: ('A' for Active; 'I' for Inactive)
REMARK    1  A    between atoms: C_1  and  C_2
REMARK    2  A    between atoms: C_3  and  C_4
REMARK    3  A    between atoms: C_4  and  C_5
REMARK    4  A    between atoms: C_5  and  O_6
REMARK    5  A    between atoms: C_16  and  C_17
REMARK    6  A    between atoms: C_20  and  S_23
REMARK    7  A    between atoms: S_23  and  C_24
REMARK                            x       y       z     vdW  Elec       q    Type
REMARK                         _______ _______ _______ _____ _____    ______ ____
ROOT
ATOM      1  C   UNL     1       9.194  -5.392  25.165  0.00  0.00    +0.044 C 
ATOM      2  C   UNL     1       8.198  -4.330  25.498  0.00  0.00    -0.038 C 
ATOM      3  C   UNL     1       8.343  -2.937  25.030  0.00  0.00    -0.014 C 
ATOM      4  C   UNL     1       9.459  -2.441  24.464  0.00  0.00    +0.016 C 
ATOM      5  C   UNL     1       7.100  -2.241  25.392  0.00  0.00    -0.010 A 
ATOM      6  C   UNL     1       6.368  -3.153  26.187  0.00  0.00    -0.011 A 
ATOM      7  C   UNL     1       5.169  -2.776  26.772  0.00  0.00    +0.047 A 
ATOM      8  C   UNL     1       4.685  -1.498  26.503  0.00  0.00    +0.124 A 
ATOM      9  C   UNL     1       5.358  -0.624  25.648  0.00  0.00    +0.039 A 
ATOM     10  F   UNL     1       3.538  -1.107  27.073  0.00  0.00    -0.205 F 
ATOM     11  C   UNL     1       6.581  -0.993  25.081  0.00  0.00    +0.012 A 
ATOM     12  C   UNL     1       7.048  -4.460  26.203  0.00  0.00    -0.025 C 
ENDROOT
BRANCH   4  13
ATOM     13  C   UNL     1       9.749  -1.059  24.062  0.00  0.00    -0.024 A 
ATOM     14  C   UNL     1      10.071  -0.098  25.024  0.00  0.00    +0.009 A 
ATOM     15  C   UNL     1      10.275   1.235  24.647  0.00  0.00    +0.018 A 
ATOM     16  C   UNL     1      10.157   1.633  23.310  0.00  0.00    +0.039 A 
ATOM     17  C   UNL     1       9.845   0.667  22.346  0.00  0.00    +0.018 A 
ATOM     18  C   UNL     1       9.638  -0.669  22.722  0.00  0.00    +0.009 A 
BRANCH  16  19
ATOM     19  S   UNL     1      10.534   3.344  22.842  0.00  0.00    +0.051 S 
ATOM     20  O   UNL     1      11.861   3.656  23.472  0.00  0.00    -0.252 OA
ATOM     21  C   UNL     1       9.270   4.223  23.787  0.00  0.00    +0.127 C 
ENDBRANCH  16  19
ENDBRANCH   4  13
BRANCH  12  22
ATOM     22  C   UNL     1       6.420  -5.678  26.806  0.00  0.00    +0.156 C 
BRANCH  22  23
ATOM     23  C   UNL     1       5.330  -6.377  26.002  0.00  0.00    +0.309 C 
ATOM     24  O   UNL     1       5.200  -6.210  24.794  0.00  0.00    -0.251 OA
BRANCH  23  25
ATOM     25  O   UNL     1       4.535  -7.231  26.680  0.00  0.00    -0.480 OA
ATOM     26  H   UNL     1       4.103  -6.846  27.464  0.00  0.00    +0.295 HD
ENDBRANCH  23  25
ENDBRANCH  22  23
ENDBRANCH  12  22
TORSDOF 5
ENDMDL
MODEL 8
REMARK VINA RESULT:      -6.0      4.197      7.432
REMARK  Name = 
REMARK  7 active torsions:
REMARK  status: ('A' for Active; 'I' for Inactive)
REMARK    1  A    between atoms: C_1  and  C_2
REMARK    2  A    between atoms: C_3  and  C_4
REMARK    3  A    between atoms: C_4  and  C_5
REMARK    4  A    between atoms: C_5  and  O_6
REMARK    5  A    between atoms: C_16  and  C_17
REMARK    6  A    between atoms: C_20  and  S_23
REMARK    7  A    between atoms: S_23  and  C_24
REMARK                            x       y       z     vdW  Elec       q    Type
REMARK                         _______ _______ _______ _____ _____    ______ ____
ROOT
ATOM      1  C   UNL     1      10.474  -1.867  22.648  0.00  0.00    +0.044 C 
ATOM      2  C   UNL     1       9.251  -1.618  23.468  0.00  0.00    -0.038 C 
ATOM      3  C   UNL     1       8.643  -0.279  23.591  0.00  0.00    -0.014 C 
ATOM      4  C   UNL     1       9.229   0.861  23.175  0.00  0.00    +0.016 C 
ATOM      5  C   UNL     1       7.374  -0.458  24.312  0.00  0.00    -0.010 A 
ATOM      6  C   UNL     1       7.362  -1.807  24.734  0.00  0.00    -0.011 A 
ATOM      7  C   UNL     1       6.332  -2.289  25.526  0.00  0.00    +0.047 A 
ATOM      8  C   UNL     1       5.288  -1.423  25.840  0.00  0.00    +0.124 A 
ATOM      9  C   UNL     1       5.250  -0.115  25.354  0.00  0.00    +0.039 A 
ATOM     10  F   UNL     1       4.292  -1.863  26.619  0.00  0.00    -0.205 F 
ATOM     11  C   UNL     1       6.303   0.381  24.579  0.00  0.00    +0.012 A 
ATOM     12  C   UNL     1       8.516  -2.521  24.160  0.00  0.00    -0.025 C 
ENDROOT
BRANCH   4  13
ATOM     13  C   UNL     1       8.768   2.244  23.341  0.00  0.00    -0.024 A 
ATOM     14  C   UNL     1       9.033   2.939  24.524  0.00  0.00    +0.009 A 
ATOM     15  C   UNL     1       8.530   4.233  24.709  0.00  0.00    +0.018 A 
ATOM     16  C   UNL     1       7.751   4.851  23.724  0.00  0.00    +0.039 A 
ATOM     17  C   UNL     1       7.494   4.158  22.536  0.00  0.00    +0.018 A 
ATOM     18  C   UNL     1       7.996   2.861  22.349  0.00  0.00    +0.009 A 
BRANCH  16  19
ATOM     19  S   UNL     1       7.207   6.567  23.951  0.00  0.00    +0.051 S 
ATOM     20  O   UNL     1       5.882   6.485  24.653  0.00  0.00    -0.252 OA
ATOM     21  C   UNL     1       6.878   7.030  22.236  0.00  0.00    +0.127 C 
ENDBRANCH  16  19
ENDBRANCH   4  13
BRANCH  12  22
ATOM     22  C   UNL     1       8.672  -4.006  24.275  0.00  0.00    +0.156 C 
BRANCH  22  23
ATOM     23  C   UNL     1       9.372  -4.544  25.517  0.00  0.00    +0.309 C 
ATOM     24  O   UNL     1       9.098  -4.150  26.645  0.00  0.00    -0.251 OA
BRANCH  23  25
ATOM     25  O   UNL     1      10.288  -5.516  25.319  0.00  0.00    -0.480 OA
ATOM     26  H   UNL     1       9.990  -6.240  24.739  0.00  0.00    +0.295 HD
ENDBRANCH  23  25
ENDBRANCH  22  23
ENDBRANCH  12  22
TORSDOF 5
ENDMDL
MODEL 9
REMARK VINA RESULT:      -5.9      3.770      7.447
REMARK  Name = 
REMARK  7 active torsions:
REMARK  status: ('A' for Active; 'I' for Inactive)
REMARK    1  A    between atoms: C_1  and  C_2
REMARK    2  A    between atoms: C_3  and  C_4
REMARK    3  A    between atoms: C_4  and  C_5
REMARK    4  A    between atoms: C_5  and  O_6
REMARK    5  A    between atoms: C_16  and  C_17
REMARK    6  A    between atoms: C_20  and  S_23
REMARK    7  A    between atoms: S_23  and  C_24
REMARK                            x       y       z     vdW  Elec       q    Type
REMARK                         _______ _______ _______ _____ _____    ______ ____
ROOT
ATOM      1  C   UNL     1       8.284  -3.087  22.316  0.00  0.00    +0.044 C 
ATOM      2  C   UNL     1       7.677  -2.440  23.518  0.00  0.00    -0.038 C 
ATOM      3  C   UNL     1       7.482  -0.980  23.616  0.00  0.00    -0.014 C 
ATOM      4  C   UNL     1       8.014  -0.086  22.761  0.00  0.00    +0.016 C 
ATOM      5  C   UNL     1       6.704  -0.742  24.840  0.00  0.00    -0.010 A 
ATOM      6  C   UNL     1       6.624  -1.993  25.493  0.00  0.00    -0.011 A 
ATOM      7  C   UNL     1       6.022  -2.103  26.737  0.00  0.00    +0.047 A 
ATOM      8  C   UNL     1       5.452  -0.959  27.290  0.00  0.00    +0.124 A 
ATOM      9  C   UNL     1       5.449   0.260  26.611  0.00  0.00    +0.039 A 
ATOM     10  F   UNL     1       4.882  -1.040  28.499  0.00  0.00    -0.205 F 
ATOM     11  C   UNL     1       6.081   0.379  25.370  0.00  0.00    +0.012 A 
ATOM     12  C   UNL     1       7.196  -3.043  24.632  0.00  0.00    -0.025 C 
ENDROOT
BRANCH   4  13
ATOM     13  C   UNL     1       7.975   1.380  22.822  0.00  0.00    -0.024 A 
ATOM     14  C   UNL     1       8.872   2.075  23.637  0.00  0.00    +0.009 A 
ATOM     15  C   UNL     1       8.786   3.469  23.751  0.00  0.00    +0.018 A 
ATOM     16  C   UNL     1       7.803   4.189  23.061  0.00  0.00    +0.039 A 
ATOM     17  C   UNL     1       6.913   3.492  22.237  0.00  0.00    +0.018 A 
ATOM     18  C   UNL     1       6.996   2.095  22.123  0.00  0.00    +0.009 A 
BRANCH  16  19
ATOM     19  S   UNL     1       7.788   6.000  23.146  0.00  0.00    +0.051 S 
ATOM     20  O   UNL     1       7.500   6.472  21.750  0.00  0.00    -0.252 OA
ATOM     21  C   UNL     1       9.536   6.322  23.471  0.00  0.00    +0.127 C 
ENDBRANCH  16  19
ENDBRANCH   4  13
BRANCH  12  22
ATOM     22  C   UNL     1       7.087  -4.498  24.971  0.00  0.00    +0.156 C 
BRANCH  22  23
ATOM     23  C   UNL     1       8.351  -5.204  25.447  0.00  0.00    +0.309 C 
ATOM     24  O   UNL     1       9.363  -5.269  24.758  0.00  0.00    -0.251 OA
BRANCH  23  25
ATOM     25  O   UNL     1       8.319  -5.720  26.694  0.00  0.00    -0.480 OA
ATOM     26  H   UNL     1       7.499  -5.534  27.188  0.00  0.00    +0.295 HD
ENDBRANCH  23  25
ENDBRANCH  22  23
ENDBRANCH  12  22
TORSDOF 5
ENDMDL
