MODEL 1
REMARK VINA RESULT:      -6.4      0.000      0.000
REMARK  Name = 
REMARK  4 active torsions:
REMARK  status: ('A' for Active; 'I' for Inactive)
REMARK    1  A    between atoms: C_1  and  C_2
REMARK    2  A    between atoms: N_5  and  S_6
REMARK    3  A    between atoms: S_6  and  C_9
REMARK    4  A    between atoms: C_12  and  N_13
REMARK                            x       y       z     vdW  Elec       q    Type
REMARK                         _______ _______ _______ _____ _____    ______ ____
ROOT
ATOM      1  S   UNL     1       8.689  -2.911  23.980  0.00  0.00    +0.074 S 
ATOM      2  O   UNL     1       9.851  -3.723  24.277  0.00  0.00    -0.150 OA
ATOM      3  O   UNL     1       7.714  -2.592  24.996  0.00  0.00    -0.150 OA
ENDROOT
BRANCH   1   9
ATOM      4  C   UNL     1       3.129  -5.114  23.386  0.00  0.00    +0.089 C 
ATOM      5  C   UNL     1       4.584  -4.917  23.264  0.00  0.00    +0.136 A 
ATOM      6  O   UNL     1       5.362  -6.033  23.340  0.00  0.00    -0.358 OA
ATOM      7  N   UNL     1       6.688  -5.681  23.130  0.00  0.00    -0.062 NA
ATOM      8  C   UNL     1       6.687  -4.354  23.006  0.00  0.00    +0.181 A 
ATOM      9  N   UNL     1       7.838  -3.638  22.712  0.00  0.00    -0.197 N 
ATOM     10  H   UNL     1       8.495  -4.139  22.122  0.00  0.00    +0.175 HD
ATOM     11  C   UNL     1       5.386  -3.823  23.054  0.00  0.00    +0.092 A 
ENDBRANCH   1   9
BRANCH   1  12
ATOM     12  C   UNL     1       9.243  -1.356  23.306  0.00  0.00    +0.109 A 
ATOM     13  C   UNL     1       9.897  -0.429  24.120  0.00  0.00    +0.030 A 
ATOM     14  C   UNL     1      10.279   0.810  23.591  0.00  0.00    +0.024 A 
ATOM     15  C   UNL     1      10.053   1.112  22.243  0.00  0.00    +0.025 A 
ATOM     16  C   UNL     1       9.329   0.204  21.463  0.00  0.00    +0.024 A 
ATOM     17  C   UNL     1       8.934  -1.034  21.985  0.00  0.00    +0.030 A 
BRANCH  15  18
ATOM     18  N   UNL     1      10.334   2.393  21.752  0.00  0.00    -0.358 N 
ATOM     19  H   UNL     1      10.408   2.437  20.740  0.00  0.00    +0.142 HD
ATOM     20  H   UNL     1       9.722   3.115  22.118  0.00  0.00    +0.142 HD
ENDBRANCH  15  18
ENDBRANCH   1  12
TORSDOF 3
ENDMDL
MODEL 2
REMARK VINA RESULT:      -6.3      2.643      3.628
REMARK  Name = 
REMARK  4 active torsions:
REMARK  status: ('A' for Active; 'I' for Inactive)
REMARK    1  A    between atoms: C_1  and  C_2
REMARK    2  A    between atoms: N_5  and  S_6
REMARK    3  A    between atoms: S_6  and  C_9
REMARK    4  A    between atoms: C_12  and  N_13
REMARK                            x       y       z     vdW  Elec       q    Type
REMARK                         _______ _______ _______ _____ _____    ______ ____
ROOT
ATOM      1  S   UNL     1      10.104   0.119  24.563  0.00  0.00    +0.074 S 
ATOM      2  O   UNL     1      11.445   0.599  24.829  0.00  0.00    -0.150 OA
ATOM      3  O   UNL     1       9.261  -0.383  25.621  0.00  0.00    -0.150 OA
ENDROOT
BRANCH   1   9
ATOM      4  C   UNL     1       6.785  -4.735  23.328  0.00  0.00    +0.089 C 
ATOM      5  C   UNL     1       7.926  -3.821  23.507  0.00  0.00    +0.136 A 
ATOM      6  O   UNL     1       9.039  -4.339  24.096  0.00  0.00    -0.358 OA
ATOM      7  N   UNL     1      10.036  -3.373  24.118  0.00  0.00    -0.062 NA
ATOM      8  C   UNL     1       9.477  -2.276  23.609  0.00  0.00    +0.181 A 
ATOM      9  N   UNL     1      10.196  -1.108  23.402  0.00  0.00    -0.197 N 
ATOM     10  H   UNL     1      11.171  -1.261  23.164  0.00  0.00    +0.175 HD
ATOM     11  C   UNL     1       8.157  -2.508  23.182  0.00  0.00    +0.092 A 
ENDBRANCH   1   9
BRANCH   1  12
ATOM     12  C   UNL     1       9.188   1.421  23.760  0.00  0.00    +0.109 A 
ATOM     13  C   UNL     1       8.701   1.242  22.463  0.00  0.00    +0.030 A 
ATOM     14  C   UNL     1       8.030   2.293  21.824  0.00  0.00    +0.024 A 
ATOM     15  C   UNL     1       7.802   3.504  22.488  0.00  0.00    +0.025 A 
ATOM     16  C   UNL     1       8.363   3.692  23.755  0.00  0.00    +0.024 A 
ATOM     17  C   UNL     1       9.044   2.652  24.399  0.00  0.00    +0.030 A 
BRANCH  15  18
ATOM     18  N   UNL     1       7.232   4.584  21.803  0.00  0.00    -0.358 N 
ATOM     19  H   UNL     1       7.529   4.658  20.834  0.00  0.00    +0.142 HD
ATOM     20  H   UNL     1       6.222   4.640  21.893  0.00  0.00    +0.142 HD
ENDBRANCH  15  18
ENDBRANCH   1  12
TORSDOF 3
ENDMDL
MODEL 3
REMARK VINA RESULT:      -6.3      1.700      1.985
REMARK  Name = 
REMARK  4 active torsions:
REMARK  status: ('A' for Active; 'I' for Inactive)
REMARK    1  A    between atoms: C_1  and  C_2
REMARK    2  A    between atoms: N_5  and  S_6
REMARK    3  A    between atoms: S_6  and  C_9
REMARK    4  A    between atoms: C_12  and  N_13
REMARK                            x       y       z     vdW  Elec       q    Type
REMARK                         _______ _______ _______ _____ _____    ______ ____
ROOT
ATOM      1  S   UNL     1       9.294  -2.012  22.954  0.00  0.00    +0.074 S 
ATOM      2  O   UNL     1       9.104  -2.356  21.560  0.00  0.00    -0.150 OA
ATOM      3  O   UNL     1      10.207  -2.751  23.793  0.00  0.00    -0.150 OA
ENDROOT
BRANCH   1   9
ATOM      4  C   UNL     1       4.730  -5.921  23.003  0.00  0.00    +0.089 C 
ATOM      5  C   UNL     1       5.512  -4.672  23.015  0.00  0.00    +0.136 A 
ATOM      6  O   UNL     1       5.048  -3.651  22.242  0.00  0.00    -0.358 OA
ATOM      7  N   UNL     1       5.852  -2.535  22.427  0.00  0.00    -0.062 NA
ATOM      8  C   UNL     1       6.823  -2.931  23.250  0.00  0.00    +0.181 A 
ATOM      9  N   UNL     1       7.790  -2.059  23.727  0.00  0.00    -0.197 N 
ATOM     10  H   UNL     1       7.459  -1.107  23.856  0.00  0.00    +0.175 HD
ATOM     11  C   UNL     1       6.643  -4.260  23.674  0.00  0.00    +0.092 A 
ENDBRANCH   1   9
BRANCH   1  12
ATOM     12  C   UNL     1       9.789  -0.302  23.052  0.00  0.00    +0.109 A 
ATOM     13  C   UNL     1      10.190   0.246  24.272  0.00  0.00    +0.030 A 
ATOM     14  C   UNL     1      10.524   1.605  24.344  0.00  0.00    +0.024 A 
ATOM     15  C   UNL     1      10.503   2.409  23.199  0.00  0.00    +0.025 A 
ATOM     16  C   UNL     1      10.024   1.862  22.004  0.00  0.00    +0.024 A 
ATOM     17  C   UNL     1       9.678   0.508  21.922  0.00  0.00    +0.030 A 
BRANCH  15  18
ATOM     18  N   UNL     1      10.727   3.787  23.303  0.00  0.00    -0.358 N 
ATOM     19  H   UNL     1      10.054   4.351  22.793  0.00  0.00    +0.142 HD
ATOM     20  H   UNL     1      10.846   4.111  24.258  0.00  0.00    +0.142 HD
ENDBRANCH  15  18
ENDBRANCH   1  12
TORSDOF 3
ENDMDL
MODEL 4
REMARK VINA RESULT:      -6.2      1.815      2.093
REMARK  Name = 
REMARK  4 active torsions:
REMARK  status: ('A' for Active; 'I' for Inactive)
REMARK    1  A    between atoms: C_1  and  C_2
REMARK    2  A    between atoms: N_5  and  S_6
REMARK    3  A    between atoms: S_6  and  C_9
REMARK    4  A    between atoms: C_12  and  N_13
REMARK                            x       y       z     vdW  Elec       q    Type
REMARK                         _______ _______ _______ _____ _____    ______ ____
ROOT
ATOM      1  S   UNL     1       8.768  -2.855  24.860  0.00  0.00    +0.074 S 
ATOM      2  O   UNL     1       9.706  -3.863  24.410  0.00  0.00    -0.150 OA
ATOM      3  O   UNL     1       8.810  -2.336  26.207  0.00  0.00    -0.150 OA
ENDROOT
BRANCH   1   9
ATOM      4  C   UNL     1       6.084  -5.983  20.487  0.00  0.00    +0.089 C 
ATOM      5  C   UNL     1       6.341  -5.023  21.574  0.00  0.00    +0.136 A 
ATOM      6  O   UNL     1       5.863  -3.759  21.401  0.00  0.00    -0.358 OA
ATOM      7  N   UNL     1       6.124  -3.011  22.540  0.00  0.00    -0.062 NA
ATOM      8  C   UNL     1       6.816  -3.818  23.343  0.00  0.00    +0.181 A 
ATOM      9  N   UNL     1       7.199  -3.440  24.622  0.00  0.00    -0.197 N 
ATOM     10  H   UNL     1       6.543  -2.814  25.080  0.00  0.00    +0.175 HD
ATOM     11  C   UNL     1       6.959  -5.107  22.797  0.00  0.00    +0.092 A 
ENDBRANCH   1   9
BRANCH   1  12
ATOM     12  C   UNL     1       8.886  -1.448  23.772  0.00  0.00    +0.109 A 
ATOM     13  C   UNL     1       9.676  -1.511  22.622  0.00  0.00    +0.030 A 
ATOM     14  C   UNL     1       9.802  -0.380  21.805  0.00  0.00    +0.024 A 
ATOM     15  C   UNL     1       9.109   0.799  22.104  0.00  0.00    +0.025 A 
ATOM     16  C   UNL     1       8.386   0.868  23.299  0.00  0.00    +0.024 A 
ATOM     17  C   UNL     1       8.260  -0.253  24.128  0.00  0.00    +0.030 A 
BRANCH  15  18
ATOM     18  N   UNL     1       9.331   1.956  21.347  0.00  0.00    -0.358 N 
ATOM     19  H   UNL     1      10.232   1.972  20.878  0.00  0.00    +0.142 HD
ATOM     20  H   UNL     1       8.571   2.182  20.713  0.00  0.00    +0.142 HD
ENDBRANCH  15  18
ENDBRANCH   1  12
TORSDOF 3
ENDMDL
MODEL 5
REMARK VINA RESULT:      -6.2      2.364      6.251
REMARK  Name = 
REMARK  4 active torsions:
REMARK  status: ('A' for Active; 'I' for Inactive)
REMARK    1  A    between atoms: C_1  and  C_2
REMARK    2  A    between atoms: N_5  and  S_6
REMARK    3  A    between atoms: S_6  and  C_9
REMARK    4  A    between atoms: C_12  and  N_13
REMARK                            x       y       z     vdW  Elec       q    Type
REMARK                         _______ _______ _______ _____ _____    ______ ____
ROOT
ATOM      1  S   UNL     1       8.931  -4.015  25.365  0.00  0.00    +0.074 S 
ATOM      2  O   UNL     1       9.019  -4.493  26.729  0.00  0.00    -0.150 OA
ATOM      3  O   UNL     1      10.046  -4.129  24.454  0.00  0.00    -0.150 OA
ENDROOT
BRANCH   1   9
ATOM      4  C   UNL     1       9.262   0.479  21.389  0.00  0.00    +0.089 C 
ATOM      5  C   UNL     1       9.276  -0.291  22.645  0.00  0.00    +0.136 A 
ATOM      6  O   UNL     1      10.282  -0.014  23.522  0.00  0.00    -0.358 OA
ATOM      7  N   UNL     1      10.104  -0.767  24.674  0.00  0.00    -0.062 NA
ATOM      8  C   UNL     1       9.038  -1.533  24.436  0.00  0.00    +0.181 A 
ATOM      9  N   UNL     1       8.506  -2.379  25.397  0.00  0.00    -0.197 N 
ATOM     10  H   UNL     1       8.602  -2.034  26.348  0.00  0.00    +0.175 HD
ATOM     11  C   UNL     1       8.461  -1.255  23.184  0.00  0.00    +0.092 A 
ENDBRANCH   1   9
BRANCH   1  12
ATOM     12  C   UNL     1       7.548  -4.816  24.574  0.00  0.00    +0.109 A 
ATOM     13  C   UNL     1       7.529  -4.981  23.187  0.00  0.00    +0.030 A 
ATOM     14  C   UNL     1       6.412  -5.564  22.575  0.00  0.00    +0.024 A 
ATOM     15  C   UNL     1       5.334  -6.022  23.341  0.00  0.00    +0.025 A 
ATOM     16  C   UNL     1       5.337  -5.778  24.718  0.00  0.00    +0.024 A 
ATOM     17  C   UNL     1       6.444  -5.188  25.340  0.00  0.00    +0.030 A 
BRANCH  15  18
ATOM     18  N   UNL     1       4.176  -6.497  22.712  0.00  0.00    -0.358 N 
ATOM     19  H   UNL     1       3.489  -5.774  22.519  0.00  0.00    +0.142 HD
ATOM     20  H   UNL     1       4.361  -7.071  21.895  0.00  0.00    +0.142 HD
ENDBRANCH  15  18
ENDBRANCH   1  12
TORSDOF 3
ENDMDL
MODEL 6
REMARK VINA RESULT:      -6.1      2.256      6.032
REMARK  Name = 
REMARK  4 active torsions:
REMARK  status: ('A' for Active; 'I' for Inactive)
REMARK    1  A    between atoms: C_1  and  C_2
REMARK    2  A    between atoms: N_5  and  S_6
REMARK    3  A    between atoms: S_6  and  C_9
REMARK    4  A    between atoms: C_12  and  N_13
REMARK                            x       y       z     vdW  Elec       q    Type
REMARK                         _______ _______ _______ _____ _____    ______ ____
ROOT
ATOM      1  S   UNL     1       8.477  -2.946  24.807  0.00  0.00    +0.074 S 
ATOM      2  O   UNL     1       7.663  -1.780  25.082  0.00  0.00    -0.150 OA
ATOM      3  O   UNL     1       8.876  -3.851  25.859  0.00  0.00    -0.150 OA
ENDROOT
BRANCH   1   9
ATOM      4  C   UNL     1      10.234   2.171  22.192  0.00  0.00    +0.089 C 
ATOM      5  C   UNL     1      10.049   0.744  22.505  0.00  0.00    +0.136 A 
ATOM      6  O   UNL     1       9.822  -0.090  21.452  0.00  0.00    -0.358 OA
ATOM      7  N   UNL     1       9.747  -1.397  21.911  0.00  0.00    -0.062 NA
ATOM      8  C   UNL     1       9.858  -1.314  23.237  0.00  0.00    +0.181 A 
ATOM      9  N   UNL     1       9.900  -2.438  24.047  0.00  0.00    -0.197 N 
ATOM     10  H   UNL     1      10.345  -3.243  23.614  0.00  0.00    +0.175 HD
ATOM     11  C   UNL     1      10.078   0.008  23.663  0.00  0.00    +0.092 A 
ENDBRANCH   1   9
BRANCH   1  12
ATOM     12  C   UNL     1       7.648  -3.935  23.577  0.00  0.00    +0.109 A 
ATOM     13  C   UNL     1       7.951  -5.292  23.443  0.00  0.00    +0.030 A 
ATOM     14  C   UNL     1       7.332  -6.044  22.437  0.00  0.00    +0.024 A 
ATOM     15  C   UNL     1       6.378  -5.462  21.593  0.00  0.00    +0.025 A 
ATOM     16  C   UNL     1       6.145  -4.086  21.691  0.00  0.00    +0.024 A 
ATOM     17  C   UNL     1       6.766  -3.323  22.687  0.00  0.00    +0.030 A 
BRANCH  15  18
ATOM     18  N   UNL     1       5.851  -6.191  20.520  0.00  0.00    -0.358 N 
ATOM     19  H   UNL     1       6.461  -6.226  19.709  0.00  0.00    +0.142 HD
ATOM     20  H   UNL     1       5.513  -7.113  20.778  0.00  0.00    +0.142 HD
ENDBRANCH  15  18
ENDBRANCH   1  12
TORSDOF 3
ENDMDL
MODEL 7
REMARK VINA RESULT:      -6.0      3.416      6.674
REMARK  Name = 
REMARK  4 active torsions:
REMARK  status: ('A' for Active; 'I' for Inactive)
REMARK    1  A    between atoms: C_1  and  C_2
REMARK    2  A    between atoms: N_5  and  S_6
REMARK    3  A    between atoms: S_6  and  C_9
REMARK    4  A    between atoms: C_12  and  N_13
REMARK                            x       y       z     vdW  Elec       q    Type
REMARK                         _______ _______ _______ _____ _____    ______ ____
ROOT
ATOM      1  S   UNL     1       9.563  -1.711  23.612  0.00  0.00    +0.074 S 
ATOM      2  O   UNL     1      10.645  -2.264  22.823  0.00  0.00    -0.150 OA
ATOM      3  O   UNL     1       8.407  -1.112  22.988  0.00  0.00    -0.150 OA
ENDROOT
BRANCH   1   9
ATOM      4  C   UNL     1       8.103   3.964  24.944  0.00  0.00    +0.089 C 
ATOM      5  C   UNL     1       8.871   2.737  24.673  0.00  0.00    +0.136 A 
ATOM      6  O   UNL     1       9.981   2.869  23.894  0.00  0.00    -0.358 OA
ATOM      7  N   UNL     1      10.624   1.641  23.802  0.00  0.00    -0.062 NA
ATOM      8  C   UNL     1       9.847   0.785  24.465  0.00  0.00    +0.181 A 
ATOM      9  N   UNL     1      10.203  -0.543  24.654  0.00  0.00    -0.197 N 
ATOM     10  H   UNL     1      11.204  -0.693  24.739  0.00  0.00    +0.175 HD
ATOM     11  C   UNL     1       8.744   1.426  25.058  0.00  0.00    +0.092 A 
ENDBRANCH   1   9
BRANCH   1  12
ATOM     12  C   UNL     1       8.949  -2.984  24.698  0.00  0.00    +0.109 A 
ATOM     13  C   UNL     1       7.936  -2.698  25.616  0.00  0.00    +0.030 A 
ATOM     14  C   UNL     1       7.501  -3.694  26.501  0.00  0.00    +0.024 A 
ATOM     15  C   UNL     1       8.039  -4.985  26.444  0.00  0.00    +0.025 A 
ATOM     16  C   UNL     1       9.105  -5.231  25.573  0.00  0.00    +0.024 A 
ATOM     17  C   UNL     1       9.554  -4.240  24.690  0.00  0.00    +0.030 A 
BRANCH  15  18
ATOM     18  N   UNL     1       7.680  -5.938  27.405  0.00  0.00    -0.358 N 
ATOM     19  H   UNL     1       8.368  -6.675  27.527  0.00  0.00    +0.142 HD
ATOM     20  H   UNL     1       7.394  -5.537  28.293  0.00  0.00    +0.142 HD
ENDBRANCH  15  18
ENDBRANCH   1  12
TORSDOF 3
ENDMDL
MODEL 8
REMARK VINA RESULT:      -6.0      2.303      2.647
REMARK  Name = 
REMARK  4 active torsions:
REMARK  status: ('A' for Active; 'I' for Inactive)
REMARK    1  A    between atoms: C_1  and  C_2
REMARK    2  A    between atoms: N_5  and  S_6
REMARK    3  A    between atoms: S_6  and  C_9
REMARK    4  A    between atoms: C_12  and  N_13
REMARK                            x       y       z     vdW  Elec       q    Type
REMARK                         _______ _______ _______ _____ _____    ______ ____
ROOT
ATOM      1  S   UNL     1       8.983  -2.081  23.170  0.00  0.00    +0.074 S 
ATOM      2  O   UNL     1       8.437  -2.395  21.865  0.00  0.00    -0.150 OA
ATOM      3  O   UNL     1      10.005  -2.903  23.775  0.00  0.00    -0.150 OA
ENDROOT
BRANCH   1   9
ATOM      4  C   UNL     1       7.064  -5.671  27.590  0.00  0.00    +0.089 C 
ATOM      5  C   UNL     1       7.097  -4.726  26.460  0.00  0.00    +0.136 A 
ATOM      6  O   UNL     1       6.181  -4.923  25.471  0.00  0.00    -0.358 OA
ATOM      7  N   UNL     1       6.299  -3.909  24.530  0.00  0.00    -0.062 NA
ATOM      8  C   UNL     1       7.329  -3.168  24.936  0.00  0.00    +0.181 A 
ATOM      9  N   UNL     1       7.709  -2.007  24.280  0.00  0.00    -0.197 N 
ATOM     10  H   UNL     1       6.937  -1.500  23.858  0.00  0.00    +0.175 HD
ATOM     11  C   UNL     1       7.852  -3.620  26.161  0.00  0.00    +0.092 A 
ENDBRANCH   1   9
BRANCH   1  12
ATOM     12  C   UNL     1       9.630  -0.420  23.126  0.00  0.00    +0.109 A 
ATOM     13  C   UNL     1      10.193   0.146  24.272  0.00  0.00    +0.030 A 
ATOM     14  C   UNL     1      10.648   1.470  24.238  0.00  0.00    +0.024 A 
ATOM     15  C   UNL     1      10.585   2.218  23.056  0.00  0.00    +0.025 A 
ATOM     16  C   UNL     1       9.948   1.662  21.943  0.00  0.00    +0.024 A 
ATOM     17  C   UNL     1       9.481   0.342  21.968  0.00  0.00    +0.030 A 
BRANCH  15  18
ATOM     18  N   UNL     1      10.936   3.574  23.063  0.00  0.00    -0.358 N 
ATOM     19  H   UNL     1      10.155   4.200  22.890  0.00  0.00    +0.142 HD
ATOM     20  H   UNL     1      11.472   3.854  23.878  0.00  0.00    +0.142 HD
ENDBRANCH  15  18
ENDBRANCH   1  12
TORSDOF 3
ENDMDL
MODEL 9
REMARK VINA RESULT:      -5.9      2.554      2.859
REMARK  Name = 
REMARK  4 active torsions:
REMARK  status: ('A' for Active; 'I' for Inactive)
REMARK    1  A    between atoms: C_1  and  C_2
REMARK    2  A    between atoms: N_5  and  S_6
REMARK    3  A    between atoms: S_6  and  C_9
REMARK    4  A    between atoms: C_12  and  N_13
REMARK                            x       y       z     vdW  Elec       q    Type
REMARK                         _______ _______ _______ _____ _____    ______ ____
ROOT
ATOM      1  S   UNL     1       9.038  -1.293  23.317  0.00  0.00    +0.074 S 
ATOM      2  O   UNL     1       9.586  -1.845  22.094  0.00  0.00    -0.150 OA
ATOM      3  O   UNL     1       9.871  -1.044  24.469  0.00  0.00    -0.150 OA
ENDROOT
BRANCH   1   9
ATOM      4  C   UNL     1       6.104  -5.945  20.896  0.00  0.00    +0.089 C 
ATOM      5  C   UNL     1       6.418  -4.721  21.654  0.00  0.00    +0.136 A 
ATOM      6  O   UNL     1       5.521  -3.700  21.566  0.00  0.00    -0.358 OA
ATOM      7  N   UNL     1       5.928  -2.662  22.393  0.00  0.00    -0.062 NA
ATOM      8  C   UNL     1       7.096  -3.052  22.903  0.00  0.00    +0.181 A 
ATOM      9  N   UNL     1       7.783  -2.297  23.842  0.00  0.00    -0.197 N 
ATOM     10  H   UNL     1       7.181  -1.769  24.466  0.00  0.00    +0.175 HD
ATOM     11  C   UNL     1       7.440  -4.353  22.492  0.00  0.00    +0.092 A 
ENDBRANCH   1   9
BRANCH   1  12
ATOM     12  C   UNL     1       8.236   0.252  22.929  0.00  0.00    +0.109 A 
ATOM     13  C   UNL     1       7.081   0.636  23.614  0.00  0.00    +0.030 A 
ATOM     14  C   UNL     1       6.431   1.826  23.262  0.00  0.00    +0.024 A 
ATOM     15  C   UNL     1       6.951   2.656  22.262  0.00  0.00    +0.025 A 
ATOM     16  C   UNL     1       8.062   2.217  21.534  0.00  0.00    +0.024 A 
ATOM     17  C   UNL     1       8.715   1.025  21.872  0.00  0.00    +0.030 A 
BRANCH  15  18
ATOM     18  N   UNL     1       6.233   3.783  21.840  0.00  0.00    -0.358 N 
ATOM     19  H   UNL     1       5.556   4.115  22.520  0.00  0.00    +0.142 HD
ATOM     20  H   UNL     1       6.820   4.534  21.492  0.00  0.00    +0.142 HD
ENDBRANCH  15  18
ENDBRANCH   1  12
TORSDOF 3
ENDMDL
