MODEL 1
REMARK VINA RESULT:      -6.6      0.000      0.000
REMARK  Name = 
REMARK  11 active torsions:
REMARK  status: ('A' for Active; 'I' for Inactive)
REMARK    1  A    between atoms: C_1  and  C_2
REMARK    2  A    between atoms: C_3  and  C_4
REMARK    3  A    between atoms: C_4  and  C_5
REMARK    4  A    between atoms: C_12  and  O_13
REMARK    5  A    between atoms: O_13  and  C_14
REMARK    6  A    between atoms: C_14  and  C_15
REMARK    7  A    between atoms: C_15  and  C_16
REMARK    8  A    between atoms: C_16  and  C_17
REMARK    9  A    between atoms: C_17  and  O_18
REMARK   10  A    between atoms: N_21  and  C_22
REMARK   11  A    between atoms: C_22  and  C_23
REMARK                            x       y       z     vdW  Elec       q    Type
REMARK                         _______ _______ _______ _____ _____    ______ ____
ROOT
ATOM      1  C   UNL     1       8.806  -1.667  21.815  0.00  0.00    +0.064 C 
ATOM      2  C   UNL     1       8.299  -2.513  22.934  0.00  0.00    +0.021 A 
ATOM      3  N   UNL     1       8.810  -2.398  24.216  0.00  0.00    -0.339 N 
ATOM      4  C   UNL     1       8.139  -3.255  25.070  0.00  0.00    +0.050 A 
ATOM      5  C   UNL     1       8.239  -3.442  26.458  0.00  0.00    +0.030 A 
ATOM      6  C   UNL     1       7.527  -4.496  27.042  0.00  0.00    +0.048 A 
ATOM      7  C   UNL     1       6.730  -5.337  26.271  0.00  0.00    +0.121 A 
ATOM      8  C   UNL     1       6.611  -5.113  24.893  0.00  0.00    +0.056 A 
ATOM      9  C   UNL     1       7.301  -4.043  24.281  0.00  0.00    +0.007 A 
ATOM     10  C   UNL     1       7.352  -3.535  22.941  0.00  0.00    -0.010 A 
ENDROOT
BRANCH   3  11
ATOM     11  C   UNL     1       9.895  -1.498  24.627  0.00  0.00    +0.157 C 
BRANCH  11  12
ATOM     12  C   UNL     1       9.531  -0.030  24.762  0.00  0.00    -0.028 A 
ATOM     13  C   UNL     1      10.360   0.910  24.118  0.00  0.00    +0.005 A 
ATOM     14  C   UNL     1      10.017   2.264  24.066  0.00  0.00    +0.000 A 
ATOM     15  C   UNL     1       8.842   2.706  24.664  0.00  0.00    +0.000 A 
ATOM     16  C   UNL     1       8.036   1.801  25.353  0.00  0.00    +0.000 A 
ATOM     17  C   UNL     1       8.382   0.446  25.410  0.00  0.00    +0.005 A 
ENDBRANCH  11  12
ENDBRANCH   3  11
BRANCH   7  18
ATOM     18  O   UNL     1       6.035  -6.420  26.743  0.00  0.00    -0.492 OA
BRANCH  18  19
ATOM     19  C   UNL     1       4.683  -6.173  27.135  0.00  0.00    +0.229 C 
BRANCH  19  20
ATOM     20  C   UNL     1       3.752  -6.970  26.228  0.00  0.00    +0.052 C 
BRANCH  20  21
ATOM     21  C   UNL     1       2.989  -6.090  25.242  0.00  0.00    +0.124 C 
BRANCH  21  22
ATOM     22  C   UNL     1       3.473  -6.330  23.826  0.00  0.00    +0.305 C 
ATOM     23  O   UNL     1       3.183  -5.634  22.865  0.00  0.00    -0.251 OA
BRANCH  22  24
ATOM     24  O   UNL     1       4.239  -7.437  23.710  0.00  0.00    -0.481 OA
ATOM     25  H   UNL     1       4.968  -7.353  23.064  0.00  0.00    +0.295 HD
ENDBRANCH  22  24
ENDBRANCH  21  22
ENDBRANCH  20  21
ENDBRANCH  19  20
ENDBRANCH  18  19
ENDBRANCH   7  18
BRANCH  10  26
ATOM     26  C   UNL     1       6.581  -4.095  21.771  0.00  0.00    +0.133 C 
BRANCH  26  27
ATOM     27  C   UNL     1       6.683  -5.590  21.503  0.00  0.00    +0.215 C 
ATOM     28  O   UNL     1       7.737  -6.203  21.677  0.00  0.00    -0.276 OA
ATOM     29  N   UNL     1       5.587  -6.272  21.077  0.00  0.00    -0.329 N 
ATOM     30  H   UNL     1       5.676  -7.273  20.972  0.00  0.00    +0.145 HD
ATOM     31  H   UNL     1       4.662  -5.855  21.063  0.00  0.00    +0.145 HD
ENDBRANCH  26  27
ENDBRANCH  10  26
TORSDOF 10
ENDMDL
MODEL 2
REMARK VINA RESULT:      -6.4      3.183      5.593
REMARK  Name = 
REMARK  11 active torsions:
REMARK  status: ('A' for Active; 'I' for Inactive)
REMARK    1  A    between atoms: C_1  and  C_2
REMARK    2  A    between atoms: C_3  and  C_4
REMARK    3  A    between atoms: C_4  and  C_5
REMARK    4  A    between atoms: C_12  and  O_13
REMARK    5  A    between atoms: O_13  and  C_14
REMARK    6  A    between atoms: C_14  and  C_15
REMARK    7  A    between atoms: C_15  and  C_16
REMARK    8  A    between atoms: C_16  and  C_17
REMARK    9  A    between atoms: C_17  and  O_18
REMARK   10  A    between atoms: N_21  and  C_22
REMARK   11  A    between atoms: C_22  and  C_23
REMARK                            x       y       z     vdW  Elec       q    Type
REMARK                         _______ _______ _______ _____ _____    ______ ____
ROOT
ATOM      1  C   UNL     1       7.348   3.388  25.953  0.00  0.00    +0.064 C 
ATOM      2  C   UNL     1       7.979   2.146  25.420  0.00  0.00    +0.021 A 
ATOM      3  N   UNL     1       8.682   2.147  24.227  0.00  0.00    -0.339 N 
ATOM      4  C   UNL     1       9.204   0.888  23.985  0.00  0.00    +0.050 A 
ATOM      5  C   UNL     1      10.041   0.416  22.961  0.00  0.00    +0.030 A 
ATOM      6  C   UNL     1      10.296  -0.958  22.890  0.00  0.00    +0.048 A 
ATOM      7  C   UNL     1       9.742  -1.840  23.814  0.00  0.00    +0.121 A 
ATOM      8  C   UNL     1       8.940  -1.348  24.851  0.00  0.00    +0.056 A 
ATOM      9  C   UNL     1       8.684   0.037  24.960  0.00  0.00    +0.007 A 
ATOM     10  C   UNL     1       7.962   0.839  25.905  0.00  0.00    -0.010 A 
ENDROOT
BRANCH   3  11
ATOM     11  C   UNL     1       8.865   3.305  23.342  0.00  0.00    +0.157 C 
BRANCH  11  12
ATOM     12  C   UNL     1      10.029   4.222  23.674  0.00  0.00    -0.028 A 
ATOM     13  C   UNL     1      11.310   3.835  23.235  0.00  0.00    +0.005 A 
ATOM     14  C   UNL     1      12.411   4.688  23.367  0.00  0.00    +0.000 A 
ATOM     15  C   UNL     1      12.251   5.941  23.948  0.00  0.00    +0.000 A 
ATOM     16  C   UNL     1      11.003   6.320  24.438  0.00  0.00    +0.000 A 
ATOM     17  C   UNL     1       9.902   5.464  24.312  0.00  0.00    +0.005 A 
ENDBRANCH  11  12
ENDBRANCH   3  11
BRANCH   7  18
ATOM     18  O   UNL     1       9.895  -3.202  23.797  0.00  0.00    -0.492 OA
BRANCH  18  19
ATOM     19  C   UNL     1       9.523  -3.887  24.994  0.00  0.00    +0.229 C 
BRANCH  19  20
ATOM     20  C   UNL     1       8.632  -5.069  24.630  0.00  0.00    +0.052 C 
BRANCH  20  21
ATOM     21  C   UNL     1       7.247  -4.987  25.269  0.00  0.00    +0.124 C 
BRANCH  21  22
ATOM     22  C   UNL     1       7.349  -5.069  26.778  0.00  0.00    +0.305 C 
ATOM     23  O   UNL     1       6.884  -4.246  27.552  0.00  0.00    -0.251 OA
BRANCH  22  24
ATOM     24  O   UNL     1       8.056  -6.139  27.202  0.00  0.00    -0.481 OA
ATOM     25  H   UNL     1       9.024  -5.998  27.219  0.00  0.00    +0.295 HD
ENDBRANCH  22  24
ENDBRANCH  21  22
ENDBRANCH  20  21
ENDBRANCH  19  20
ENDBRANCH  18  19
ENDBRANCH   7  18
BRANCH  10  26
ATOM     26  C   UNL     1       7.251   0.312  27.127  0.00  0.00    +0.133 C 
BRANCH  26  27
ATOM     27  C   UNL     1       5.838  -0.225  26.951  0.00  0.00    +0.215 C 
ATOM     28  O   UNL     1       4.872   0.532  26.844  0.00  0.00    -0.276 OA
ATOM     29  N   UNL     1       5.631  -1.567  26.893  0.00  0.00    -0.329 N 
ATOM     30  H   UNL     1       4.690  -1.884  26.710  0.00  0.00    +0.145 HD
ATOM     31  H   UNL     1       6.397  -2.230  26.821  0.00  0.00    +0.145 HD
ENDBRANCH  26  27
ENDBRANCH  10  26
TORSDOF 10
ENDMDL
MODEL 3
REMARK VINA RESULT:      -6.3      2.119      3.777
REMARK  Name = 
REMARK  11 active torsions:
REMARK  status: ('A' for Active; 'I' for Inactive)
REMARK    1  A    between atoms: C_1  and  C_2
REMARK    2  A    between atoms: C_3  and  C_4
REMARK    3  A    between atoms: C_4  and  C_5
REMARK    4  A    between atoms: C_12  and  O_13
REMARK    5  A    between atoms: O_13  and  C_14
REMARK    6  A    between atoms: C_14  and  C_15
REMARK    7  A    between atoms: C_15  and  C_16
REMARK    8  A    between atoms: C_16  and  C_17
REMARK    9  A    between atoms: C_17  and  O_18
REMARK   10  A    between atoms: N_21  and  C_22
REMARK   11  A    between atoms: C_22  and  C_23
REMARK                            x       y       z     vdW  Elec       q    Type
REMARK                         _______ _______ _______ _____ _____    ______ ____
ROOT
ATOM      1  C   UNL     1       9.050  -1.957  25.946  0.00  0.00    +0.064 C 
ATOM      2  C   UNL     1       8.118  -2.774  25.116  0.00  0.00    +0.021 A 
ATOM      3  N   UNL     1       8.205  -2.787  23.733  0.00  0.00    -0.339 N 
ATOM      4  C   UNL     1       7.263  -3.656  23.210  0.00  0.00    +0.050 A 
ATOM      5  C   UNL     1       7.016  -4.065  21.890  0.00  0.00    +0.030 A 
ATOM      6  C   UNL     1       5.889  -4.856  21.637  0.00  0.00    +0.048 A 
ATOM      7  C   UNL     1       5.036  -5.239  22.667  0.00  0.00    +0.121 A 
ATOM      8  C   UNL     1       5.318  -4.855  23.984  0.00  0.00    +0.056 A 
ATOM      9  C   UNL     1       6.460  -4.075  24.271  0.00  0.00    +0.007 A 
ATOM     10  C   UNL     1       7.036  -3.570  25.484  0.00  0.00    -0.010 A 
ENDROOT
BRANCH   3  11
ATOM     11  C   UNL     1       9.154  -2.009  22.928  0.00  0.00    +0.157 C 
BRANCH  11  12
ATOM     12  C   UNL     1       8.746  -0.581  22.610  0.00  0.00    -0.028 A 
ATOM     13  C   UNL     1       9.674   0.225  21.922  0.00  0.00    +0.005 A 
ATOM     14  C   UNL     1       9.328   1.499  21.461  0.00  0.00    +0.000 A 
ATOM     15  C   UNL     1       8.048   1.994  21.688  0.00  0.00    +0.000 A 
ATOM     16  C   UNL     1       7.133   1.234  22.414  0.00  0.00    +0.000 A 
ATOM     17  C   UNL     1       7.481  -0.039  22.881  0.00  0.00    +0.005 A 
ENDBRANCH  11  12
ENDBRANCH   3  11
BRANCH   7  18
ATOM     18  O   UNL     1       3.887  -5.970  22.512  0.00  0.00    -0.492 OA
BRANCH  18  19
ATOM     19  C   UNL     1       2.740  -5.490  23.216  0.00  0.00    +0.229 C 
BRANCH  19  20
ATOM     20  C   UNL     1       1.695  -6.599  23.273  0.00  0.00    +0.052 C 
BRANCH  20  21
ATOM     21  C   UNL     1       1.502  -7.160  24.679  0.00  0.00    +0.124 C 
BRANCH  21  22
ATOM     22  C   UNL     1       2.612  -8.134  25.023  0.00  0.00    +0.305 C 
ATOM     23  O   UNL     1       3.787  -7.828  25.156  0.00  0.00    -0.251 OA
BRANCH  22  24
ATOM     24  O   UNL     1       2.181  -9.409  25.129  0.00  0.00    -0.481 OA
ATOM     25  H   UNL     1       2.260  -9.785  26.029  0.00  0.00    +0.295 HD
ENDBRANCH  22  24
ENDBRANCH  21  22
ENDBRANCH  20  21
ENDBRANCH  19  20
ENDBRANCH  18  19
ENDBRANCH   7  18
BRANCH  10  26
ATOM     26  C   UNL     1       6.483  -3.803  26.869  0.00  0.00    +0.133 C 
BRANCH  26  27
ATOM     27  C   UNL     1       6.922  -5.060  27.607  0.00  0.00    +0.215 C 
ATOM     28  O   UNL     1       6.400  -5.394  28.671  0.00  0.00    -0.276 OA
ATOM     29  N   UNL     1       7.898  -5.844  27.077  0.00  0.00    -0.329 N 
ATOM     30  H   UNL     1       8.116  -6.703  27.561  0.00  0.00    +0.145 HD
ATOM     31  H   UNL     1       8.254  -5.704  26.137  0.00  0.00    +0.145 HD
ENDBRANCH  26  27
ENDBRANCH  10  26
TORSDOF 10
ENDMDL
MODEL 4
REMARK VINA RESULT:      -6.3      1.990      2.627
REMARK  Name = 
REMARK  11 active torsions:
REMARK  status: ('A' for Active; 'I' for Inactive)
REMARK    1  A    between atoms: C_1  and  C_2
REMARK    2  A    between atoms: C_3  and  C_4
REMARK    3  A    between atoms: C_4  and  C_5
REMARK    4  A    between atoms: C_12  and  O_13
REMARK    5  A    between atoms: O_13  and  C_14
REMARK    6  A    between atoms: C_14  and  C_15
REMARK    7  A    between atoms: C_15  and  C_16
REMARK    8  A    between atoms: C_16  and  C_17
REMARK    9  A    between atoms: C_17  and  O_18
REMARK   10  A    between atoms: N_21  and  C_22
REMARK   11  A    between atoms: C_22  and  C_23
REMARK                            x       y       z     vdW  Elec       q    Type
REMARK                         _______ _______ _______ _____ _____    ______ ____
ROOT
ATOM      1  C   UNL     1       8.978  -1.864  21.926  0.00  0.00    +0.064 C 
ATOM      2  C   UNL     1       7.992  -2.170  23.002  0.00  0.00    +0.021 A 
ATOM      3  N   UNL     1       8.222  -1.804  24.318  0.00  0.00    -0.339 N 
ATOM      4  C   UNL     1       7.139  -2.159  25.103  0.00  0.00    +0.050 A 
ATOM      5  C   UNL     1       6.869  -1.933  26.462  0.00  0.00    +0.030 A 
ATOM      6  C   UNL     1       5.741  -2.540  27.027  0.00  0.00    +0.048 A 
ATOM      7  C   UNL     1       4.899  -3.343  26.263  0.00  0.00    +0.121 A 
ATOM      8  C   UNL     1       5.161  -3.526  24.900  0.00  0.00    +0.056 A 
ATOM      9  C   UNL     1       6.280  -2.908  24.298  0.00  0.00    +0.007 A 
ATOM     10  C   UNL     1       6.784  -2.863  22.956  0.00  0.00    -0.010 A 
ENDROOT
BRANCH   3  11
ATOM     11  C   UNL     1       9.426  -1.131  24.822  0.00  0.00    +0.157 C 
BRANCH  11  12
ATOM     12  C   UNL     1       9.463   0.379  24.663  0.00  0.00    -0.028 A 
ATOM     13  C   UNL     1      10.544   0.934  23.952  0.00  0.00    +0.005 A 
ATOM     14  C   UNL     1      10.580   2.295  23.633  0.00  0.00    +0.000 A 
ATOM     15  C   UNL     1       9.539   3.128  24.027  0.00  0.00    +0.000 A 
ATOM     16  C   UNL     1       8.487   2.608  24.778  0.00  0.00    +0.000 A 
ATOM     17  C   UNL     1       8.453   1.247  25.104  0.00  0.00    +0.005 A 
ENDBRANCH  11  12
ENDBRANCH   3  11
BRANCH   7  18
ATOM     18  O   UNL     1       3.802  -4.015  26.737  0.00  0.00    -0.492 OA
BRANCH  18  19
ATOM     19  C   UNL     1       3.561  -3.905  28.141  0.00  0.00    +0.229 C 
BRANCH  19  20
ATOM     20  C   UNL     1       3.838  -5.254  28.796  0.00  0.00    +0.052 C 
BRANCH  20  21
ATOM     21  C   UNL     1       5.238  -5.344  29.398  0.00  0.00    +0.124 C 
BRANCH  21  22
ATOM     22  C   UNL     1       6.089  -6.333  28.628  0.00  0.00    +0.305 C 
ATOM     23  O   UNL     1       7.185  -6.082  28.149  0.00  0.00    -0.251 OA
BRANCH  22  24
ATOM     24  O   UNL     1       5.494  -7.536  28.477  0.00  0.00    -0.481 OA
ATOM     25  H   UNL     1       4.551  -7.487  28.225  0.00  0.00    +0.295 HD
ENDBRANCH  22  24
ENDBRANCH  21  22
ENDBRANCH  20  21
ENDBRANCH  19  20
ENDBRANCH  18  19
ENDBRANCH   7  18
BRANCH  10  26
ATOM     26  C   UNL     1       6.145  -3.535  21.766  0.00  0.00    +0.133 C 
BRANCH  26  27
ATOM     27  C   UNL     1       6.451  -5.008  21.534  0.00  0.00    +0.215 C 
ATOM     28  O   UNL     1       5.915  -5.639  20.620  0.00  0.00    -0.276 OA
ATOM     29  N   UNL     1       7.344  -5.644  22.337  0.00  0.00    -0.329 N 
ATOM     30  H   UNL     1       7.570  -6.602  22.112  0.00  0.00    +0.145 HD
ATOM     31  H   UNL     1       7.926  -5.144  23.001  0.00  0.00    +0.145 HD
ENDBRANCH  26  27
ENDBRANCH  10  26
TORSDOF 10
ENDMDL
MODEL 5
REMARK VINA RESULT:      -6.3      3.622      7.498
REMARK  Name = 
REMARK  11 active torsions:
REMARK  status: ('A' for Active; 'I' for Inactive)
REMARK    1  A    between atoms: C_1  and  C_2
REMARK    2  A    between atoms: C_3  and  C_4
REMARK    3  A    between atoms: C_4  and  C_5
REMARK    4  A    between atoms: C_12  and  O_13
REMARK    5  A    between atoms: O_13  and  C_14
REMARK    6  A    between atoms: C_14  and  C_15
REMARK    7  A    between atoms: C_15  and  C_16
REMARK    8  A    between atoms: C_16  and  C_17
REMARK    9  A    between atoms: C_17  and  O_18
REMARK   10  A    between atoms: N_21  and  C_22
REMARK   11  A    between atoms: C_22  and  C_23
REMARK                            x       y       z     vdW  Elec       q    Type
REMARK                         _______ _______ _______ _____ _____    ______ ____
ROOT
ATOM      1  C   UNL     1       5.320  -3.178  27.000  0.00  0.00    +0.064 C 
ATOM      2  C   UNL     1       6.446  -2.511  26.285  0.00  0.00    +0.021 A 
ATOM      3  N   UNL     1       7.374  -3.240  25.560  0.00  0.00    -0.339 N 
ATOM      4  C   UNL     1       8.281  -2.384  24.959  0.00  0.00    +0.050 A 
ATOM      5  C   UNL     1       9.342  -2.635  24.074  0.00  0.00    +0.030 A 
ATOM      6  C   UNL     1      10.192  -1.575  23.736  0.00  0.00    +0.048 A 
ATOM      7  C   UNL     1       9.989  -0.300  24.254  0.00  0.00    +0.121 A 
ATOM      8  C   UNL     1       8.904  -0.058  25.104  0.00  0.00    +0.056 A 
ATOM      9  C   UNL     1       8.017  -1.104  25.445  0.00  0.00    +0.007 A 
ATOM     10  C   UNL     1       6.820  -1.170  26.233  0.00  0.00    -0.010 A 
ENDROOT
BRANCH   3  11
ATOM     11  C   UNL     1       7.402  -4.702  25.430  0.00  0.00    +0.157 C 
BRANCH  11  12
ATOM     12  C   UNL     1       6.905  -5.265  24.111  0.00  0.00    -0.028 A 
ATOM     13  C   UNL     1       5.511  -5.338  23.916  0.00  0.00    +0.005 A 
ATOM     14  C   UNL     1       4.969  -5.703  22.680  0.00  0.00    +0.000 A 
ATOM     15  C   UNL     1       5.812  -6.011  21.617  0.00  0.00    +0.000 A 
ATOM     16  C   UNL     1       7.192  -5.998  21.805  0.00  0.00    +0.000 A 
ATOM     17  C   UNL     1       7.736  -5.638  23.044  0.00  0.00    +0.005 A 
ENDBRANCH  11  12
ENDBRANCH   3  11
BRANCH   7  18
ATOM     18  O   UNL     1      10.793   0.786  24.019  0.00  0.00    -0.492 OA
BRANCH  18  19
ATOM     19  C   UNL     1      10.138   1.949  23.509  0.00  0.00    +0.229 C 
BRANCH  19  20
ATOM     20  C   UNL     1      10.073   1.853  21.989  0.00  0.00    +0.052 C 
BRANCH  20  21
ATOM     21  C   UNL     1       8.811   1.152  21.493  0.00  0.00    +0.124 C 
BRANCH  21  22
ATOM     22  C   UNL     1       7.572   1.890  21.959  0.00  0.00    +0.305 C 
ATOM     23  O   UNL     1       7.403   3.096  21.860  0.00  0.00    -0.251 OA
BRANCH  22  24
ATOM     24  O   UNL     1       6.666   1.081  22.549  0.00  0.00    -0.481 OA
ATOM     25  H   UNL     1       5.909   1.552  22.951  0.00  0.00    +0.295 HD
ENDBRANCH  22  24
ENDBRANCH  21  22
ENDBRANCH  20  21
ENDBRANCH  19  20
ENDBRANCH  18  19
ENDBRANCH   7  18
BRANCH  10  26
ATOM     26  C   UNL     1       6.177   0.001  26.934  0.00  0.00    +0.133 C 
BRANCH  26  27
ATOM     27  C   UNL     1       5.153   0.819  26.160  0.00  0.00    +0.215 C 
ATOM     28  O   UNL     1       3.944   0.675  26.344  0.00  0.00    -0.276 OA
ATOM     29  N   UNL     1       5.576   1.741  25.254  0.00  0.00    -0.329 N 
ATOM     30  H   UNL     1       4.871   2.309  24.808  0.00  0.00    +0.145 HD
ATOM     31  H   UNL     1       6.551   2.010  25.171  0.00  0.00    +0.145 HD
ENDBRANCH  26  27
ENDBRANCH  10  26
TORSDOF 10
ENDMDL
MODEL 6
REMARK VINA RESULT:      -6.2      3.262      5.674
REMARK  Name = 
REMARK  11 active torsions:
REMARK  status: ('A' for Active; 'I' for Inactive)
REMARK    1  A    between atoms: C_1  and  C_2
REMARK    2  A    between atoms: C_3  and  C_4
REMARK    3  A    between atoms: C_4  and  C_5
REMARK    4  A    between atoms: C_12  and  O_13
REMARK    5  A    between atoms: O_13  and  C_14
REMARK    6  A    between atoms: C_14  and  C_15
REMARK    7  A    between atoms: C_15  and  C_16
REMARK    8  A    between atoms: C_16  and  C_17
REMARK    9  A    between atoms: C_17  and  O_18
REMARK   10  A    between atoms: N_21  and  C_22
REMARK   11  A    between atoms: C_22  and  C_23
REMARK                            x       y       z     vdW  Elec       q    Type
REMARK                         _______ _______ _______ _____ _____    ______ ____
ROOT
ATOM      1  C   UNL     1       6.940   3.074  25.787  0.00  0.00    +0.064 C 
ATOM      2  C   UNL     1       7.607   1.814  25.347  0.00  0.00    +0.021 A 
ATOM      3  N   UNL     1       8.328   1.753  24.165  0.00  0.00    -0.339 N 
ATOM      4  C   UNL     1       8.881   0.493  24.015  0.00  0.00    +0.050 A 
ATOM      5  C   UNL     1       9.744  -0.026  23.036  0.00  0.00    +0.030 A 
ATOM      6  C   UNL     1      10.031  -1.395  23.060  0.00  0.00    +0.048 A 
ATOM      7  C   UNL     1       9.483  -2.226  24.033  0.00  0.00    +0.121 A 
ATOM      8  C   UNL     1       8.655  -1.686  25.025  0.00  0.00    +0.056 A 
ATOM      9  C   UNL     1       8.367  -0.303  25.038  0.00  0.00    +0.007 A 
ATOM     10  C   UNL     1       7.613   0.543  25.917  0.00  0.00    -0.010 A 
ENDROOT
BRANCH   3  11
ATOM     11  C   UNL     1       8.497   2.853  23.208  0.00  0.00    +0.157 C 
BRANCH  11  12
ATOM     12  C   UNL     1       9.631   3.821  23.496  0.00  0.00    -0.028 A 
ATOM     13  C   UNL     1      10.946   3.372  23.263  0.00  0.00    +0.005 A 
ATOM     14  C   UNL     1      12.037   4.242  23.360  0.00  0.00    +0.000 A 
ATOM     15  C   UNL     1      11.834   5.575  23.700  0.00  0.00    +0.000 A 
ATOM     16  C   UNL     1      10.547   6.025  23.986  0.00  0.00    +0.000 A 
ATOM     17  C   UNL     1       9.454   5.153  23.896  0.00  0.00    +0.005 A 
ENDBRANCH  11  12
ENDBRANCH   3  11
BRANCH   7  18
ATOM     18  O   UNL     1       9.667  -3.583  24.110  0.00  0.00    -0.492 OA
BRANCH  18  19
ATOM     19  C   UNL     1       8.541  -4.342  24.553  0.00  0.00    +0.229 C 
BRANCH  19  20
ATOM     20  C   UNL     1       7.674  -4.690  23.348  0.00  0.00    +0.052 C 
BRANCH  20  21
ATOM     21  C   UNL     1       6.259  -4.125  23.453  0.00  0.00    +0.124 C 
BRANCH  21  22
ATOM     22  C   UNL     1       5.962  -3.207  22.285  0.00  0.00    +0.305 C 
ATOM     23  O   UNL     1       5.691  -3.585  21.155  0.00  0.00    -0.251 OA
BRANCH  22  24
ATOM     24  O   UNL     1       6.068  -1.898  22.603  0.00  0.00    -0.481 OA
ATOM     25  H   UNL     1       5.560  -1.302  22.018  0.00  0.00    +0.295 HD
ENDBRANCH  22  24
ENDBRANCH  21  22
ENDBRANCH  20  21
ENDBRANCH  19  20
ENDBRANCH  18  19
ENDBRANCH   7  18
BRANCH  10  26
ATOM     26  C   UNL     1       6.896   0.082  27.162  0.00  0.00    +0.133 C 
BRANCH  26  27
ATOM     27  C   UNL     1       7.132   0.861  28.448  0.00  0.00    +0.215 C 
ATOM     28  O   UNL     1       6.266   1.598  28.921  0.00  0.00    -0.276 OA
ATOM     29  N   UNL     1       8.317   0.733  29.104  0.00  0.00    -0.329 N 
ATOM     30  H   UNL     1       8.412   1.214  29.987  0.00  0.00    +0.145 HD
ATOM     31  H   UNL     1       9.003   0.030  28.849  0.00  0.00    +0.145 HD
ENDBRANCH  26  27
ENDBRANCH  10  26
TORSDOF 10
ENDMDL
MODEL 7
REMARK VINA RESULT:      -6.2      2.364      4.194
REMARK  Name = 
REMARK  11 active torsions:
REMARK  status: ('A' for Active; 'I' for Inactive)
REMARK    1  A    between atoms: C_1  and  C_2
REMARK    2  A    between atoms: C_3  and  C_4
REMARK    3  A    between atoms: C_4  and  C_5
REMARK    4  A    between atoms: C_12  and  O_13
REMARK    5  A    between atoms: O_13  and  C_14
REMARK    6  A    between atoms: C_14  and  C_15
REMARK    7  A    between atoms: C_15  and  C_16
REMARK    8  A    between atoms: C_16  and  C_17
REMARK    9  A    between atoms: C_17  and  O_18
REMARK   10  A    between atoms: N_21  and  C_22
REMARK   11  A    between atoms: C_22  and  C_23
REMARK                            x       y       z     vdW  Elec       q    Type
REMARK                         _______ _______ _______ _____ _____    ______ ____
ROOT
ATOM      1  C   UNL     1       8.689  -0.966  26.751  0.00  0.00    +0.064 C 
ATOM      2  C   UNL     1       7.864  -1.826  25.854  0.00  0.00    +0.021 A 
ATOM      3  N   UNL     1       8.374  -2.335  24.671  0.00  0.00    -0.339 N 
ATOM      4  C   UNL     1       7.427  -3.134  24.054  0.00  0.00    +0.050 A 
ATOM      5  C   UNL     1       7.496  -3.920  22.893  0.00  0.00    +0.030 A 
ATOM      6  C   UNL     1       6.322  -4.519  22.422  0.00  0.00    +0.048 A 
ATOM      7  C   UNL     1       5.113  -4.350  23.091  0.00  0.00    +0.121 A 
ATOM      8  C   UNL     1       5.069  -3.595  24.269  0.00  0.00    +0.056 A 
ATOM      9  C   UNL     1       6.243  -2.997  24.779  0.00  0.00    +0.007 A 
ATOM     10  C   UNL     1       6.532  -2.223  25.952  0.00  0.00    -0.010 A 
ENDROOT
BRANCH   3  11
ATOM     11  C   UNL     1       9.718  -2.081  24.139  0.00  0.00    +0.157 C 
BRANCH  11  12
ATOM     12  C   UNL     1       9.908  -0.767  23.401  0.00  0.00    -0.028 A 
ATOM     13  C   UNL     1       9.365  -0.663  22.105  0.00  0.00    +0.005 A 
ATOM     14  C   UNL     1       9.364   0.554  21.415  0.00  0.00    +0.000 A 
ATOM     15  C   UNL     1       9.914   1.686  22.005  0.00  0.00    +0.000 A 
ATOM     16  C   UNL     1      10.505   1.590  23.263  0.00  0.00    +0.000 A 
ATOM     17  C   UNL     1      10.511   0.372  23.953  0.00  0.00    +0.005 A 
ENDBRANCH  11  12
ENDBRANCH   3  11
BRANCH   7  18
ATOM     18  O   UNL     1       3.906  -4.856  22.682  0.00  0.00    -0.492 OA
BRANCH  18  19
ATOM     19  C   UNL     1       3.171  -5.589  23.664  0.00  0.00    +0.229 C 
BRANCH  19  20
ATOM     20  C   UNL     1       4.020  -6.763  24.141  0.00  0.00    +0.052 C 
BRANCH  20  21
ATOM     21  C   UNL     1       3.688  -7.194  25.567  0.00  0.00    +0.124 C 
BRANCH  21  22
ATOM     22  C   UNL     1       4.842  -6.888  26.501  0.00  0.00    +0.305 C 
ATOM     23  O   UNL     1       5.894  -6.371  26.158  0.00  0.00    -0.251 OA
BRANCH  22  24
ATOM     24  O   UNL     1       4.614  -7.288  27.770  0.00  0.00    -0.481 OA
ATOM     25  H   UNL     1       5.409  -7.285  28.340  0.00  0.00    +0.295 HD
ENDBRANCH  22  24
ENDBRANCH  21  22
ENDBRANCH  20  21
ENDBRANCH  19  20
ENDBRANCH  18  19
ENDBRANCH   7  18
BRANCH  10  26
ATOM     26  C   UNL     1       5.528  -1.851  27.014  0.00  0.00    +0.133 C 
BRANCH  26  27
ATOM     27  C   UNL     1       4.888  -0.472  26.936  0.00  0.00    +0.215 C 
ATOM     28  O   UNL     1       4.608   0.045  25.853  0.00  0.00    -0.276 OA
ATOM     29  N   UNL     1       4.602   0.202  28.081  0.00  0.00    -0.329 N 
ATOM     30  H   UNL     1       4.119   1.085  27.992  0.00  0.00    +0.145 HD
ATOM     31  H   UNL     1       4.668  -0.233  28.996  0.00  0.00    +0.145 HD
ENDBRANCH  26  27
ENDBRANCH  10  26
TORSDOF 10
ENDMDL
MODEL 8
REMARK VINA RESULT:      -6.1      3.219      7.324
REMARK  Name = 
REMARK  11 active torsions:
REMARK  status: ('A' for Active; 'I' for Inactive)
REMARK    1  A    between atoms: C_1  and  C_2
REMARK    2  A    between atoms: C_3  and  C_4
REMARK    3  A    between atoms: C_4  and  C_5
REMARK    4  A    between atoms: C_12  and  O_13
REMARK    5  A    between atoms: O_13  and  C_14
REMARK    6  A    between atoms: C_14  and  C_15
REMARK    7  A    between atoms: C_15  and  C_16
REMARK    8  A    between atoms: C_16  and  C_17
REMARK    9  A    between atoms: C_17  and  O_18
REMARK   10  A    between atoms: N_21  and  C_22
REMARK   11  A    between atoms: C_22  and  C_23
REMARK                            x       y       z     vdW  Elec       q    Type
REMARK                         _______ _______ _______ _____ _____    ______ ____
ROOT
ATOM      1  C   UNL     1       9.309  -5.161  25.019  0.00  0.00    +0.064 C 
ATOM      2  C   UNL     1       8.699  -3.824  25.275  0.00  0.00    +0.021 A 
ATOM      3  N   UNL     1       7.631  -3.671  26.144  0.00  0.00    -0.339 N 
ATOM      4  C   UNL     1       7.289  -2.333  26.239  0.00  0.00    +0.050 A 
ATOM      5  C   UNL     1       6.339  -1.678  27.039  0.00  0.00    +0.030 A 
ATOM      6  C   UNL     1       6.109  -0.315  26.818  0.00  0.00    +0.048 A 
ATOM      7  C   UNL     1       6.808   0.381  25.836  0.00  0.00    +0.121 A 
ATOM      8  C   UNL     1       7.780  -0.279  25.074  0.00  0.00    +0.056 A 
ATOM      9  C   UNL     1       8.048  -1.649  25.290  0.00  0.00    +0.007 A 
ATOM     10  C   UNL     1       8.985  -2.576  24.725  0.00  0.00    -0.010 A 
ENDROOT
BRANCH   3  11
ATOM     11  C   UNL     1       6.956  -4.754  26.870  0.00  0.00    +0.157 C 
BRANCH  11  12
ATOM     12  C   UNL     1       5.839  -5.462  26.124  0.00  0.00    -0.028 A 
ATOM     13  C   UNL     1       5.664  -5.152  24.762  0.00  0.00    +0.005 A 
ATOM     14  C   UNL     1       4.760  -5.862  23.966  0.00  0.00    +0.000 A 
ATOM     15  C   UNL     1       4.007  -6.891  24.521  0.00  0.00    +0.000 A 
ATOM     16  C   UNL     1       4.126  -7.177  25.879  0.00  0.00    +0.000 A 
ATOM     17  C   UNL     1       5.026  -6.462  26.678  0.00  0.00    +0.005 A 
ENDBRANCH  11  12
ENDBRANCH   3  11
BRANCH   7  18
ATOM     18  O   UNL     1       6.619   1.700  25.515  0.00  0.00    -0.492 OA
BRANCH  18  19
ATOM     19  C   UNL     1       7.286   2.159  24.338  0.00  0.00    +0.229 C 
BRANCH  19  20
ATOM     20  C   UNL     1       8.463   3.037  24.747  0.00  0.00    +0.052 C 
BRANCH  20  21
ATOM     21  C   UNL     1       9.351   3.426  23.567  0.00  0.00    +0.124 C 
BRANCH  21  22
ATOM     22  C   UNL     1      10.049   2.207  22.999  0.00  0.00    +0.305 C 
ATOM     23  O   UNL     1      10.617   1.357  23.668  0.00  0.00    -0.251 OA
BRANCH  22  24
ATOM     24  O   UNL     1      10.021   2.164  21.649  0.00  0.00    -0.481 OA
ATOM     25  H   UNL     1      10.777   1.689  21.249  0.00  0.00    +0.295 HD
ENDBRANCH  22  24
ENDBRANCH  21  22
ENDBRANCH  20  21
ENDBRANCH  19  20
ENDBRANCH  18  19
ENDBRANCH   7  18
BRANCH  10  26
ATOM     26  C   UNL     1      10.005  -2.241  23.665  0.00  0.00    +0.133 C 
BRANCH  26  27
ATOM     27  C   UNL     1       9.494  -1.819  22.295  0.00  0.00    +0.215 C 
ATOM     28  O   UNL     1       8.415  -2.224  21.859  0.00  0.00    -0.276 OA
ATOM     29  N   UNL     1      10.230  -0.963  21.537  0.00  0.00    -0.329 N 
ATOM     30  H   UNL     1       9.829  -0.654  20.663  0.00  0.00    +0.145 HD
ATOM     31  H   UNL     1      11.044  -0.480  21.903  0.00  0.00    +0.145 HD
ENDBRANCH  26  27
ENDBRANCH  10  26
TORSDOF 10
ENDMDL
MODEL 9
REMARK VINA RESULT:      -6.0      4.774      9.040
REMARK  Name = 
REMARK  11 active torsions:
REMARK  status: ('A' for Active; 'I' for Inactive)
REMARK    1  A    between atoms: C_1  and  C_2
REMARK    2  A    between atoms: C_3  and  C_4
REMARK    3  A    between atoms: C_4  and  C_5
REMARK    4  A    between atoms: C_12  and  O_13
REMARK    5  A    between atoms: O_13  and  C_14
REMARK    6  A    between atoms: C_14  and  C_15
REMARK    7  A    between atoms: C_15  and  C_16
REMARK    8  A    between atoms: C_16  and  C_17
REMARK    9  A    between atoms: C_17  and  O_18
REMARK   10  A    between atoms: N_21  and  C_22
REMARK   11  A    between atoms: C_22  and  C_23
REMARK                            x       y       z     vdW  Elec       q    Type
REMARK                         _______ _______ _______ _____ _____    ______ ____
ROOT
ATOM      1  C   UNL     1       5.135  -1.256  25.647  0.00  0.00    +0.064 C 
ATOM      2  C   UNL     1       6.425  -0.669  25.183  0.00  0.00    +0.021 A 
ATOM      3  N   UNL     1       7.504  -1.470  24.845  0.00  0.00    -0.339 N 
ATOM      4  C   UNL     1       8.555  -0.685  24.404  0.00  0.00    +0.050 A 
ATOM      5  C   UNL     1       9.813  -1.031  23.886  0.00  0.00    +0.030 A 
ATOM      6  C   UNL     1      10.741  -0.010  23.652  0.00  0.00    +0.048 A 
ATOM      7  C   UNL     1      10.426   1.320  23.916  0.00  0.00    +0.121 A 
ATOM      8  C   UNL     1       9.154   1.652  24.396  0.00  0.00    +0.056 A 
ATOM      9  C   UNL     1       8.190   0.644  24.621  0.00  0.00    +0.007 A 
ATOM     10  C   UNL     1       6.822   0.660  25.052  0.00  0.00    -0.010 A 
ENDROOT
BRANCH   3  11
ATOM     11  C   UNL     1       7.541  -2.935  24.929  0.00  0.00    +0.157 C 
BRANCH  11  12
ATOM     12  C   UNL     1       7.236  -3.686  23.644  0.00  0.00    -0.028 A 
ATOM     13  C   UNL     1       7.737  -4.996  23.519  0.00  0.00    +0.005 A 
ATOM     14  C   UNL     1       7.380  -5.809  22.439  0.00  0.00    +0.000 A 
ATOM     15  C   UNL     1       6.522  -5.323  21.458  0.00  0.00    +0.000 A 
ATOM     16  C   UNL     1       6.060  -4.011  21.536  0.00  0.00    +0.000 A 
ATOM     17  C   UNL     1       6.421  -3.194  22.614  0.00  0.00    +0.005 A 
ENDBRANCH  11  12
ENDBRANCH   3  11
BRANCH   7  18
ATOM     18  O   UNL     1      11.282   2.380  23.764  0.00  0.00    -0.492 OA
BRANCH  18  19
ATOM     19  C   UNL     1      10.689   3.604  23.327  0.00  0.00    +0.229 C 
BRANCH  19  20
ATOM     20  C   UNL     1      11.389   4.767  24.020  0.00  0.00    +0.052 C 
BRANCH  20  21
ATOM     21  C   UNL     1      11.884   5.830  23.042  0.00  0.00    +0.124 C 
BRANCH  21  22
ATOM     22  C   UNL     1      13.246   5.455  22.491  0.00  0.00    +0.305 C 
ATOM     23  O   UNL     1      13.593   5.614  21.330  0.00  0.00    -0.251 OA
BRANCH  22  24
ATOM     24  O   UNL     1      14.047   4.877  23.412  0.00  0.00    -0.481 OA
ATOM     25  H   UNL     1      13.602   4.201  23.961  0.00  0.00    +0.295 HD
ENDBRANCH  22  24
ENDBRANCH  21  22
ENDBRANCH  20  21
ENDBRANCH  19  20
ENDBRANCH  18  19
ENDBRANCH   7  18
BRANCH  10  26
ATOM     26  C   UNL     1       6.032   1.901  25.385  0.00  0.00    +0.133 C 
BRANCH  26  27
ATOM     27  C   UNL     1       4.994   2.375  24.376  0.00  0.00    +0.215 C 
ATOM     28  O   UNL     1       3.788   2.237  24.584  0.00  0.00    -0.276 OA
ATOM     29  N   UNL     1       5.400   2.978  23.228  0.00  0.00    -0.329 N 
ATOM     30  H   UNL     1       4.683   3.337  22.614  0.00  0.00    +0.145 HD
ATOM     31  H   UNL     1       6.364   3.255  23.074  0.00  0.00    +0.145 HD
ENDBRANCH  26  27
ENDBRANCH  10  26
TORSDOF 10
ENDMDL
