MODEL 1
REMARK VINA RESULT:      -4.8      0.000      0.000
REMARK  Name = 
REMARK  5 active torsions:
REMARK  status: ('A' for Active; 'I' for Inactive)
REMARK    1  A    between atoms: C_1  and  C_2
REMARK    2  A    between atoms: C_2  and  C_3
REMARK    3  A    between atoms: C_3  and  C_4
REMARK    4  A    between atoms: C_4  and  C_5
REMARK    5  A    between atoms: C_10  and  C_11
REMARK                            x       y       z     vdW  Elec       q    Type
REMARK                         _______ _______ _______ _____ _____    ______ ____
ROOT
ATOM      1  C   UNL     1       8.451  -1.692  23.233  0.00  0.00    +0.105 C 
ATOM      2  C   UNL     1       8.417  -3.219  23.379  0.00  0.00    +0.152 C 
ATOM      3  O   UNL     1       9.245  -3.833  24.056  0.00  0.00    -0.296 OA
ATOM      4  C   UNL     1       7.378  -3.952  22.544  0.00  0.00    +0.070 C 
ATOM      5  C   UNL     1       7.372  -5.455  22.796  0.00  0.00    +0.017 C 
ATOM      6  C   UNL     1       6.031  -3.339  22.879  0.00  0.00    +0.115 C 
ATOM      7  N   UNL     1       6.028  -1.899  22.748  0.00  0.00    -0.314 N 
ATOM      8  H   UNL     1       5.128  -1.429  22.782  0.00  0.00    +0.149 HD
ATOM      9  C   UNL     1       7.037  -1.104  23.229  0.00  0.00    +0.226 C 
ATOM     10  O   UNL     1       6.787   0.067  23.501  0.00  0.00    -0.275 OA
ENDROOT
BRANCH   1  12
ATOM     11  C   UNL     1       9.761  -0.008  21.734  0.00  0.00    +0.005 C 
ATOM     12  C   UNL     1       9.048  -1.354  21.832  0.00  0.00    +0.020 C 
ENDBRANCH   1  12
BRANCH   1  13
ATOM     13  C   UNL     1       9.305  -1.013  24.336  0.00  0.00    +0.020 C 
ATOM     14  C   UNL     1       8.769  -1.141  25.759  0.00  0.00    +0.005 C 
ENDBRANCH   1  13
TORSDOF 2
ENDMDL
MODEL 2
REMARK VINA RESULT:      -4.7      1.731      4.030
REMARK  Name = 
REMARK  5 active torsions:
REMARK  status: ('A' for Active; 'I' for Inactive)
REMARK    1  A    between atoms: C_1  and  C_2
REMARK    2  A    between atoms: C_2  and  C_3
REMARK    3  A    between atoms: C_3  and  C_4
REMARK    4  A    between atoms: C_4  and  C_5
REMARK    5  A    between atoms: C_10  and  C_11
REMARK                            x       y       z     vdW  Elec       q    Type
REMARK                         _______ _______ _______ _____ _____    ______ ____
ROOT
ATOM      1  C   UNL     1       8.140  -1.913  23.473  0.00  0.00    +0.105 C 
ATOM      2  C   UNL     1       7.927  -0.439  23.106  0.00  0.00    +0.152 C 
ATOM      3  O   UNL     1       7.082   0.262  23.666  0.00  0.00    -0.296 OA
ATOM      4  C   UNL     1       8.732   0.083  21.925  0.00  0.00    +0.070 C 
ATOM      5  C   UNL     1       8.507   1.569  21.669  0.00  0.00    +0.017 C 
ATOM      6  C   UNL     1      10.192  -0.202  22.227  0.00  0.00    +0.115 C 
ATOM      7  N   UNL     1      10.427  -1.585  22.574  0.00  0.00    -0.314 N 
ATOM      8  H   UNL     1      11.393  -1.897  22.617  0.00  0.00    +0.149 HD
ATOM      9  C   UNL     1       9.625  -2.284  23.439  0.00  0.00    +0.226 C 
ATOM     10  O   UNL     1      10.099  -3.247  24.036  0.00  0.00    -0.275 OA
ENDROOT
BRANCH   1  12
ATOM     11  C   UNL     1       5.941  -2.827  22.411  0.00  0.00    +0.005 C 
ATOM     12  C   UNL     1       7.466  -2.788  22.371  0.00  0.00    +0.020 C 
ENDBRANCH   1  12
BRANCH   1  13
ATOM     13  C   UNL     1       7.535  -2.270  24.856  0.00  0.00    +0.020 C 
ATOM     14  C   UNL     1       8.229  -1.642  26.062  0.00  0.00    +0.005 C 
ENDBRANCH   1  13
TORSDOF 2
ENDMDL
MODEL 3
REMARK VINA RESULT:      -4.7      1.826      4.190
REMARK  Name = 
REMARK  5 active torsions:
REMARK  status: ('A' for Active; 'I' for Inactive)
REMARK    1  A    between atoms: C_1  and  C_2
REMARK    2  A    between atoms: C_2  and  C_3
REMARK    3  A    between atoms: C_3  and  C_4
REMARK    4  A    between atoms: C_4  and  C_5
REMARK    5  A    between atoms: C_10  and  C_11
REMARK                            x       y       z     vdW  Elec       q    Type
REMARK                         _______ _______ _______ _____ _____    ______ ____
ROOT
ATOM      1  C   UNL     1       6.686  -4.189  23.711  0.00  0.00    +0.105 C 
ATOM      2  C   UNL     1       8.068  -3.562  23.935  0.00  0.00    +0.152 C 
ATOM      3  O   UNL     1       9.095  -4.240  23.997  0.00  0.00    -0.296 OA
ATOM      4  C   UNL     1       8.091  -2.064  24.200  0.00  0.00    +0.070 C 
ATOM      5  C   UNL     1       9.505  -1.514  24.349  0.00  0.00    +0.017 C 
ATOM      6  C   UNL     1       7.368  -1.400  23.042  0.00  0.00    +0.115 C 
ATOM      7  N   UNL     1       6.060  -1.967  22.806  0.00  0.00    -0.314 N 
ATOM      8  H   UNL     1       5.443  -1.469  22.170  0.00  0.00    +0.149 HD
ATOM      9  C   UNL     1       5.824  -3.318  22.792  0.00  0.00    +0.226 C 
ATOM     10  O   UNL     1       4.860  -3.743  22.161  0.00  0.00    -0.275 OA
ENDROOT
BRANCH   1  12
ATOM     11  C   UNL     1       6.342  -5.354  26.018  0.00  0.00    +0.005 C 
ATOM     12  C   UNL     1       5.940  -4.219  25.080  0.00  0.00    +0.020 C 
ENDBRANCH   1  12
BRANCH   1  13
ATOM     13  C   UNL     1       6.778  -5.630  23.142  0.00  0.00    +0.020 C 
ATOM     14  C   UNL     1       7.204  -5.737  21.680  0.00  0.00    +0.005 C 
ENDBRANCH   1  13
TORSDOF 2
ENDMDL
MODEL 4
REMARK VINA RESULT:      -4.6      2.580      4.445
REMARK  Name = 
REMARK  5 active torsions:
REMARK  status: ('A' for Active; 'I' for Inactive)
REMARK    1  A    between atoms: C_1  and  C_2
REMARK    2  A    between atoms: C_2  and  C_3
REMARK    3  A    between atoms: C_3  and  C_4
REMARK    4  A    between atoms: C_4  and  C_5
REMARK    5  A    between atoms: C_10  and  C_11
REMARK                            x       y       z     vdW  Elec       q    Type
REMARK                         _______ _______ _______ _____ _____    ______ ____
ROOT
ATOM      1  C   UNL     1       8.719  -1.185  24.358  0.00  0.00    +0.105 C 
ATOM      2  C   UNL     1       8.784  -0.183  23.198  0.00  0.00    +0.152 C 
ATOM      3  O   UNL     1       7.908  -0.120  22.333  0.00  0.00    -0.296 OA
ATOM      4  C   UNL     1      10.052   0.653  23.102  0.00  0.00    +0.070 C 
ATOM      5  C   UNL     1      10.007   1.663  21.962  0.00  0.00    +0.017 C 
ATOM      6  C   UNL     1      10.224   1.349  24.440  0.00  0.00    +0.115 C 
ATOM      7  N   UNL     1      10.170   0.431  25.555  0.00  0.00    -0.314 N 
ATOM      8  H   UNL     1      10.450   0.785  26.465  0.00  0.00    +0.149 HD
ATOM      9  C   UNL     1       9.228  -0.561  25.660  0.00  0.00    +0.226 C 
ATOM     10  O   UNL     1       8.942  -0.987  26.776  0.00  0.00    -0.275 OA
ENDROOT
BRANCH   1  12
ATOM     11  C   UNL     1       9.295  -3.717  24.594  0.00  0.00    +0.005 C 
ATOM     12  C   UNL     1       9.702  -2.354  24.042  0.00  0.00    +0.020 C 
ENDBRANCH   1  12
BRANCH   1  13
ATOM     13  C   UNL     1       7.290  -1.754  24.566  0.00  0.00    +0.020 C 
ATOM     14  C   UNL     1       6.224  -0.736  24.959  0.00  0.00    +0.005 C 
ENDBRANCH   1  13
TORSDOF 2
ENDMDL
MODEL 5
REMARK VINA RESULT:      -4.6      3.207      4.581
REMARK  Name = 
REMARK  5 active torsions:
REMARK  status: ('A' for Active; 'I' for Inactive)
REMARK    1  A    between atoms: C_1  and  C_2
REMARK    2  A    between atoms: C_2  and  C_3
REMARK    3  A    between atoms: C_3  and  C_4
REMARK    4  A    between atoms: C_4  and  C_5
REMARK    5  A    between atoms: C_10  and  C_11
REMARK                            x       y       z     vdW  Elec       q    Type
REMARK                         _______ _______ _______ _____ _____    ______ ____
ROOT
ATOM      1  C   UNL     1       7.906  -3.979  24.747  0.00  0.00    +0.105 C 
ATOM      2  C   UNL     1       6.571  -3.805  25.483  0.00  0.00    +0.152 C 
ATOM      3  O   UNL     1       5.546  -3.435  24.907  0.00  0.00    -0.296 OA
ATOM      4  C   UNL     1       6.606  -3.994  26.993  0.00  0.00    +0.070 C 
ATOM      5  C   UNL     1       5.230  -3.864  27.635  0.00  0.00    +0.017 C 
ATOM      6  C   UNL     1       7.200  -5.367  27.251  0.00  0.00    +0.115 C 
ATOM      7  N   UNL     1       8.461  -5.563  26.573  0.00  0.00    -0.314 N 
ATOM      8  H   UNL     1       9.008  -6.380  26.831  0.00  0.00    +0.149 HD
ATOM      9  C   UNL     1       8.670  -5.201  25.266  0.00  0.00    +0.226 C 
ATOM     10  O   UNL     1       9.544  -5.778  24.626  0.00  0.00    -0.275 OA
ENDROOT
BRANCH   1  12
ATOM     11  C   UNL     1       9.738  -2.300  23.958  0.00  0.00    +0.005 C 
ATOM     12  C   UNL     1       8.806  -2.750  25.080  0.00  0.00    +0.020 C 
ENDBRANCH   1  12
BRANCH   1  13
ATOM     13  C   UNL     1       7.721  -4.083  23.210  0.00  0.00    +0.020 C 
ATOM     14  C   UNL     1       7.118  -5.390  22.703  0.00  0.00    +0.005 C 
ENDBRANCH   1  13
TORSDOF 2
ENDMDL
MODEL 6
REMARK VINA RESULT:      -4.5      2.030      4.314
REMARK  Name = 
REMARK  5 active torsions:
REMARK  status: ('A' for Active; 'I' for Inactive)
REMARK    1  A    between atoms: C_1  and  C_2
REMARK    2  A    between atoms: C_2  and  C_3
REMARK    3  A    between atoms: C_3  and  C_4
REMARK    4  A    between atoms: C_4  and  C_5
REMARK    5  A    between atoms: C_10  and  C_11
REMARK                            x       y       z     vdW  Elec       q    Type
REMARK                         _______ _______ _______ _____ _____    ______ ____
ROOT
ATOM      1  C   UNL     1       7.060  -4.407  23.573  0.00  0.00    +0.105 C 
ATOM      2  C   UNL     1       7.276  -3.049  22.891  0.00  0.00    +0.152 C 
ATOM      3  O   UNL     1       6.339  -2.370  22.468  0.00  0.00    -0.296 OA
ATOM      4  C   UNL     1       8.722  -2.640  22.652  0.00  0.00    +0.070 C 
ATOM      5  C   UNL     1       8.847  -1.254  22.028  0.00  0.00    +0.017 C 
ATOM      6  C   UNL     1       9.424  -2.696  23.997  0.00  0.00    +0.115 C 
ATOM      7  N   UNL     1       9.242  -3.964  24.665  0.00  0.00    -0.314 N 
ATOM      8  H   UNL     1       9.818  -4.149  25.482  0.00  0.00    +0.149 HD
ATOM      9  C   UNL     1       8.028  -4.599  24.743  0.00  0.00    +0.226 C 
ATOM     10  O   UNL     1       7.832  -5.387  25.665  0.00  0.00    -0.275 OA
ENDROOT
BRANCH   1  12
ATOM     11  C   UNL     1       6.392  -5.746  21.438  0.00  0.00    +0.005 C 
ATOM     12  C   UNL     1       7.417  -5.526  22.547  0.00  0.00    +0.020 C 
ENDBRANCH   1  12
BRANCH   1  13
ATOM     13  C   UNL     1       5.598  -4.597  24.057  0.00  0.00    +0.020 C 
ATOM     14  C   UNL     1       5.131  -3.631  25.141  0.00  0.00    +0.005 C 
ENDBRANCH   1  13
TORSDOF 2
ENDMDL
MODEL 7
REMARK VINA RESULT:      -4.4      3.500      4.635
REMARK  Name = 
REMARK  5 active torsions:
REMARK  status: ('A' for Active; 'I' for Inactive)
REMARK    1  A    between atoms: C_1  and  C_2
REMARK    2  A    between atoms: C_2  and  C_3
REMARK    3  A    between atoms: C_3  and  C_4
REMARK    4  A    between atoms: C_4  and  C_5
REMARK    5  A    between atoms: C_10  and  C_11
REMARK                            x       y       z     vdW  Elec       q    Type
REMARK                         _______ _______ _______ _____ _____    ______ ____
ROOT
ATOM      1  C   UNL     1       9.080   1.485  23.856  0.00  0.00    +0.105 C 
ATOM      2  C   UNL     1       7.687   0.848  23.943  0.00  0.00    +0.152 C 
ATOM      3  O   UNL     1       6.932   0.781  22.970  0.00  0.00    -0.296 OA
ATOM      4  C   UNL     1       7.233   0.411  25.328  0.00  0.00    +0.070 C 
ATOM      5  C   UNL     1       5.867  -0.266  25.314  0.00  0.00    +0.017 C 
ATOM      6  C   UNL     1       8.299  -0.525  25.866  0.00  0.00    +0.115 C 
ATOM      7  N   UNL     1       9.625   0.046  25.801  0.00  0.00    -0.314 N 
ATOM      8  H   UNL     1      10.367  -0.437  26.298  0.00  0.00    +0.149 HD
ATOM      9  C   UNL     1      10.098   0.710  24.697  0.00  0.00    +0.226 C 
ATOM     10  O   UNL     1      11.311   0.762  24.514  0.00  0.00    -0.275 OA
ENDROOT
BRANCH   1  12
ATOM     11  C   UNL     1       9.787   3.993  23.768  0.00  0.00    +0.005 C 
ATOM     12  C   UNL     1       9.003   2.905  24.496  0.00  0.00    +0.020 C 
ENDBRANCH   1  12
BRANCH   1  13
ATOM     13  C   UNL     1       9.582   1.605  22.393  0.00  0.00    +0.020 C 
ATOM     14  C   UNL     1       9.710   0.291  21.628  0.00  0.00    +0.005 C 
ENDBRANCH   1  13
TORSDOF 2
ENDMDL
MODEL 8
REMARK VINA RESULT:      -4.4      1.743      3.460
REMARK  Name = 
REMARK  5 active torsions:
REMARK  status: ('A' for Active; 'I' for Inactive)
REMARK    1  A    between atoms: C_1  and  C_2
REMARK    2  A    between atoms: C_2  and  C_3
REMARK    3  A    between atoms: C_3  and  C_4
REMARK    4  A    between atoms: C_4  and  C_5
REMARK    5  A    between atoms: C_10  and  C_11
REMARK                            x       y       z     vdW  Elec       q    Type
REMARK                         _______ _______ _______ _____ _____    ______ ____
ROOT
ATOM      1  C   UNL     1       8.550  -2.682  24.532  0.00  0.00    +0.105 C 
ATOM      2  C   UNL     1       7.304  -2.528  23.649  0.00  0.00    +0.152 C 
ATOM      3  O   UNL     1       7.085  -1.508  22.993  0.00  0.00    -0.296 OA
ATOM      4  C   UNL     1       6.286  -3.657  23.721  0.00  0.00    +0.070 C 
ATOM      5  C   UNL     1       5.113  -3.453  22.769  0.00  0.00    +0.017 C 
ATOM      6  C   UNL     1       7.029  -4.941  23.402  0.00  0.00    +0.115 C 
ATOM      7  N   UNL     1       8.208  -5.118  24.219  0.00  0.00    -0.314 N 
ATOM      8  H   UNL     1       8.660  -6.028  24.195  0.00  0.00    +0.149 HD
ATOM      9  C   UNL     1       9.103  -4.108  24.466  0.00  0.00    +0.226 C 
ATOM     10  O   UNL     1      10.260  -4.403  24.752  0.00  0.00    -0.275 OA
ENDROOT
BRANCH   1  12
ATOM     11  C   UNL     1       8.607  -1.171  26.656  0.00  0.00    +0.005 C 
ATOM     12  C   UNL     1       8.120  -2.468  26.015  0.00  0.00    +0.020 C 
ENDBRANCH   1  12
BRANCH   1  13
ATOM     13  C   UNL     1       9.662  -1.665  24.164  0.00  0.00    +0.020 C 
ATOM     14  C   UNL     1      10.199  -1.759  22.739  0.00  0.00    +0.005 C 
ENDBRANCH   1  13
TORSDOF 2
ENDMDL
MODEL 9
REMARK VINA RESULT:      -4.4      1.872      2.310
REMARK  Name = 
REMARK  5 active torsions:
REMARK  status: ('A' for Active; 'I' for Inactive)
REMARK    1  A    between atoms: C_1  and  C_2
REMARK    2  A    between atoms: C_2  and  C_3
REMARK    3  A    between atoms: C_3  and  C_4
REMARK    4  A    between atoms: C_4  and  C_5
REMARK    5  A    between atoms: C_10  and  C_11
REMARK                            x       y       z     vdW  Elec       q    Type
REMARK                         _______ _______ _______ _____ _____    ______ ____
ROOT
ATOM      1  C   UNL     1       7.799  -3.454  24.067  0.00  0.00    +0.105 C 
ATOM      2  C   UNL     1       7.565  -4.661  23.148  0.00  0.00    +0.152 C 
ATOM      3  O   UNL     1       8.247  -5.684  23.220  0.00  0.00    -0.296 OA
ATOM      4  C   UNL     1       6.521  -4.481  22.055  0.00  0.00    +0.070 C 
ATOM      5  C   UNL     1       6.308  -5.744  21.230  0.00  0.00    +0.017 C 
ATOM      6  C   UNL     1       5.235  -4.055  22.740  0.00  0.00    +0.115 C 
ATOM      7  N   UNL     1       5.421  -2.917  23.613  0.00  0.00    -0.314 N 
ATOM      8  H   UNL     1       4.586  -2.462  23.970  0.00  0.00    +0.149 HD
ATOM      9  C   UNL     1       6.474  -2.811  24.485  0.00  0.00    +0.226 C 
ATOM     10  O   UNL     1       6.347  -2.101  25.479  0.00  0.00    -0.275 OA
ENDROOT
BRANCH   1  12
ATOM     11  C   UNL     1      10.034  -2.199  23.587  0.00  0.00    +0.005 C 
ATOM     12  C   UNL     1       8.554  -2.363  23.249  0.00  0.00    +0.020 C 
ENDBRANCH   1  12
BRANCH   1  13
ATOM     13  C   UNL     1       8.629  -3.824  25.324  0.00  0.00    +0.020 C 
ATOM     14  C   UNL     1       7.971  -4.811  26.284  0.00  0.00    +0.005 C 
ENDBRANCH   1  13
TORSDOF 2
ENDMDL
