MODEL 1
REMARK VINA RESULT:      -5.1      0.000      0.000
REMARK  Name = 
REMARK  5 active torsions:
REMARK  status: ('A' for Active; 'I' for Inactive)
REMARK    1  A    between atoms: O_1  and  C_2
REMARK    2  A    between atoms: C_2  and  C_3
REMARK    3  A    between atoms: C_5  and  O_7
REMARK    4  A    between atoms: C_8  and  O_10
REMARK    5  A    between atoms: C_11  and  O_13
REMARK                            x       y       z     vdW  Elec       q    Type
REMARK                         _______ _______ _______ _____ _____    ______ ____
ROOT
ATOM      1  C   UNL     1       8.313  -4.701  24.064  0.00  0.00    +0.167 C 
ATOM      2  N   UNL     1       7.024  -5.181  24.520  0.00  0.00    -0.219 N 
ATOM      3  C   UNL     1       6.588  -5.275  25.809  0.00  0.00    +0.183 A 
ATOM      4  N   UNL     1       5.362  -5.755  25.780  0.00  0.00    -0.111 NA
ATOM      5  N   UNL     1       5.064  -5.962  24.451  0.00  0.00    -0.023 NA
ATOM      6  C   UNL     1       7.439  -4.885  26.964  0.00  0.00    +0.214 C 
ATOM      7  C   UNL     1       8.667  -4.049  26.520  0.00  0.00    +0.181 C 
ATOM      8  N   UNL     1       6.080  -5.612  23.673  0.00  0.00    -0.043 NA
ATOM      9  C   UNL     1       9.309  -4.648  25.247  0.00  0.00    +0.173 C 
ENDROOT
BRANCH   6  10
ATOM     10  O   UNL     1       7.872  -6.090  27.603  0.00  0.00    -0.381 OA
ATOM     11  H   UNL     1       7.168  -6.354  28.229  0.00  0.00    +0.210 HD
ENDBRANCH   6  10
BRANCH   7  12
ATOM     12  O   UNL     1       8.300  -2.687  26.297  0.00  0.00    -0.386 OA
ATOM     13  H   UNL     1       7.353  -2.669  26.067  0.00  0.00    +0.210 HD
ENDBRANCH   7  12
BRANCH   9  14
ATOM     14  O   UNL     1       9.770  -5.977  25.559  0.00  0.00    -0.387 OA
ATOM     15  H   UNL     1       9.231  -6.607  25.042  0.00  0.00    +0.210 HD
ENDBRANCH   9  14
BRANCH   1  16
ATOM     16  C   UNL     1       8.155  -3.360  23.338  0.00  0.00    +0.185 C 
BRANCH  16  17
ATOM     17  O   UNL     1       6.910  -2.756  23.688  0.00  0.00    -0.393 OA
ATOM     18  H   UNL     1       6.468  -3.360  24.313  0.00  0.00    +0.209 HD
ENDBRANCH  16  17
ENDBRANCH   1  16
TORSDOF 5
ENDMDL
MODEL 2
REMARK VINA RESULT:      -5.0      1.738      3.355
REMARK  Name = 
REMARK  5 active torsions:
REMARK  status: ('A' for Active; 'I' for Inactive)
REMARK    1  A    between atoms: O_1  and  C_2
REMARK    2  A    between atoms: C_2  and  C_3
REMARK    3  A    between atoms: C_5  and  O_7
REMARK    4  A    between atoms: C_8  and  O_10
REMARK    5  A    between atoms: C_11  and  O_13
REMARK                            x       y       z     vdW  Elec       q    Type
REMARK                         _______ _______ _______ _____ _____    ______ ____
ROOT
ATOM      1  C   UNL     1       8.454  -4.249  25.761  0.00  0.00    +0.167 C 
ATOM      2  N   UNL     1       7.462  -5.145  26.318  0.00  0.00    -0.219 N 
ATOM      3  C   UNL     1       6.350  -5.633  25.696  0.00  0.00    +0.183 A 
ATOM      4  N   UNL     1       5.725  -6.414  26.552  0.00  0.00    -0.111 NA
ATOM      5  N   UNL     1       6.470  -6.383  27.711  0.00  0.00    -0.023 NA
ATOM      6  C   UNL     1       6.000  -5.269  24.297  0.00  0.00    +0.214 C 
ATOM      7  C   UNL     1       7.192  -4.610  23.557  0.00  0.00    +0.181 C 
ATOM      8  N   UNL     1       7.537  -5.607  27.573  0.00  0.00    -0.043 NA
ATOM      9  C   UNL     1       7.911  -3.590  24.470  0.00  0.00    +0.173 C 
ENDROOT
BRANCH   6  10
ATOM     10  O   UNL     1       4.896  -4.360  24.355  0.00  0.00    -0.381 OA
ATOM     11  H   UNL     1       5.267  -3.460  24.463  0.00  0.00    +0.210 HD
ENDBRANCH   6  10
BRANCH   7  12
ATOM     12  O   UNL     1       8.112  -5.600  23.096  0.00  0.00    -0.386 OA
ATOM     13  H   UNL     1       8.256  -6.233  23.824  0.00  0.00    +0.210 HD
ENDBRANCH   7  12
BRANCH   9  14
ATOM     14  O   UNL     1       6.972  -2.550  24.808  0.00  0.00    -0.387 OA
ATOM     15  H   UNL     1       6.841  -2.572  25.776  0.00  0.00    +0.210 HD
ENDBRANCH   9  14
BRANCH   1  16
ATOM     16  C   UNL     1       9.783  -4.985  25.559  0.00  0.00    +0.185 C 
BRANCH  16  17
ATOM     17  O   UNL     1       9.567  -6.396  25.552  0.00  0.00    -0.393 OA
ATOM     18  H   UNL     1       8.743  -6.553  25.053  0.00  0.00    +0.209 HD
ENDBRANCH  16  17
ENDBRANCH   1  16
TORSDOF 5
ENDMDL
MODEL 3
REMARK VINA RESULT:      -5.0      1.743      2.492
REMARK  Name = 
REMARK  5 active torsions:
REMARK  status: ('A' for Active; 'I' for Inactive)
REMARK    1  A    between atoms: O_1  and  C_2
REMARK    2  A    between atoms: C_2  and  C_3
REMARK    3  A    between atoms: C_5  and  O_7
REMARK    4  A    between atoms: C_8  and  O_10
REMARK    5  A    between atoms: C_11  and  O_13
REMARK                            x       y       z     vdW  Elec       q    Type
REMARK                         _______ _______ _______ _____ _____    ______ ____
ROOT
ATOM      1  C   UNL     1       6.359  -5.148  24.209  0.00  0.00    +0.167 C 
ATOM      2  N   UNL     1       6.683  -5.518  25.572  0.00  0.00    -0.219 N 
ATOM      3  C   UNL     1       7.859  -5.301  26.228  0.00  0.00    +0.183 A 
ATOM      4  N   UNL     1       7.731  -5.787  27.446  0.00  0.00    -0.111 NA
ATOM      5  N   UNL     1       6.459  -6.314  27.514  0.00  0.00    -0.023 NA
ATOM      6  C   UNL     1       9.018  -4.633  25.579  0.00  0.00    +0.214 C 
ATOM      7  C   UNL     1       8.610  -3.916  24.266  0.00  0.00    +0.181 C 
ATOM      8  N   UNL     1       5.812  -6.152  26.368  0.00  0.00    -0.043 NA
ATOM      9  C   UNL     1       7.652  -4.799  23.432  0.00  0.00    +0.173 C 
ENDROOT
BRANCH   6  10
ATOM     10  O   UNL     1       9.993  -5.642  25.303  0.00  0.00    -0.381 OA
ATOM     11  H   UNL     1      10.819  -5.184  25.043  0.00  0.00    +0.210 HD
ENDBRANCH   6  10
BRANCH   7  12
ATOM     12  O   UNL     1       8.005  -2.653  24.545  0.00  0.00    -0.386 OA
ATOM     13  H   UNL     1       7.741  -2.256  23.694  0.00  0.00    +0.210 HD
ENDBRANCH   7  12
BRANCH   9  14
ATOM     14  O   UNL     1       8.351  -6.007  23.076  0.00  0.00    -0.387 OA
ATOM     15  H   UNL     1       8.796  -5.851  22.220  0.00  0.00    +0.210 HD
ENDBRANCH   9  14
BRANCH   1  16
ATOM     16  C   UNL     1       5.317  -4.025  24.195  0.00  0.00    +0.185 C 
BRANCH  16  17
ATOM     17  O   UNL     1       5.287  -3.366  25.461  0.00  0.00    -0.393 OA
ATOM     18  H   UNL     1       4.349  -3.278  25.712  0.00  0.00    +0.209 HD
ENDBRANCH  16  17
ENDBRANCH   1  16
TORSDOF 5
ENDMDL
MODEL 4
REMARK VINA RESULT:      -4.8      3.840      4.726
REMARK  Name = 
REMARK  5 active torsions:
REMARK  status: ('A' for Active; 'I' for Inactive)
REMARK    1  A    between atoms: O_1  and  C_2
REMARK    2  A    between atoms: C_2  and  C_3
REMARK    3  A    between atoms: C_5  and  O_7
REMARK    4  A    between atoms: C_8  and  O_10
REMARK    5  A    between atoms: C_11  and  O_13
REMARK                            x       y       z     vdW  Elec       q    Type
REMARK                         _______ _______ _______ _____ _____    ______ ____
ROOT
ATOM      1  C   UNL     1      10.262  -0.694  23.352  0.00  0.00    +0.167 C 
ATOM      2  N   UNL     1       9.797  -1.869  24.060  0.00  0.00    -0.219 N 
ATOM      3  C   UNL     1       8.924  -1.909  25.107  0.00  0.00    +0.183 A 
ATOM      4  N   UNL     1       8.769  -3.171  25.449  0.00  0.00    -0.111 NA
ATOM      5  N   UNL     1       9.572  -3.898  24.596  0.00  0.00    -0.023 NA
ATOM      6  C   UNL     1       8.324  -0.678  25.687  0.00  0.00    +0.214 C 
ATOM      7  C   UNL     1       8.510   0.548  24.756  0.00  0.00    +0.181 C 
ATOM      8  N   UNL     1      10.205  -3.105  23.743  0.00  0.00    -0.043 NA
ATOM      9  C   UNL     1       9.941   0.580  24.169  0.00  0.00    +0.173 C 
ENDROOT
BRANCH   6  10
ATOM     10  O   UNL     1       8.966  -0.441  26.944  0.00  0.00    -0.381 OA
ATOM     11  H   UNL     1       8.430  -0.888  27.631  0.00  0.00    +0.210 HD
ENDBRANCH   6  10
BRANCH   7  12
ATOM     12  O   UNL     1       7.542   0.540  23.707  0.00  0.00    -0.386 OA
ATOM     13  H   UNL     1       7.294  -0.389  23.540  0.00  0.00    +0.210 HD
ENDBRANCH   7  12
BRANCH   9  14
ATOM     14  O   UNL     1      10.871   0.710  25.261  0.00  0.00    -0.387 OA
ATOM     15  H   UNL     1      10.392   1.109  26.014  0.00  0.00    +0.210 HD
ENDBRANCH   9  14
BRANCH   1  16
ATOM     16  C   UNL     1       9.691  -0.668  21.930  0.00  0.00    +0.185 C 
BRANCH  16  17
ATOM     17  O   UNL     1       8.610  -1.593  21.818  0.00  0.00    -0.393 OA
ATOM     18  H   UNL     1       8.997  -2.448  21.550  0.00  0.00    +0.209 HD
ENDBRANCH  16  17
ENDBRANCH   1  16
TORSDOF 5
ENDMDL
MODEL 5
REMARK VINA RESULT:      -4.8      4.824      6.409
REMARK  Name = 
REMARK  5 active torsions:
REMARK  status: ('A' for Active; 'I' for Inactive)
REMARK    1  A    between atoms: O_1  and  C_2
REMARK    2  A    between atoms: C_2  and  C_3
REMARK    3  A    between atoms: C_5  and  O_7
REMARK    4  A    between atoms: C_8  and  O_10
REMARK    5  A    between atoms: C_11  and  O_13
REMARK                            x       y       z     vdW  Elec       q    Type
REMARK                         _______ _______ _______ _____ _____    ______ ____
ROOT
ATOM      1  C   UNL     1       7.943  -0.231  24.412  0.00  0.00    +0.167 C 
ATOM      2  N   UNL     1       8.964  -0.969  23.696  0.00  0.00    -0.219 N 
ATOM      3  C   UNL     1       9.753  -0.513  22.681  0.00  0.00    +0.183 A 
ATOM      4  N   UNL     1      10.546  -1.500  22.319  0.00  0.00    -0.111 NA
ATOM      5  N   UNL     1      10.218  -2.569  23.125  0.00  0.00    -0.023 NA
ATOM      6  C   UNL     1       9.640   0.871  22.150  0.00  0.00    +0.214 C 
ATOM      7  C   UNL     1       8.828   1.789  23.099  0.00  0.00    +0.181 C 
ATOM      8  N   UNL     1       9.249  -2.249  23.971  0.00  0.00    -0.043 NA
ATOM      9  C   UNL     1       7.575   1.055  23.634  0.00  0.00    +0.173 C 
ENDROOT
BRANCH   6  10
ATOM     10  O   UNL     1       8.995   0.789  20.876  0.00  0.00    -0.381 OA
ATOM     11  H   UNL     1       8.807  -0.156  20.707  0.00  0.00    +0.210 HD
ENDBRANCH   6  10
BRANCH   7  12
ATOM     12  O   UNL     1       9.638   2.242  24.183  0.00  0.00    -0.386 OA
ATOM     13  H   UNL     1       9.232   1.926  25.011  0.00  0.00    +0.210 HD
ENDBRANCH   7  12
BRANCH   9  14
ATOM     14  O   UNL     1       6.734   0.726  22.511  0.00  0.00    -0.387 OA
ATOM     15  H   UNL     1       7.077  -0.098  22.115  0.00  0.00    +0.210 HD
ENDBRANCH   9  14
BRANCH   1  16
ATOM     16  C   UNL     1       8.390   0.033  25.854  0.00  0.00    +0.185 C 
BRANCH  16  17
ATOM     17  O   UNL     1       9.813  -0.012  25.944  0.00  0.00    -0.393 OA
ATOM     18  H   UNL     1      10.087  -0.902  25.654  0.00  0.00    +0.209 HD
ENDBRANCH  16  17
ENDBRANCH   1  16
TORSDOF 5
ENDMDL
MODEL 6
REMARK VINA RESULT:      -4.8      3.905      5.268
REMARK  Name = 
REMARK  5 active torsions:
REMARK  status: ('A' for Active; 'I' for Inactive)
REMARK    1  A    between atoms: O_1  and  C_2
REMARK    2  A    between atoms: C_2  and  C_3
REMARK    3  A    between atoms: C_5  and  O_7
REMARK    4  A    between atoms: C_8  and  O_10
REMARK    5  A    between atoms: C_11  and  O_13
REMARK                            x       y       z     vdW  Elec       q    Type
REMARK                         _______ _______ _______ _____ _____    ______ ____
ROOT
ATOM      1  C   UNL     1       8.074  -0.381  24.582  0.00  0.00    +0.167 C 
ATOM      2  N   UNL     1       8.599  -1.731  24.565  0.00  0.00    -0.219 N 
ATOM      3  C   UNL     1       9.701  -2.179  23.898  0.00  0.00    +0.183 A 
ATOM      4  N   UNL     1       9.827  -3.464  24.155  0.00  0.00    -0.111 NA
ATOM      5  N   UNL     1       8.775  -3.793  24.982  0.00  0.00    -0.023 NA
ATOM      6  C   UNL     1      10.533  -1.284  23.050  0.00  0.00    +0.214 C 
ATOM      7  C   UNL     1      10.225   0.212  23.315  0.00  0.00    +0.181 C 
ATOM      8  N   UNL     1       8.018  -2.734  25.237  0.00  0.00    -0.043 NA
ATOM      9  C   UNL     1       8.701   0.447  23.434  0.00  0.00    +0.173 C 
ENDROOT
BRANCH   6  10
ATOM     10  O   UNL     1      10.253  -1.608  21.685  0.00  0.00    -0.381 OA
ATOM     11  H   UNL     1      10.729  -2.439  21.481  0.00  0.00    +0.210 HD
ENDBRANCH   6  10
BRANCH   7  12
ATOM     12  O   UNL     1      10.891   0.666  24.493  0.00  0.00    -0.386 OA
ATOM     13  H   UNL     1      10.772  -0.013  25.182  0.00  0.00    +0.210 HD
ENDBRANCH   7  12
BRANCH   9  14
ATOM     14  O   UNL     1       8.091   0.086  22.179  0.00  0.00    -0.387 OA
ATOM     15  H   UNL     1       7.813   0.911  21.737  0.00  0.00    +0.210 HD
ENDBRANCH   9  14
BRANCH   1  16
ATOM     16  C   UNL     1       8.267   0.249  25.965  0.00  0.00    +0.185 C 
BRANCH  16  17
ATOM     17  O   UNL     1       9.275  -0.456  26.689  0.00  0.00    -0.393 OA
ATOM     18  H   UNL     1       9.180  -1.399  26.461  0.00  0.00    +0.209 HD
ENDBRANCH  16  17
ENDBRANCH   1  16
TORSDOF 5
ENDMDL
MODEL 7
REMARK VINA RESULT:      -4.7      5.049      6.674
REMARK  Name = 
REMARK  5 active torsions:
REMARK  status: ('A' for Active; 'I' for Inactive)
REMARK    1  A    between atoms: O_1  and  C_2
REMARK    2  A    between atoms: C_2  and  C_3
REMARK    3  A    between atoms: C_5  and  O_7
REMARK    4  A    between atoms: C_8  and  O_10
REMARK    5  A    between atoms: C_11  and  O_13
REMARK                            x       y       z     vdW  Elec       q    Type
REMARK                         _______ _______ _______ _____ _____    ______ ____
ROOT
ATOM      1  C   UNL     1       8.709  -0.301  24.133  0.00  0.00    +0.167 C 
ATOM      2  N   UNL     1       7.855   0.662  23.467  0.00  0.00    -0.219 N 
ATOM      3  C   UNL     1       8.096   1.298  22.284  0.00  0.00    +0.183 A 
ATOM      4  N   UNL     1       7.068   2.083  22.038  0.00  0.00    -0.111 NA
ATOM      5  N   UNL     1       6.202   1.922  23.098  0.00  0.00    -0.023 NA
ATOM      6  C   UNL     1       9.341   1.074  21.502  0.00  0.00    +0.214 C 
ATOM      7  C   UNL     1      10.106  -0.185  21.984  0.00  0.00    +0.181 C 
ATOM      8  N   UNL     1       6.680   1.052  23.977  0.00  0.00    -0.043 NA
ATOM      9  C   UNL     1      10.133  -0.255  23.529  0.00  0.00    +0.173 C 
ENDROOT
BRANCH   6  10
ATOM     10  O   UNL     1      10.161   2.236  21.662  0.00  0.00    -0.381 OA
ATOM     11  H   UNL     1      10.067   2.531  22.591  0.00  0.00    +0.210 HD
ENDBRANCH   6  10
BRANCH   7  12
ATOM     12  O   UNL     1       9.523  -1.371  21.443  0.00  0.00    -0.386 OA
ATOM     13  H   UNL     1      10.244  -1.920  21.084  0.00  0.00    +0.210 HD
ENDBRANCH   7  12
BRANCH   9  14
ATOM     14  O   UNL     1      10.837   0.902  24.018  0.00  0.00    -0.387 OA
ATOM     15  H   UNL     1      10.229   1.393  24.605  0.00  0.00    +0.210 HD
ENDBRANCH   9  14
BRANCH   1  16
ATOM     16  C   UNL     1       8.072  -1.694  24.093  0.00  0.00    +0.185 C 
BRANCH  16  17
ATOM     17  O   UNL     1       7.091  -1.756  23.058  0.00  0.00    -0.393 OA
ATOM     18  H   UNL     1       6.525  -0.969  23.157  0.00  0.00    +0.209 HD
ENDBRANCH  16  17
ENDBRANCH   1  16
TORSDOF 5
ENDMDL
MODEL 8
REMARK VINA RESULT:      -4.7      5.116      6.374
REMARK  Name = 
REMARK  5 active torsions:
REMARK  status: ('A' for Active; 'I' for Inactive)
REMARK    1  A    between atoms: O_1  and  C_2
REMARK    2  A    between atoms: C_2  and  C_3
REMARK    3  A    between atoms: C_5  and  O_7
REMARK    4  A    between atoms: C_8  and  O_10
REMARK    5  A    between atoms: C_11  and  O_13
REMARK                            x       y       z     vdW  Elec       q    Type
REMARK                         _______ _______ _______ _____ _____    ______ ____
ROOT
ATOM      1  C   UNL     1       8.351   1.948  23.564  0.00  0.00    +0.167 C 
ATOM      2  N   UNL     1       7.796   0.610  23.509  0.00  0.00    -0.219 N 
ATOM      3  C   UNL     1       8.451  -0.541  23.184  0.00  0.00    +0.183 A 
ATOM      4  N   UNL     1       7.582  -1.528  23.261  0.00  0.00    -0.111 NA
ATOM      5  N   UNL     1       6.384  -0.954  23.627  0.00  0.00    -0.023 NA
ATOM      6  C   UNL     1       9.891  -0.557  22.814  0.00  0.00    +0.214 C 
ATOM      7  C   UNL     1      10.600   0.768  23.196  0.00  0.00    +0.181 C 
ATOM      8  N   UNL     1       6.509   0.357  23.781  0.00  0.00    -0.043 NA
ATOM      9  C   UNL     1       9.717   1.986  22.837  0.00  0.00    +0.173 C 
ENDROOT
BRANCH   6  10
ATOM     10  O   UNL     1       9.967  -0.765  21.401  0.00  0.00    -0.381 OA
ATOM     11  H   UNL     1      10.424   0.012  21.018  0.00  0.00    +0.210 HD
ENDBRANCH   6  10
BRANCH   7  12
ATOM     12  O   UNL     1      10.930   0.785  24.585  0.00  0.00    -0.386 OA
ATOM     13  H   UNL     1      10.605  -0.047  24.977  0.00  0.00    +0.210 HD
ENDBRANCH   7  12
BRANCH   9  14
ATOM     14  O   UNL     1       9.514   1.989  21.411  0.00  0.00    -0.387 OA
ATOM     15  H   UNL     1      10.387   2.102  20.987  0.00  0.00    +0.210 HD
ENDBRANCH   9  14
BRANCH   1  16
ATOM     16  C   UNL     1       8.416   2.437  25.015  0.00  0.00    +0.185 C 
BRANCH  16  17
ATOM     17  O   UNL     1       8.349   1.329  25.911  0.00  0.00    -0.393 OA
ATOM     18  H   UNL     1       9.029   1.476  26.594  0.00  0.00    +0.209 HD
ENDBRANCH  16  17
ENDBRANCH   1  16
TORSDOF 5
ENDMDL
MODEL 9
REMARK VINA RESULT:      -4.7      2.515      3.751
REMARK  Name = 
REMARK  5 active torsions:
REMARK  status: ('A' for Active; 'I' for Inactive)
REMARK    1  A    between atoms: O_1  and  C_2
REMARK    2  A    between atoms: C_2  and  C_3
REMARK    3  A    between atoms: C_5  and  O_7
REMARK    4  A    between atoms: C_8  and  O_10
REMARK    5  A    between atoms: C_11  and  O_13
REMARK                            x       y       z     vdW  Elec       q    Type
REMARK                         _______ _______ _______ _____ _____    ______ ____
ROOT
ATOM      1  C   UNL     1       7.589  -3.015  26.437  0.00  0.00    +0.167 C 
ATOM      2  N   UNL     1       8.535  -2.689  25.388  0.00  0.00    -0.219 N 
ATOM      3  C   UNL     1       8.988  -3.514  24.401  0.00  0.00    +0.183 A 
ATOM      4  N   UNL     1       9.829  -2.823  23.659  0.00  0.00    -0.111 NA
ATOM      5  N   UNL     1       9.886  -1.565  24.220  0.00  0.00    -0.023 NA
ATOM      6  C   UNL     1       8.550  -4.931  24.288  0.00  0.00    +0.214 C 
ATOM      7  C   UNL     1       7.296  -5.218  25.153  0.00  0.00    +0.181 C 
ATOM      8  N   UNL     1       9.095  -1.477  25.281  0.00  0.00    -0.043 NA
ATOM      9  C   UNL     1       7.422  -4.550  26.543  0.00  0.00    +0.173 C 
ENDROOT
BRANCH   6  10
ATOM     10  O   UNL     1       9.640  -5.751  24.718  0.00  0.00    -0.381 OA
ATOM     11  H   UNL     1      10.302  -5.160  25.132  0.00  0.00    +0.210 HD
ENDBRANCH   6  10
BRANCH   7  12
ATOM     12  O   UNL     1       6.111  -4.771  24.493  0.00  0.00    -0.386 OA
ATOM     13  H   UNL     1       6.102  -5.165  23.601  0.00  0.00    +0.210 HD
ENDBRANCH   7  12
BRANCH   9  14
ATOM     14  O   UNL     1       8.561  -5.122  27.213  0.00  0.00    -0.387 OA
ATOM     15  H   UNL     1       8.865  -5.886  26.684  0.00  0.00    +0.210 HD
ENDBRANCH   9  14
BRANCH   1  16
ATOM     16  C   UNL     1       6.268  -2.271  26.212  0.00  0.00    +0.185 C 
BRANCH  16  17
ATOM     17  O   UNL     1       6.171  -1.840  24.855  0.00  0.00    -0.393 OA
ATOM     18  H   UNL     1       6.817  -1.119  24.741  0.00  0.00    +0.209 HD
ENDBRANCH  16  17
ENDBRANCH   1  16
TORSDOF 5
ENDMDL
