MODEL 1
REMARK VINA RESULT:      -7.3      0.000      0.000
REMARK  Name = 
REMARK  5 active torsions:
REMARK  status: ('A' for Active; 'I' for Inactive)
REMARK    1  A    between atoms: O_1  and  C_2
REMARK    2  A    between atoms: C_2  and  C_3
REMARK    3  A    between atoms: C_3  and  N_4
REMARK    4  A    between atoms: C_11  and  C_20
REMARK    5  A    between atoms: C_12  and  C_14
REMARK                            x       y       z     vdW  Elec       q    Type
REMARK                         _______ _______ _______ _____ _____    ______ ____
ROOT
ATOM      1  N   UNL     1       7.544  -4.397  26.162  0.00  0.00    -0.326 N 
ATOM      2  H   UNL     1       7.455  -4.445  25.148  0.00  0.00    +0.148 HD
ATOM      3  C   UNL     1       6.747  -5.353  26.787  0.00  0.00    +0.134 A 
ATOM      4  C   UNL     1       5.619  -5.955  26.187  0.00  0.00    +0.088 A 
ATOM      5  C   UNL     1       4.929  -5.968  24.913  0.00  0.00    +0.041 A 
ATOM      6  C   UNL     1       3.856  -6.846  25.067  0.00  0.00    +0.146 A 
ATOM      7  O   UNL     1       3.877  -7.373  26.325  0.00  0.00    -0.436 OA
ATOM      8  C   UNL     1       4.927  -6.850  26.994  0.00  0.00    +0.233 A 
ATOM      9  N   UNL     1       5.199  -7.208  28.254  0.00  0.00    -0.200 NA
ATOM     10  C   UNL     1       6.276  -6.581  28.718  0.00  0.00    +0.227 A 
ATOM     11  N   UNL     1       7.048  -5.697  28.066  0.00  0.00    -0.220 NA
ENDROOT
BRANCH   5  12
ATOM     12  C   UNL     1       5.295  -5.324  23.649  0.00  0.00    -0.014 A 
ATOM     13  C   UNL     1       5.011  -3.970  23.425  0.00  0.00    +0.008 A 
ATOM     14  C   UNL     1       5.544  -3.294  22.320  0.00  0.00    +0.001 A 
ATOM     15  C   UNL     1       6.278  -3.990  21.365  0.00  0.00    +0.000 A 
ATOM     16  C   UNL     1       6.481  -5.358  21.515  0.00  0.00    +0.001 A 
ATOM     17  C   UNL     1       6.015  -6.014  22.663  0.00  0.00    +0.008 A 
ENDBRANCH   5  12
BRANCH   6  18
ATOM     18  C   UNL     1       2.732  -7.328  24.264  0.00  0.00    +0.018 A 
ATOM     19  C   UNL     1       2.230  -6.585  23.190  0.00  0.00    +0.011 A 
ATOM     20  C   UNL     1       1.126  -7.036  22.457  0.00  0.00    +0.001 A 
ATOM     21  C   UNL     1       0.505  -8.237  22.798  0.00  0.00    +0.000 A 
ATOM     22  C   UNL     1       0.991  -8.992  23.858  0.00  0.00    +0.001 A 
ATOM     23  C   UNL     1       2.098  -8.542  24.584  0.00  0.00    +0.011 A 
ENDBRANCH   6  18
BRANCH   1  24
ATOM     24  C   UNL     1       8.971  -4.397  26.485  0.00  0.00    +0.130 C 
BRANCH  24  25
ATOM     25  C   UNL     1       9.753  -4.734  25.209  0.00  0.00    +0.174 C 
BRANCH  25  26
ATOM     26  O   UNL     1       9.771  -6.158  25.047  0.00  0.00    -0.393 OA
ATOM     27  H   UNL     1       9.303  -6.544  25.807  0.00  0.00    +0.209 HD
ENDBRANCH  25  26
ENDBRANCH  24  25
ENDBRANCH   1  24
TORSDOF 5
ENDMDL
MODEL 2
REMARK VINA RESULT:      -7.2      2.151      5.999
REMARK  Name = 
REMARK  5 active torsions:
REMARK  status: ('A' for Active; 'I' for Inactive)
REMARK    1  A    between atoms: O_1  and  C_2
REMARK    2  A    between atoms: C_2  and  C_3
REMARK    3  A    between atoms: C_3  and  N_4
REMARK    4  A    between atoms: C_11  and  C_20
REMARK    5  A    between atoms: C_12  and  C_14
REMARK                            x       y       z     vdW  Elec       q    Type
REMARK                         _______ _______ _______ _____ _____    ______ ____
ROOT
ATOM      1  N   UNL     1       4.648  -7.146  25.290  0.00  0.00    -0.326 N 
ATOM      2  H   UNL     1       4.612  -6.543  24.470  0.00  0.00    +0.148 HD
ATOM      3  C   UNL     1       5.283  -6.514  26.357  0.00  0.00    +0.134 A 
ATOM      4  C   UNL     1       6.180  -5.432  26.214  0.00  0.00    +0.088 A 
ATOM      5  C   UNL     1       6.706  -4.574  25.172  0.00  0.00    +0.041 A 
ATOM      6  C   UNL     1       7.573  -3.686  25.810  0.00  0.00    +0.146 A 
ATOM      7  O   UNL     1       7.577  -3.938  27.151  0.00  0.00    -0.436 OA
ATOM      8  C   UNL     1       6.746  -4.973  27.397  0.00  0.00    +0.233 A 
ATOM      9  N   UNL     1       6.543  -5.424  28.640  0.00  0.00    -0.200 NA
ATOM     10  C   UNL     1       5.685  -6.440  28.658  0.00  0.00    +0.227 A 
ATOM     11  N   UNL     1       5.057  -6.992  27.608  0.00  0.00    -0.220 NA
ENDROOT
BRANCH   5  12
ATOM     12  C   UNL     1       6.352  -4.507  23.753  0.00  0.00    -0.014 A 
ATOM     13  C   UNL     1       5.710  -3.378  23.225  0.00  0.00    +0.008 A 
ATOM     14  C   UNL     1       5.562  -3.213  21.842  0.00  0.00    +0.001 A 
ATOM     15  C   UNL     1       5.956  -4.225  20.973  0.00  0.00    +0.000 A 
ATOM     16  C   UNL     1       6.497  -5.400  21.484  0.00  0.00    +0.001 A 
ATOM     17  C   UNL     1       6.718  -5.528  22.863  0.00  0.00    +0.008 A 
ENDBRANCH   5  12
BRANCH   6  18
ATOM     18  C   UNL     1       8.470  -2.594  25.431  0.00  0.00    +0.018 A 
ATOM     19  C   UNL     1       8.547  -1.417  26.183  0.00  0.00    +0.011 A 
ATOM     20  C   UNL     1       9.376  -0.362  25.786  0.00  0.00    +0.001 A 
ATOM     21  C   UNL     1      10.135  -0.471  24.621  0.00  0.00    +0.000 A 
ATOM     22  C   UNL     1      10.077  -1.633  23.862  0.00  0.00    +0.001 A 
ATOM     23  C   UNL     1       9.252  -2.687  24.265  0.00  0.00    +0.011 A 
ENDBRANCH   6  18
BRANCH   1  24
ATOM     24  C   UNL     1       3.299  -7.664  25.522  0.00  0.00    +0.130 C 
BRANCH  24  25
ATOM     25  C   UNL     1       2.421  -7.267  24.330  0.00  0.00    +0.174 C 
BRANCH  25  26
ATOM     26  O   UNL     1       2.436  -8.333  23.374  0.00  0.00    -0.393 OA
ATOM     27  H   UNL     1       1.600  -8.820  23.467  0.00  0.00    +0.209 HD
ENDBRANCH  25  26
ENDBRANCH  24  25
ENDBRANCH   1  24
TORSDOF 5
ENDMDL
MODEL 3
REMARK VINA RESULT:      -6.9      4.118      7.709
REMARK  Name = 
REMARK  5 active torsions:
REMARK  status: ('A' for Active; 'I' for Inactive)
REMARK    1  A    between atoms: O_1  and  C_2
REMARK    2  A    between atoms: C_2  and  C_3
REMARK    3  A    between atoms: C_3  and  N_4
REMARK    4  A    between atoms: C_11  and  C_20
REMARK    5  A    between atoms: C_12  and  C_14
REMARK                            x       y       z     vdW  Elec       q    Type
REMARK                         _______ _______ _______ _____ _____    ______ ____
ROOT
ATOM      1  N   UNL     1       6.276  -4.171  26.995  0.00  0.00    -0.326 N 
ATOM      2  H   UNL     1       6.154  -3.200  27.275  0.00  0.00    +0.148 HD
ATOM      3  C   UNL     1       7.438  -4.340  26.243  0.00  0.00    +0.134 A 
ATOM      4  C   UNL     1       8.084  -3.297  25.544  0.00  0.00    +0.088 A 
ATOM      5  C   UNL     1       7.970  -1.865  25.358  0.00  0.00    +0.041 A 
ATOM      6  C   UNL     1       9.012  -1.505  24.503  0.00  0.00    +0.146 A 
ATOM      7  O   UNL     1       9.748  -2.611  24.193  0.00  0.00    -0.436 OA
ATOM      8  C   UNL     1       9.203  -3.679  24.813  0.00  0.00    +0.233 A 
ATOM      9  N   UNL     1       9.737  -4.901  24.697  0.00  0.00    -0.200 NA
ATOM     10  C   UNL     1       9.050  -5.802  25.393  0.00  0.00    +0.227 A 
ATOM     11  N   UNL     1       7.958  -5.591  26.144  0.00  0.00    -0.220 NA
ENDROOT
BRANCH   5  12
ATOM     12  C   UNL     1       7.062  -0.912  26.001  0.00  0.00    -0.014 A 
ATOM     13  C   UNL     1       7.444  -0.227  27.162  0.00  0.00    +0.008 A 
ATOM     14  C   UNL     1       6.678   0.835  27.659  0.00  0.00    +0.001 A 
ATOM     15  C   UNL     1       5.463   1.157  27.062  0.00  0.00    +0.000 A 
ATOM     16  C   UNL     1       5.014   0.419  25.973  0.00  0.00    +0.001 A 
ATOM     17  C   UNL     1       5.822  -0.591  25.429  0.00  0.00    +0.008 A 
ENDBRANCH   5  12
BRANCH   6  18
ATOM     18  C   UNL     1       9.504  -0.290  23.853  0.00  0.00    +0.018 A 
ATOM     19  C   UNL     1      10.145   0.719  24.580  0.00  0.00    +0.011 A 
ATOM     20  C   UNL     1      10.572   1.895  23.954  0.00  0.00    +0.001 A 
ATOM     21  C   UNL     1      10.354   2.080  22.589  0.00  0.00    +0.000 A 
ATOM     22  C   UNL     1       9.723   1.088  21.848  0.00  0.00    +0.001 A 
ATOM     23  C   UNL     1       9.304  -0.089  22.476  0.00  0.00    +0.011 A 
ENDBRANCH   6  18
BRANCH   1  24
ATOM     24  C   UNL     1       6.121  -5.004  28.188  0.00  0.00    +0.130 C 
BRANCH  24  25
ATOM     25  C   UNL     1       4.922  -5.934  27.972  0.00  0.00    +0.174 C 
BRANCH  25  26
ATOM     26  O   UNL     1       5.404  -7.213  27.545  0.00  0.00    -0.393 OA
ATOM     27  H   UNL     1       4.659  -7.837  27.594  0.00  0.00    +0.209 HD
ENDBRANCH  25  26
ENDBRANCH  24  25
ENDBRANCH   1  24
TORSDOF 5
ENDMDL
MODEL 4
REMARK VINA RESULT:      -6.8      3.477      5.476
REMARK  Name = 
REMARK  5 active torsions:
REMARK  status: ('A' for Active; 'I' for Inactive)
REMARK    1  A    between atoms: O_1  and  C_2
REMARK    2  A    between atoms: C_2  and  C_3
REMARK    3  A    between atoms: C_3  and  N_4
REMARK    4  A    between atoms: C_11  and  C_20
REMARK    5  A    between atoms: C_12  and  C_14
REMARK                            x       y       z     vdW  Elec       q    Type
REMARK                         _______ _______ _______ _____ _____    ______ ____
ROOT
ATOM      1  N   UNL     1       8.421  -0.929  22.581  0.00  0.00    -0.326 N 
ATOM      2  H   UNL     1       8.297  -1.866  22.203  0.00  0.00    +0.148 HD
ATOM      3  C   UNL     1       8.421  -0.939  23.974  0.00  0.00    +0.134 A 
ATOM      4  C   UNL     1       7.847  -1.966  24.756  0.00  0.00    +0.088 A 
ATOM      5  C   UNL     1       7.206  -3.253  24.579  0.00  0.00    +0.041 A 
ATOM      6  C   UNL     1       6.904  -3.710  25.861  0.00  0.00    +0.146 A 
ATOM      7  O   UNL     1       7.342  -2.804  26.782  0.00  0.00    -0.436 OA
ATOM      8  C   UNL     1       7.909  -1.767  26.131  0.00  0.00    +0.233 A 
ATOM      9  N   UNL     1       8.443  -0.734  26.793  0.00  0.00    -0.200 NA
ATOM     10  C   UNL     1       8.951   0.170  25.961  0.00  0.00    +0.227 A 
ATOM     11  N   UNL     1       8.972   0.121  24.620  0.00  0.00    -0.220 NA
ENDROOT
BRANCH   5  12
ATOM     12  C   UNL     1       7.002  -4.030  23.354  0.00  0.00    -0.014 A 
ATOM     13  C   UNL     1       7.665  -5.250  23.159  0.00  0.00    +0.008 A 
ATOM     14  C   UNL     1       7.318  -6.099  22.102  0.00  0.00    +0.001 A 
ATOM     15  C   UNL     1       6.377  -5.692  21.161  0.00  0.00    +0.000 A 
ATOM     16  C   UNL     1       5.785  -4.439  21.277  0.00  0.00    +0.001 A 
ATOM     17  C   UNL     1       6.076  -3.626  22.381  0.00  0.00    +0.008 A 
ENDBRANCH   5  12
BRANCH   6  18
ATOM     18  C   UNL     1       6.243  -4.867  26.467  0.00  0.00    +0.018 A 
ATOM     19  C   UNL     1       5.330  -5.646  25.748  0.00  0.00    +0.011 A 
ATOM     20  C   UNL     1       4.671  -6.723  26.352  0.00  0.00    +0.001 A 
ATOM     21  C   UNL     1       4.914  -7.028  27.691  0.00  0.00    +0.000 A 
ATOM     22  C   UNL     1       5.821  -6.270  28.421  0.00  0.00    +0.001 A 
ATOM     23  C   UNL     1       6.481  -5.199  27.813  0.00  0.00    +0.011 A 
ENDBRANCH   6  18
BRANCH   1  24
ATOM     24  C   UNL     1       9.575  -0.327  21.913  0.00  0.00    +0.130 C 
BRANCH  24  25
ATOM     25  C   UNL     1       9.111   0.959  21.218  0.00  0.00    +0.174 C 
BRANCH  25  26
ATOM     26  O   UNL     1      10.008   2.019  21.569  0.00  0.00    -0.393 OA
ATOM     27  H   UNL     1      10.562   2.201  20.790  0.00  0.00    +0.209 HD
ENDBRANCH  25  26
ENDBRANCH  24  25
ENDBRANCH   1  24
TORSDOF 5
ENDMDL
MODEL 5
REMARK VINA RESULT:      -6.7      8.395     10.469
REMARK  Name = 
REMARK  5 active torsions:
REMARK  status: ('A' for Active; 'I' for Inactive)
REMARK    1  A    between atoms: O_1  and  C_2
REMARK    2  A    between atoms: C_2  and  C_3
REMARK    3  A    between atoms: C_3  and  N_4
REMARK    4  A    between atoms: C_11  and  C_20
REMARK    5  A    between atoms: C_12  and  C_14
REMARK                            x       y       z     vdW  Elec       q    Type
REMARK                         _______ _______ _______ _____ _____    ______ ____
ROOT
ATOM      1  N   UNL     1      10.800   5.257  23.398  0.00  0.00    -0.326 N 
ATOM      2  H   UNL     1      10.962   4.260  23.270  0.00  0.00    +0.148 HD
ATOM      3  C   UNL     1       9.902   5.496  24.436  0.00  0.00    +0.134 A 
ATOM      4  C   UNL     1       8.973   4.544  24.911  0.00  0.00    +0.088 A 
ATOM      5  C   UNL     1       8.615   3.157  24.694  0.00  0.00    +0.041 A 
ATOM      6  C   UNL     1       7.562   2.891  25.570  0.00  0.00    +0.146 A 
ATOM      7  O   UNL     1       7.291   4.008  26.307  0.00  0.00    -0.436 OA
ATOM      8  C   UNL     1       8.130   4.992  25.922  0.00  0.00    +0.233 A 
ATOM      9  N   UNL     1       8.097   6.201  26.494  0.00  0.00    -0.200 NA
ATOM     10  C   UNL     1       9.010   7.014  25.972  0.00  0.00    +0.227 A 
ATOM     11  N   UNL     1       9.892   6.731  25.000  0.00  0.00    -0.220 NA
ENDROOT
BRANCH   5  12
ATOM     12  C   UNL     1       9.259   2.150  23.847  0.00  0.00    -0.014 A 
ATOM     13  C   UNL     1      10.089   1.168  24.404  0.00  0.00    +0.008 A 
ATOM     14  C   UNL     1      10.534   0.081  23.642  0.00  0.00    +0.001 A 
ATOM     15  C   UNL     1      10.243   0.018  22.283  0.00  0.00    +0.000 A 
ATOM     16  C   UNL     1       9.510   1.039  21.687  0.00  0.00    +0.001 A 
ATOM     17  C   UNL     1       8.999   2.083  22.470  0.00  0.00    +0.008 A 
ENDBRANCH   5  12
BRANCH   6  18
ATOM     18  C   UNL     1       6.682   1.767  25.891  0.00  0.00    +0.018 A 
ATOM     19  C   UNL     1       6.180   1.579  27.184  0.00  0.00    +0.011 A 
ATOM     20  C   UNL     1       5.376   0.475  27.489  0.00  0.00    +0.001 A 
ATOM     21  C   UNL     1       5.070  -0.461  26.501  0.00  0.00    +0.000 A 
ATOM     22  C   UNL     1       5.554  -0.289  25.210  0.00  0.00    +0.001 A 
ATOM     23  C   UNL     1       6.353   0.818  24.908  0.00  0.00    +0.011 A 
ENDBRANCH   6  18
BRANCH   1  24
ATOM     24  C   UNL     1      12.105   5.915  23.474  0.00  0.00    +0.130 C 
BRANCH  24  25
ATOM     25  C   UNL     1      13.056   5.209  22.501  0.00  0.00    +0.174 C 
BRANCH  25  26
ATOM     26  O   UNL     1      14.328   5.048  23.140  0.00  0.00    -0.393 OA
ATOM     27  H   UNL     1      15.005   5.029  22.441  0.00  0.00    +0.209 HD
ENDBRANCH  25  26
ENDBRANCH  24  25
ENDBRANCH   1  24
TORSDOF 5
ENDMDL
MODEL 6
REMARK VINA RESULT:      -6.7      3.924      7.368
REMARK  Name = 
REMARK  5 active torsions:
REMARK  status: ('A' for Active; 'I' for Inactive)
REMARK    1  A    between atoms: O_1  and  C_2
REMARK    2  A    between atoms: C_2  and  C_3
REMARK    3  A    between atoms: C_3  and  N_4
REMARK    4  A    between atoms: C_11  and  C_20
REMARK    5  A    between atoms: C_12  and  C_14
REMARK                            x       y       z     vdW  Elec       q    Type
REMARK                         _______ _______ _______ _____ _____    ______ ____
ROOT
ATOM      1  N   UNL     1       5.574  -4.672  25.768  0.00  0.00    -0.326 N 
ATOM      2  H   UNL     1       5.926  -3.900  26.330  0.00  0.00    +0.148 HD
ATOM      3  C   UNL     1       6.127  -4.662  24.489  0.00  0.00    +0.134 A 
ATOM      4  C   UNL     1       6.684  -3.517  23.879  0.00  0.00    +0.088 A 
ATOM      5  C   UNL     1       6.982  -2.137  24.201  0.00  0.00    +0.041 A 
ATOM      6  C   UNL     1       7.565  -1.593  23.057  0.00  0.00    +0.146 A 
ATOM      7  O   UNL     1       7.659  -2.555  22.093  0.00  0.00    -0.436 OA
ATOM      8  C   UNL     1       7.141  -3.703  22.579  0.00  0.00    +0.233 A 
ATOM      9  N   UNL     1       7.120  -4.823  21.847  0.00  0.00    -0.200 NA
ATOM     10  C   UNL     1       6.575  -5.834  22.518  0.00  0.00    +0.227 A 
ATOM     11  N   UNL     1       6.093  -5.814  23.770  0.00  0.00    -0.220 NA
ENDROOT
BRANCH   5  12
ATOM     12  C   UNL     1       6.848  -1.429  25.476  0.00  0.00    -0.014 A 
ATOM     13  C   UNL     1       7.976  -1.126  26.252  0.00  0.00    +0.008 A 
ATOM     14  C   UNL     1       7.884  -0.269  27.355  0.00  0.00    +0.001 A 
ATOM     15  C   UNL     1       6.644   0.212  27.763  0.00  0.00    +0.000 A 
ATOM     16  C   UNL     1       5.498  -0.164  27.071  0.00  0.00    +0.001 A 
ATOM     17  C   UNL     1       5.604  -0.956  25.919  0.00  0.00    +0.008 A 
ENDBRANCH   5  12
BRANCH   6  18
ATOM     18  C   UNL     1       8.076  -0.294  22.618  0.00  0.00    +0.018 A 
ATOM     19  C   UNL     1       9.417  -0.119  22.261  0.00  0.00    +0.011 A 
ATOM     20  C   UNL     1       9.903   1.139  21.885  0.00  0.00    +0.001 A 
ATOM     21  C   UNL     1       9.050   2.242  21.872  0.00  0.00    +0.000 A 
ATOM     22  C   UNL     1       7.713   2.089  22.219  0.00  0.00    +0.001 A 
ATOM     23  C   UNL     1       7.230   0.830  22.587  0.00  0.00    +0.011 A 
ENDBRANCH   6  18
BRANCH   1  24
ATOM     24  C   UNL     1       5.718  -5.898  26.553  0.00  0.00    +0.130 C 
BRANCH  24  25
ATOM     25  C   UNL     1       6.567  -5.579  27.790  0.00  0.00    +0.174 C 
BRANCH  25  26
ATOM     26  O   UNL     1       7.937  -5.875  27.494  0.00  0.00    -0.393 OA
ATOM     27  H   UNL     1       8.410  -5.027  27.431  0.00  0.00    +0.209 HD
ENDBRANCH  25  26
ENDBRANCH  24  25
ENDBRANCH   1  24
TORSDOF 5
ENDMDL
MODEL 7
REMARK VINA RESULT:      -6.5      6.420     10.014
REMARK  Name = 
REMARK  5 active torsions:
REMARK  status: ('A' for Active; 'I' for Inactive)
REMARK    1  A    between atoms: O_1  and  C_2
REMARK    2  A    between atoms: C_2  and  C_3
REMARK    3  A    between atoms: C_3  and  N_4
REMARK    4  A    between atoms: C_11  and  C_20
REMARK    5  A    between atoms: C_12  and  C_14
REMARK                            x       y       z     vdW  Elec       q    Type
REMARK                         _______ _______ _______ _____ _____    ______ ____
ROOT
ATOM      1  N   UNL     1       6.434  -1.478  22.985  0.00  0.00    -0.326 N 
ATOM      2  H   UNL     1       5.943  -0.625  23.247  0.00  0.00    +0.148 HD
ATOM      3  C   UNL     1       7.796  -1.385  23.264  0.00  0.00    +0.134 A 
ATOM      4  C   UNL     1       8.491  -0.164  23.408  0.00  0.00    +0.088 A 
ATOM      5  C   UNL     1       8.218   1.259  23.429  0.00  0.00    +0.041 A 
ATOM      6  C   UNL     1       9.448   1.882  23.636  0.00  0.00    +0.146 A 
ATOM      7  O   UNL     1      10.422   0.935  23.766  0.00  0.00    -0.436 OA
ATOM      8  C   UNL     1       9.857  -0.284  23.636  0.00  0.00    +0.233 A 
ATOM      9  N   UNL     1      10.583  -1.404  23.738  0.00  0.00    -0.200 NA
ATOM     10  C   UNL     1       9.830  -2.489  23.586  0.00  0.00    +0.227 A 
ATOM     11  N   UNL     1       8.508  -2.538  23.364  0.00  0.00    -0.220 NA
ENDROOT
BRANCH   5  12
ATOM     12  C   UNL     1       6.934   1.961  23.380  0.00  0.00    -0.014 A 
ATOM     13  C   UNL     1       6.096   2.004  24.503  0.00  0.00    +0.008 A 
ATOM     14  C   UNL     1       4.977   2.845  24.537  0.00  0.00    +0.001 A 
ATOM     15  C   UNL     1       4.619   3.574  23.408  0.00  0.00    +0.000 A 
ATOM     16  C   UNL     1       5.377   3.462  22.247  0.00  0.00    +0.001 A 
ATOM     17  C   UNL     1       6.541   2.682  22.243  0.00  0.00    +0.008 A 
ENDBRANCH   5  12
BRANCH   6  18
ATOM     18  C   UNL     1       9.964   3.248  23.732  0.00  0.00    +0.018 A 
ATOM     19  C   UNL     1       9.152   4.307  24.154  0.00  0.00    +0.011 A 
ATOM     20  C   UNL     1       9.644   5.616  24.200  0.00  0.00    +0.001 A 
ATOM     21  C   UNL     1      10.958   5.883  23.813  0.00  0.00    +0.000 A 
ATOM     22  C   UNL     1      11.782   4.845  23.396  0.00  0.00    +0.001 A 
ATOM     23  C   UNL     1      11.288   3.538  23.358  0.00  0.00    +0.011 A 
ENDBRANCH   6  18
BRANCH   1  24
ATOM     24  C   UNL     1       5.706  -2.608  23.563  0.00  0.00    +0.130 C 
BRANCH  24  25
ATOM     25  C   UNL     1       5.395  -3.603  22.439  0.00  0.00    +0.174 C 
BRANCH  25  26
ATOM     26  O   UNL     1       4.210  -4.330  22.786  0.00  0.00    -0.393 OA
ATOM     27  H   UNL     1       3.449  -3.761  22.582  0.00  0.00    +0.209 HD
ENDBRANCH  25  26
ENDBRANCH  24  25
ENDBRANCH   1  24
TORSDOF 5
ENDMDL
MODEL 8
REMARK VINA RESULT:      -6.2      3.279      6.579
REMARK  Name = 
REMARK  5 active torsions:
REMARK  status: ('A' for Active; 'I' for Inactive)
REMARK    1  A    between atoms: O_1  and  C_2
REMARK    2  A    between atoms: C_2  and  C_3
REMARK    3  A    between atoms: C_3  and  N_4
REMARK    4  A    between atoms: C_11  and  C_20
REMARK    5  A    between atoms: C_12  and  C_14
REMARK                            x       y       z     vdW  Elec       q    Type
REMARK                         _______ _______ _______ _____ _____    ______ ____
ROOT
ATOM      1  N   UNL     1       4.594  -5.405  25.657  0.00  0.00    -0.326 N 
ATOM      2  H   UNL     1       4.849  -5.432  24.671  0.00  0.00    +0.148 HD
ATOM      3  C   UNL     1       4.844  -4.151  26.211  0.00  0.00    +0.134 A 
ATOM      4  C   UNL     1       5.757  -3.217  25.672  0.00  0.00    +0.088 A 
ATOM      5  C   UNL     1       6.620  -3.066  24.518  0.00  0.00    +0.041 A 
ATOM      6  C   UNL     1       7.237  -1.824  24.662  0.00  0.00    +0.146 A 
ATOM      7  O   UNL     1       6.784  -1.219  25.798  0.00  0.00    -0.436 OA
ATOM      8  C   UNL     1       5.899  -2.042  26.400  0.00  0.00    +0.233 A 
ATOM      9  N   UNL     1       5.280  -1.691  27.533  0.00  0.00    -0.200 NA
ATOM     10  C   UNL     1       4.448  -2.641  27.949  0.00  0.00    +0.227 A 
ATOM     11  N   UNL     1       4.200  -3.821  27.361  0.00  0.00    -0.220 NA
ENDROOT
BRANCH   5  12
ATOM     12  C   UNL     1       6.766  -3.932  23.346  0.00  0.00    -0.014 A 
ATOM     13  C   UNL     1       7.566  -5.082  23.397  0.00  0.00    +0.008 A 
ATOM     14  C   UNL     1       7.542  -6.024  22.362  0.00  0.00    +0.001 A 
ATOM     15  C   UNL     1       6.801  -5.777  21.211  0.00  0.00    +0.000 A 
ATOM     16  C   UNL     1       6.085  -4.590  21.095  0.00  0.00    +0.001 A 
ATOM     17  C   UNL     1       6.046  -3.687  22.167  0.00  0.00    +0.008 A 
ENDBRANCH   5  12
BRANCH   6  18
ATOM     18  C   UNL     1       8.230  -1.023  23.945  0.00  0.00    +0.018 A 
ATOM     19  C   UNL     1       9.492  -0.764  24.492  0.00  0.00    +0.011 A 
ATOM     20  C   UNL     1      10.417   0.040  23.816  0.00  0.00    +0.001 A 
ATOM     21  C   UNL     1      10.085   0.604  22.585  0.00  0.00    +0.000 A 
ATOM     22  C   UNL     1       8.838   0.355  22.022  0.00  0.00    +0.001 A 
ATOM     23  C   UNL     1       7.920  -0.454  22.697  0.00  0.00    +0.011 A 
ENDBRANCH   6  18
BRANCH   1  24
ATOM     24  C   UNL     1       3.237  -5.936  25.782  0.00  0.00    +0.130 C 
BRANCH  24  25
ATOM     25  C   UNL     1       3.279  -7.438  25.476  0.00  0.00    +0.174 C 
BRANCH  25  26
ATOM     26  O   UNL     1       3.946  -7.632  24.223  0.00  0.00    -0.393 OA
ATOM     27  H   UNL     1       3.930  -6.782  23.750  0.00  0.00    +0.209 HD
ENDBRANCH  25  26
ENDBRANCH  24  25
ENDBRANCH   1  24
TORSDOF 5
ENDMDL
MODEL 9
REMARK VINA RESULT:      -6.1      5.098      7.442
REMARK  Name = 
REMARK  5 active torsions:
REMARK  status: ('A' for Active; 'I' for Inactive)
REMARK    1  A    between atoms: O_1  and  C_2
REMARK    2  A    between atoms: C_2  and  C_3
REMARK    3  A    between atoms: C_3  and  N_4
REMARK    4  A    between atoms: C_11  and  C_20
REMARK    5  A    between atoms: C_12  and  C_14
REMARK                            x       y       z     vdW  Elec       q    Type
REMARK                         _______ _______ _______ _____ _____    ______ ____
ROOT
ATOM      1  N   UNL     1       8.808   1.849  24.202  0.00  0.00    -0.326 N 
ATOM      2  H   UNL     1       8.050   1.762  24.876  0.00  0.00    +0.148 HD
ATOM      3  C   UNL     1       8.956   0.684  23.451  0.00  0.00    +0.134 A 
ATOM      4  C   UNL     1       8.497  -0.585  23.865  0.00  0.00    +0.088 A 
ATOM      5  C   UNL     1       7.749  -1.181  24.953  0.00  0.00    +0.041 A 
ATOM      6  C   UNL     1       7.675  -2.544  24.666  0.00  0.00    +0.146 A 
ATOM      7  O   UNL     1       8.298  -2.793  23.478  0.00  0.00    -0.436 OA
ATOM      8  C   UNL     1       8.785  -1.631  22.995  0.00  0.00    +0.233 A 
ATOM      9  N   UNL     1       9.433  -1.578  21.825  0.00  0.00    -0.200 NA
ATOM     10  C   UNL     1       9.819  -0.339  21.536  0.00  0.00    +0.227 A 
ATOM     11  N   UNL     1       9.617   0.768  22.267  0.00  0.00    -0.220 NA
ENDROOT
BRANCH   5  12
ATOM     12  C   UNL     1       7.072  -0.536  26.080  0.00  0.00    -0.014 A 
ATOM     13  C   UNL     1       7.801  -0.062  27.180  0.00  0.00    +0.008 A 
ATOM     14  C   UNL     1       7.197   0.741  28.154  0.00  0.00    +0.001 A 
ATOM     15  C   UNL     1       5.830   0.993  28.101  0.00  0.00    +0.000 A 
ATOM     16  C   UNL     1       5.068   0.442  27.076  0.00  0.00    +0.001 A 
ATOM     17  C   UNL     1       5.691  -0.294  26.058  0.00  0.00    +0.008 A 
ENDBRANCH   5  12
BRANCH   6  18
ATOM     18  C   UNL     1       7.134  -3.751  25.292  0.00  0.00    +0.018 A 
ATOM     19  C   UNL     1       6.010  -4.403  24.771  0.00  0.00    +0.011 A 
ATOM     20  C   UNL     1       5.477  -5.531  25.404  0.00  0.00    +0.001 A 
ATOM     21  C   UNL     1       6.058  -6.017  26.575  0.00  0.00    +0.000 A 
ATOM     22  C   UNL     1       7.178  -5.386  27.105  0.00  0.00    +0.001 A 
ATOM     23  C   UNL     1       7.712  -4.264  26.467  0.00  0.00    +0.011 A 
ENDBRANCH   6  18
BRANCH   1  24
ATOM     24  C   UNL     1       8.613   3.100  23.470  0.00  0.00    +0.130 C 
BRANCH  24  25
ATOM     25  C   UNL     1       9.810   4.015  23.755  0.00  0.00    +0.174 C 
BRANCH  25  26
ATOM     26  O   UNL     1      10.913   3.593  22.944  0.00  0.00    -0.393 OA
ATOM     27  H   UNL     1      10.734   2.680  22.661  0.00  0.00    +0.209 HD
ENDBRANCH  25  26
ENDBRANCH  24  25
ENDBRANCH   1  24
TORSDOF 5
ENDMDL
