MODEL 1
REMARK VINA RESULT:      -7.7      0.000      0.000
REMARK  Name = 
REMARK  4 active torsions:
REMARK  status: ('A' for Active; 'I' for Inactive)
REMARK    1  A    between atoms: N_4  and  C_5
REMARK    2  A    between atoms: C_7  and  C_10
REMARK    3  A    between atoms: C_13  and  C_14
REMARK    4  A    between atoms: C_14  and  N_15
REMARK                            x       y       z     vdW  Elec       q    Type
REMARK                         _______ _______ _______ _____ _____    ______ ____
ROOT
ATOM      1  C   UNL     1       8.621  -2.283  23.696  0.00  0.00    +0.038 A 
ATOM      2  S   UNL     1       7.738  -0.941  23.115  0.00  0.00    -0.090 S 
ATOM      3  C   UNL     1       9.119  -0.246  22.385  0.00  0.00    +0.008 A 
ATOM      4  C   UNL     1      10.249  -1.005  22.624  0.00  0.00    +0.013 A 
ATOM      5  C   UNL     1       9.958  -2.188  23.372  0.00  0.00    +0.018 A 
ENDROOT
BRANCH   1   9
ATOM      6  C   UNL     1       6.449  -4.943  24.931  0.00  0.00    +0.272 A 
ATOM      7  S   UNL     1       7.614  -5.245  26.177  0.00  0.00    -0.038 S 
ATOM      8  C   UNL     1       8.611  -4.011  25.550  0.00  0.00    +0.079 A 
ATOM      9  C   UNL     1       8.013  -3.430  24.453  0.00  0.00    +0.088 A 
ATOM     10  N   UNL     1       6.792  -3.978  24.091  0.00  0.00    -0.206 NA
BRANCH   6  15
ATOM     11  N   UNL     1       3.953  -7.194  23.841  0.00  0.00    -0.289 N 
ATOM     12  H   UNL     1       3.356  -7.026  24.643  0.00  0.00    +0.255 HD
ATOM     13  H   UNL     1       3.433  -7.132  22.973  0.00  0.00    +0.255 HD
ATOM     14  C   UNL     1       5.036  -6.379  23.858  0.00  0.00    +0.384 C 
ATOM     15  N   UNL     1       5.340  -5.726  24.926  0.00  0.00    -0.045 NA
ATOM     16  N   UNL     1       5.633  -6.400  22.642  0.00  0.00    -0.289 N 
ATOM     17  H   UNL     1       6.532  -5.915  22.670  0.00  0.00    +0.255 HD
ATOM     18  H   UNL     1       5.751  -7.343  22.289  0.00  0.00    +0.255 HD
ENDBRANCH   6  15
ENDBRANCH   1   9
BRANCH   3  19
ATOM     19  C   UNL     1       8.993   1.051  21.628  0.00  0.00    +0.147 C 
BRANCH  19  20
ATOM     20  N   UNL     1      10.146   1.913  21.819  0.00  0.00    -0.310 N 
ATOM     21  H   UNL     1      10.802   1.918  21.047  0.00  0.00    +0.149 HD
ATOM     22  C   UNL     1      10.045   2.955  22.662  0.00  0.00    +0.194 A 
ATOM     23  N   UNL     1      11.103   3.812  22.802  0.00  0.00    -0.326 N 
ATOM     24  H   UNL     1      11.988   3.722  22.334  0.00  0.00    +0.169 HD
ATOM     25  C   UNL     1      10.759   4.782  23.706  0.00  0.00    +0.067 A 
ATOM     26  C   UNL     1      11.446   5.888  24.210  0.00  0.00    +0.028 A 
ATOM     27  C   UNL     1      10.758   6.684  25.132  0.00  0.00    +0.002 A 
ATOM     28  C   UNL     1       9.453   6.377  25.526  0.00  0.00    +0.002 A 
ATOM     29  C   UNL     1       8.791   5.254  25.011  0.00  0.00    +0.030 A 
ATOM     30  C   UNL     1       9.464   4.444  24.082  0.00  0.00    +0.091 A 
ATOM     31  N   UNL     1       9.046   3.306  23.433  0.00  0.00    -0.215 NA
ENDBRANCH  19  20
ENDBRANCH   3  19
TORSDOF 4
ENDMDL
MODEL 2
REMARK VINA RESULT:      -7.6      2.118     10.120
REMARK  Name = 
REMARK  4 active torsions:
REMARK  status: ('A' for Active; 'I' for Inactive)
REMARK    1  A    between atoms: N_4  and  C_5
REMARK    2  A    between atoms: C_7  and  C_10
REMARK    3  A    between atoms: C_13  and  C_14
REMARK    4  A    between atoms: C_14  and  N_15
REMARK                            x       y       z     vdW  Elec       q    Type
REMARK                         _______ _______ _______ _____ _____    ______ ____
ROOT
ATOM      1  C   UNL     1       9.855   1.120  23.172  0.00  0.00    +0.038 A 
ATOM      2  S   UNL     1       9.661  -0.025  24.425  0.00  0.00    -0.090 S 
ATOM      3  C   UNL     1       9.533  -1.327  23.324  0.00  0.00    +0.008 A 
ATOM      4  C   UNL     1       9.589  -0.886  22.016  0.00  0.00    +0.013 A 
ATOM      5  C   UNL     1       9.787   0.527  21.929  0.00  0.00    +0.018 A 
ENDROOT
BRANCH   1   9
ATOM      6  C   UNL     1      11.295   4.455  23.528  0.00  0.00    +0.272 A 
ATOM      7  S   UNL     1       9.727   5.026  23.993  0.00  0.00    -0.038 S 
ATOM      8  C   UNL     1       9.090   3.457  23.789  0.00  0.00    +0.079 A 
ATOM      9  C   UNL     1      10.086   2.588  23.398  0.00  0.00    +0.088 A 
ATOM     10  N   UNL     1      11.335   3.165  23.229  0.00  0.00    -0.206 NA
BRANCH   6  15
ATOM     11  N   UNL     1      13.943   6.463  22.328  0.00  0.00    -0.289 N 
ATOM     12  H   UNL     1      14.192   6.804  23.250  0.00  0.00    +0.255 HD
ATOM     13  H   UNL     1      14.758   6.134  21.823  0.00  0.00    +0.255 HD
ATOM     14  C   UNL     1      12.964   5.529  22.400  0.00  0.00    +0.384 C 
ATOM     15  N   UNL     1      12.294   5.373  23.489  0.00  0.00    -0.045 NA
ATOM     16  N   UNL     1      12.879   4.876  21.216  0.00  0.00    -0.289 N 
ATOM     17  H   UNL     1      12.053   4.273  21.192  0.00  0.00    +0.255 HD
ATOM     18  H   UNL     1      12.874   5.512  20.426  0.00  0.00    +0.255 HD
ENDBRANCH   6  15
ENDBRANCH   1   9
BRANCH   3  19
ATOM     19  C   UNL     1       9.354  -2.730  23.844  0.00  0.00    +0.147 C 
BRANCH  19  20
ATOM     20  N   UNL     1       8.297  -3.443  23.149  0.00  0.00    -0.310 N 
ATOM     21  H   UNL     1       8.481  -3.624  22.170  0.00  0.00    +0.149 HD
ATOM     22  C   UNL     1       7.460  -4.216  23.861  0.00  0.00    +0.194 A 
ATOM     23  N   UNL     1       6.498  -4.944  23.211  0.00  0.00    -0.326 N 
ATOM     24  H   UNL     1       6.339  -4.937  22.218  0.00  0.00    +0.169 HD
ATOM     25  C   UNL     1       5.780  -5.645  24.143  0.00  0.00    +0.067 A 
ATOM     26  C   UNL     1       4.706  -6.530  24.035  0.00  0.00    +0.028 A 
ATOM     27  C   UNL     1       4.227  -7.079  25.229  0.00  0.00    +0.002 A 
ATOM     28  C   UNL     1       4.795  -6.746  26.462  0.00  0.00    +0.002 A 
ATOM     29  C   UNL     1       5.867  -5.846  26.541  0.00  0.00    +0.030 A 
ATOM     30  C   UNL     1       6.365  -5.288  25.353  0.00  0.00    +0.091 A 
ATOM     31  N   UNL     1       7.393  -4.396  25.157  0.00  0.00    -0.215 NA
ENDBRANCH  19  20
ENDBRANCH   3  19
TORSDOF 4
ENDMDL
MODEL 3
REMARK VINA RESULT:      -7.6      1.943      2.473
REMARK  Name = 
REMARK  4 active torsions:
REMARK  status: ('A' for Active; 'I' for Inactive)
REMARK    1  A    between atoms: N_4  and  C_5
REMARK    2  A    between atoms: C_7  and  C_10
REMARK    3  A    between atoms: C_13  and  C_14
REMARK    4  A    between atoms: C_14  and  N_15
REMARK                            x       y       z     vdW  Elec       q    Type
REMARK                         _______ _______ _______ _____ _____    ______ ____
ROOT
ATOM      1  C   UNL     1       8.565  -2.819  23.861  0.00  0.00    +0.038 A 
ATOM      2  S   UNL     1       7.773  -1.831  22.715  0.00  0.00    -0.090 S 
ATOM      3  C   UNL     1       9.240  -1.133  22.184  0.00  0.00    +0.008 A 
ATOM      4  C   UNL     1      10.316  -1.614  22.907  0.00  0.00    +0.013 A 
ATOM      5  C   UNL     1       9.926  -2.597  23.868  0.00  0.00    +0.018 A 
ENDROOT
BRANCH   1   9
ATOM      6  C   UNL     1       6.237  -5.224  25.317  0.00  0.00    +0.272 A 
ATOM      7  S   UNL     1       7.269  -5.305  26.706  0.00  0.00    -0.038 S 
ATOM      8  C   UNL     1       8.344  -4.199  25.977  0.00  0.00    +0.079 A 
ATOM      9  C   UNL     1       7.866  -3.817  24.741  0.00  0.00    +0.088 A 
ATOM     10  N   UNL     1       6.677  -4.421  24.361  0.00  0.00    -0.206 NA
BRANCH   6  15
ATOM     11  N   UNL     1       3.666  -7.409  24.268  0.00  0.00    -0.289 N 
ATOM     12  H   UNL     1       3.112  -7.268  25.106  0.00  0.00    +0.255 HD
ATOM     13  H   UNL     1       3.104  -7.308  23.431  0.00  0.00    +0.255 HD
ATOM     14  C   UNL     1       4.757  -6.605  24.262  0.00  0.00    +0.384 C 
ATOM     15  N   UNL     1       5.122  -5.998  25.337  0.00  0.00    -0.045 NA
ATOM     16  N   UNL     1       5.291  -6.583  23.017  0.00  0.00    -0.289 N 
ATOM     17  H   UNL     1       6.197  -6.108  23.018  0.00  0.00    +0.255 HD
ATOM     18  H   UNL     1       5.382  -7.513  22.622  0.00  0.00    +0.255 HD
ENDBRANCH   6  15
ENDBRANCH   1   9
BRANCH   3  19
ATOM     19  C   UNL     1       9.225  -0.109  21.078  0.00  0.00    +0.147 C 
BRANCH  19  20
ATOM     20  N   UNL     1       9.526   1.227  21.560  0.00  0.00    -0.310 N 
ATOM     21  H   UNL     1      10.427   1.588  21.272  0.00  0.00    +0.149 HD
ATOM     22  C   UNL     1       8.509   2.047  21.876  0.00  0.00    +0.194 A 
ATOM     23  N   UNL     1       8.778   3.331  22.272  0.00  0.00    -0.326 N 
ATOM     24  H   UNL     1       9.698   3.725  22.372  0.00  0.00    +0.169 HD
ATOM     25  C   UNL     1       7.591   3.962  22.533  0.00  0.00    +0.067 A 
ATOM     26  C   UNL     1       7.285   5.255  22.959  0.00  0.00    +0.028 A 
ATOM     27  C   UNL     1       5.927   5.557  23.112  0.00  0.00    +0.002 A 
ATOM     28  C   UNL     1       4.937   4.604  22.857  0.00  0.00    +0.002 A 
ATOM     29  C   UNL     1       5.275   3.310  22.441  0.00  0.00    +0.030 A 
ATOM     30  C   UNL     1       6.632   2.988  22.277  0.00  0.00    +0.091 A 
ATOM     31  N   UNL     1       7.222   1.810  21.884  0.00  0.00    -0.215 NA
ENDBRANCH  19  20
ENDBRANCH   3  19
TORSDOF 4
ENDMDL
MODEL 4
REMARK VINA RESULT:      -7.5      3.085      5.363
REMARK  Name = 
REMARK  4 active torsions:
REMARK  status: ('A' for Active; 'I' for Inactive)
REMARK    1  A    between atoms: N_4  and  C_5
REMARK    2  A    between atoms: C_7  and  C_10
REMARK    3  A    between atoms: C_13  and  C_14
REMARK    4  A    between atoms: C_14  and  N_15
REMARK                            x       y       z     vdW  Elec       q    Type
REMARK                         _______ _______ _______ _____ _____    ______ ____
ROOT
ATOM      1  C   UNL     1       5.728  -5.957  26.125  0.00  0.00    +0.038 A 
ATOM      2  S   UNL     1       6.619  -5.329  24.809  0.00  0.00    -0.090 S 
ATOM      3  C   UNL     1       7.929  -4.874  25.809  0.00  0.00    +0.008 A 
ATOM      4  C   UNL     1       7.667  -5.154  27.137  0.00  0.00    +0.013 A 
ATOM      5  C   UNL     1       6.401  -5.790  27.317  0.00  0.00    +0.018 A 
ENDROOT
BRANCH   1   9
ATOM      6  C   UNL     1       2.795  -7.799  24.973  0.00  0.00    +0.272 A 
ATOM      7  S   UNL     1       2.012  -7.379  26.460  0.00  0.00    -0.038 S 
ATOM      8  C   UNL     1       3.413  -6.551  26.970  0.00  0.00    +0.079 A 
ATOM      9  C   UNL     1       4.386  -6.621  25.996  0.00  0.00    +0.088 A 
ATOM     10  N   UNL     1       4.037  -7.350  24.870  0.00  0.00    -0.206 NA
BRANCH   6  15
ATOM     11  N   UNL     1       1.118  -8.815  22.033  0.00  0.00    -0.289 N 
ATOM     12  H   UNL     1       0.706  -9.632  22.471  0.00  0.00    +0.255 HD
ATOM     13  H   UNL     1       0.425  -8.276  21.528  0.00  0.00    +0.255 HD
ATOM     14  C   UNL     1       1.799  -8.068  22.937  0.00  0.00    +0.384 C 
ATOM     15  N   UNL     1       2.083  -8.552  24.096  0.00  0.00    -0.045 NA
ATOM     16  N   UNL     1       2.059  -6.849  22.406  0.00  0.00    -0.289 N 
ATOM     17  H   UNL     1       2.699  -6.321  23.005  0.00  0.00    +0.255 HD
ATOM     18  H   UNL     1       2.430  -6.912  21.464  0.00  0.00    +0.255 HD
ENDBRANCH   6  15
ENDBRANCH   1   9
BRANCH   3  19
ATOM     19  C   UNL     1       9.146  -4.229  25.199  0.00  0.00    +0.147 C 
BRANCH  19  20
ATOM     20  N   UNL     1       8.867  -3.649  23.897  0.00  0.00    -0.310 N 
ATOM     21  H   UNL     1       8.112  -4.093  23.389  0.00  0.00    +0.149 HD
ATOM     22  C   UNL     1       9.211  -2.370  23.670  0.00  0.00    +0.194 A 
ATOM     23  N   UNL     1       8.897  -1.792  22.468  0.00  0.00    -0.326 N 
ATOM     24  H   UNL     1       8.437  -2.257  21.705  0.00  0.00    +0.169 HD
ATOM     25  C   UNL     1       9.345  -0.498  22.479  0.00  0.00    +0.067 A 
ATOM     26  C   UNL     1       9.290   0.527  21.532  0.00  0.00    +0.028 A 
ATOM     27  C   UNL     1       9.854   1.752  21.904  0.00  0.00    +0.002 A 
ATOM     28  C   UNL     1      10.447   1.928  23.158  0.00  0.00    +0.002 A 
ATOM     29  C   UNL     1      10.497   0.878  24.084  0.00  0.00    +0.030 A 
ATOM     30  C   UNL     1       9.933  -0.358  23.731  0.00  0.00    +0.091 A 
ATOM     31  N   UNL     1       9.849  -1.530  24.446  0.00  0.00    -0.215 NA
ENDBRANCH  19  20
ENDBRANCH   3  19
TORSDOF 4
ENDMDL
MODEL 5
REMARK VINA RESULT:      -7.5      2.045      3.033
REMARK  Name = 
REMARK  4 active torsions:
REMARK  status: ('A' for Active; 'I' for Inactive)
REMARK    1  A    between atoms: N_4  and  C_5
REMARK    2  A    between atoms: C_7  and  C_10
REMARK    3  A    between atoms: C_13  and  C_14
REMARK    4  A    between atoms: C_14  and  N_15
REMARK                            x       y       z     vdW  Elec       q    Type
REMARK                         _______ _______ _______ _____ _____    ______ ____
ROOT
ATOM      1  C   UNL     1       7.874  -3.693  23.822  0.00  0.00    +0.038 A 
ATOM      2  S   UNL     1       7.943  -2.713  22.425  0.00  0.00    -0.090 S 
ATOM      3  C   UNL     1       9.471  -2.074  22.851  0.00  0.00    +0.008 A 
ATOM      4  C   UNL     1       9.899  -2.566  24.069  0.00  0.00    +0.013 A 
ATOM      5  C   UNL     1       8.981  -3.511  24.624  0.00  0.00    +0.018 A 
ENDROOT
BRANCH   1   9
ATOM      6  C   UNL     1       5.573  -6.047  25.398  0.00  0.00    +0.272 A 
ATOM      7  S   UNL     1       4.725  -6.148  23.891  0.00  0.00    -0.038 S 
ATOM      8  C   UNL     1       5.808  -5.024  23.201  0.00  0.00    +0.079 A 
ATOM      9  C   UNL     1       6.753  -4.645  24.130  0.00  0.00    +0.088 A 
ATOM     10  N   UNL     1       6.602  -5.214  25.386  0.00  0.00    -0.206 NA
BRANCH   6  15
ATOM     11  N   UNL     1       5.191  -7.456  28.616  0.00  0.00    -0.289 N 
ATOM     12  H   UNL     1       4.512  -8.144  28.307  0.00  0.00    +0.255 HD
ATOM     13  H   UNL     1       5.924  -7.882  29.170  0.00  0.00    +0.255 HD
ATOM     14  C   UNL     1       5.676  -6.745  27.569  0.00  0.00    +0.384 C 
ATOM     15  N   UNL     1       5.090  -6.794  26.423  0.00  0.00    -0.045 NA
ATOM     16  N   UNL     1       6.786  -6.073  27.959  0.00  0.00    -0.289 N 
ATOM     17  H   UNL     1       7.085  -5.415  27.236  0.00  0.00    +0.255 HD
ATOM     18  H   UNL     1       6.652  -5.591  28.841  0.00  0.00    +0.255 HD
ENDBRANCH   6  15
ENDBRANCH   1   9
BRANCH   3  19
ATOM     19  C   UNL     1      10.147  -1.082  21.941  0.00  0.00    +0.147 C 
BRANCH  19  20
ATOM     20  N   UNL     1       9.204  -0.151  21.344  0.00  0.00    -0.310 N 
ATOM     21  H   UNL     1       8.503  -0.581  20.753  0.00  0.00    +0.149 HD
ATOM     22  C   UNL     1       8.988   1.029  21.947  0.00  0.00    +0.194 A 
ATOM     23  N   UNL     1       8.055   1.889  21.429  0.00  0.00    -0.326 N 
ATOM     24  H   UNL     1       7.513   1.723  20.599  0.00  0.00    +0.169 HD
ATOM     25  C   UNL     1       8.017   3.011  22.213  0.00  0.00    +0.067 A 
ATOM     26  C   UNL     1       7.259   4.182  22.148  0.00  0.00    +0.028 A 
ATOM     27  C   UNL     1       7.485   5.129  23.152  0.00  0.00    +0.002 A 
ATOM     28  C   UNL     1       8.428   4.909  24.160  0.00  0.00    +0.002 A 
ATOM     29  C   UNL     1       9.182   3.729  24.194  0.00  0.00    +0.030 A 
ATOM     30  C   UNL     1       8.967   2.763  23.198  0.00  0.00    +0.091 A 
ATOM     31  N   UNL     1       9.563   1.539  23.008  0.00  0.00    -0.215 NA
ENDBRANCH  19  20
ENDBRANCH   3  19
TORSDOF 4
ENDMDL
MODEL 6
REMARK VINA RESULT:      -7.1      2.226      3.509
REMARK  Name = 
REMARK  4 active torsions:
REMARK  status: ('A' for Active; 'I' for Inactive)
REMARK    1  A    between atoms: N_4  and  C_5
REMARK    2  A    between atoms: C_7  and  C_10
REMARK    3  A    between atoms: C_13  and  C_14
REMARK    4  A    between atoms: C_14  and  N_15
REMARK                            x       y       z     vdW  Elec       q    Type
REMARK                         _______ _______ _______ _____ _____    ______ ____
ROOT
ATOM      1  C   UNL     1       7.251  -4.942  25.359  0.00  0.00    +0.038 A 
ATOM      2  S   UNL     1       7.277  -3.523  24.407  0.00  0.00    -0.090 S 
ATOM      3  C   UNL     1       8.985  -3.452  24.416  0.00  0.00    +0.008 A 
ATOM      4  C   UNL     1       9.526  -4.471  25.177  0.00  0.00    +0.013 A 
ATOM      5  C   UNL     1       8.523  -5.338  25.712  0.00  0.00    +0.018 A 
ENDROOT
BRANCH   1   9
ATOM      6  C   UNL     1       4.227  -6.984  25.417  0.00  0.00    +0.272 A 
ATOM      7  S   UNL     1       3.999  -6.509  27.067  0.00  0.00    -0.038 S 
ATOM      8  C   UNL     1       5.434  -5.587  27.004  0.00  0.00    +0.079 A 
ATOM      9  C   UNL     1       5.997  -5.673  25.749  0.00  0.00    +0.088 A 
ATOM     10  N   UNL     1       5.318  -6.487  24.855  0.00  0.00    -0.206 NA
BRANCH   6  15
ATOM     11  N   UNL     1       1.850  -8.364  23.196  0.00  0.00    -0.289 N 
ATOM     12  H   UNL     1       1.535  -9.063  23.861  0.00  0.00    +0.255 HD
ATOM     13  H   UNL     1       1.069  -7.872  22.779  0.00  0.00    +0.255 HD
ATOM     14  C   UNL     1       2.753  -7.526  23.760  0.00  0.00    +0.384 C 
ATOM     15  N   UNL     1       3.299  -7.823  24.887  0.00  0.00    -0.045 NA
ATOM     16  N   UNL     1       2.910  -6.438  22.968  0.00  0.00    -0.289 N 
ATOM     17  H   UNL     1       3.692  -5.863  23.290  0.00  0.00    +0.255 HD
ATOM     18  H   UNL     1       3.035  -6.688  21.992  0.00  0.00    +0.255 HD
ENDBRANCH   6  15
ENDBRANCH   1   9
BRANCH   3  19
ATOM     19  C   UNL     1       9.692  -2.348  23.673  0.00  0.00    +0.147 C 
BRANCH  19  20
ATOM     20  N   UNL     1       9.906  -1.175  24.503  0.00  0.00    -0.310 N 
ATOM     21  H   UNL     1      10.724  -1.223  25.099  0.00  0.00    +0.149 HD
ATOM     22  C   UNL     1       9.392   0.001  24.108  0.00  0.00    +0.194 A 
ATOM     23  N   UNL     1       9.640   1.127  24.849  0.00  0.00    -0.326 N 
ATOM     24  H   UNL     1      10.172   1.153  25.702  0.00  0.00    +0.169 HD
ATOM     25  C   UNL     1       9.017   2.188  24.248  0.00  0.00    +0.067 A 
ATOM     26  C   UNL     1       8.943   3.544  24.570  0.00  0.00    +0.028 A 
ATOM     27  C   UNL     1       8.209   4.354  23.698  0.00  0.00    +0.002 A 
ATOM     28  C   UNL     1       7.579   3.823  22.569  0.00  0.00    +0.002 A 
ATOM     29  C   UNL     1       7.662   2.456  22.276  0.00  0.00    +0.030 A 
ATOM     30  C   UNL     1       8.397   1.626  23.137  0.00  0.00    +0.091 A 
ATOM     31  N   UNL     1       8.632   0.272  23.076  0.00  0.00    -0.215 NA
ENDBRANCH  19  20
ENDBRANCH   3  19
TORSDOF 4
ENDMDL
MODEL 7
REMARK VINA RESULT:      -7.1      1.855      2.275
REMARK  Name = 
REMARK  4 active torsions:
REMARK  status: ('A' for Active; 'I' for Inactive)
REMARK    1  A    between atoms: N_4  and  C_5
REMARK    2  A    between atoms: C_7  and  C_10
REMARK    3  A    between atoms: C_13  and  C_14
REMARK    4  A    between atoms: C_14  and  N_15
REMARK                            x       y       z     vdW  Elec       q    Type
REMARK                         _______ _______ _______ _____ _____    ______ ____
ROOT
ATOM      1  C   UNL     1       8.204  -2.656  23.249  0.00  0.00    +0.038 A 
ATOM      2  S   UNL     1       8.734  -1.946  24.710  0.00  0.00    -0.090 S 
ATOM      3  C   UNL     1       9.603  -0.720  23.892  0.00  0.00    +0.008 A 
ATOM      4  C   UNL     1       9.527  -0.881  22.521  0.00  0.00    +0.013 A 
ATOM      5  C   UNL     1       8.710  -1.993  22.151  0.00  0.00    +0.018 A 
ENDROOT
BRANCH   1   9
ATOM      6  C   UNL     1       5.891  -5.384  23.974  0.00  0.00    +0.272 A 
ATOM      7  S   UNL     1       6.021  -5.867  22.315  0.00  0.00    -0.038 S 
ATOM      8  C   UNL     1       7.079  -4.563  22.014  0.00  0.00    +0.079 A 
ATOM      9  C   UNL     1       7.289  -3.845  23.173  0.00  0.00    +0.088 A 
ATOM     10  N   UNL     1       6.593  -4.304  24.281  0.00  0.00    -0.206 NA
BRANCH   6  15
ATOM     11  N   UNL     1       4.606  -7.061  26.806  0.00  0.00    -0.289 N 
ATOM     12  H   UNL     1       3.885  -7.541  26.279  0.00  0.00    +0.255 HD
ATOM     13  H   UNL     1       5.117  -7.701  27.402  0.00  0.00    +0.255 HD
ATOM     14  C   UNL     1       5.419  -6.349  25.988  0.00  0.00    +0.384 C 
ATOM     15  N   UNL     1       5.077  -6.128  24.766  0.00  0.00    -0.045 NA
ATOM     16  N   UNL     1       6.535  -5.989  26.667  0.00  0.00    -0.289 N 
ATOM     17  H   UNL     1       7.093  -5.327  26.123  0.00  0.00    +0.255 HD
ATOM     18  H   UNL     1       6.320  -5.602  27.580  0.00  0.00    +0.255 HD
ENDBRANCH   6  15
ENDBRANCH   1   9
BRANCH   3  19
ATOM     19  C   UNL     1      10.341   0.328  24.683  0.00  0.00    +0.147 C 
BRANCH  19  20
ATOM     20  N   UNL     1      10.629   1.513  23.893  0.00  0.00    -0.310 N 
ATOM     21  H   UNL     1      11.093   1.330  23.012  0.00  0.00    +0.149 HD
ATOM     22  C   UNL     1       9.882   2.614  24.080  0.00  0.00    +0.194 A 
ATOM     23  N   UNL     1      10.102   3.717  23.298  0.00  0.00    -0.326 N 
ATOM     24  H   UNL     1      10.809   3.790  22.586  0.00  0.00    +0.169 HD
ATOM     25  C   UNL     1       9.224   4.698  23.674  0.00  0.00    +0.067 A 
ATOM     26  C   UNL     1       9.013   6.000  23.217  0.00  0.00    +0.028 A 
ATOM     27  C   UNL     1       7.995   6.725  23.846  0.00  0.00    +0.002 A 
ATOM     28  C   UNL     1       7.239   6.169  24.882  0.00  0.00    +0.002 A 
ATOM     29  C   UNL     1       7.481   4.862  25.327  0.00  0.00    +0.030 A 
ATOM     30  C   UNL     1       8.496   4.117  24.706  0.00  0.00    +0.091 A 
ATOM     31  N   UNL     1       8.927   2.833  24.948  0.00  0.00    -0.215 NA
ENDBRANCH  19  20
ENDBRANCH   3  19
TORSDOF 4
ENDMDL
MODEL 8
REMARK VINA RESULT:      -7.0      2.462      9.956
REMARK  Name = 
REMARK  4 active torsions:
REMARK  status: ('A' for Active; 'I' for Inactive)
REMARK    1  A    between atoms: N_4  and  C_5
REMARK    2  A    between atoms: C_7  and  C_10
REMARK    3  A    between atoms: C_13  and  C_14
REMARK    4  A    between atoms: C_14  and  N_15
REMARK                            x       y       z     vdW  Elec       q    Type
REMARK                         _______ _______ _______ _____ _____    ______ ____
ROOT
ATOM      1  C   UNL     1       7.803  -2.409  23.513  0.00  0.00    +0.038 A 
ATOM      2  S   UNL     1       6.958  -3.235  22.279  0.00  0.00    -0.090 S 
ATOM      3  C   UNL     1       7.422  -4.768  22.878  0.00  0.00    +0.008 A 
ATOM      4  C   UNL     1       8.250  -4.648  23.978  0.00  0.00    +0.013 A 
ATOM      5  C   UNL     1       8.460  -3.284  24.351  0.00  0.00    +0.018 A 
ENDROOT
BRANCH   1   9
ATOM      6  C   UNL     1       8.749   1.091  23.932  0.00  0.00    +0.272 A 
ATOM      7  S   UNL     1       7.064   1.487  23.986  0.00  0.00    -0.038 S 
ATOM      8  C   UNL     1       6.665  -0.157  23.763  0.00  0.00    +0.079 A 
ATOM      9  C   UNL     1       7.814  -0.914  23.674  0.00  0.00    +0.088 A 
ATOM     10  N   UNL     1       8.997  -0.197  23.749  0.00  0.00    -0.206 NA
BRANCH   6  15
ATOM     11  N   UNL     1      11.062   3.626  23.088  0.00  0.00    -0.289 N 
ATOM     12  H   UNL     1      11.316   3.809  24.053  0.00  0.00    +0.255 HD
ATOM     13  H   UNL     1      11.883   3.512  22.505  0.00  0.00    +0.255 HD
ATOM     14  C   UNL     1      10.210   2.575  22.998  0.00  0.00    +0.384 C 
ATOM     15  N   UNL     1       9.624   2.122  24.051  0.00  0.00    -0.045 NA
ATOM     16  N   UNL     1      10.144   2.161  21.709  0.00  0.00    -0.289 N 
ATOM     17  H   UNL     1       9.399   1.472  21.587  0.00  0.00    +0.255 HD
ATOM     18  H   UNL     1      10.019   2.934  21.064  0.00  0.00    +0.255 HD
ENDBRANCH   6  15
ENDBRANCH   1   9
BRANCH   3  19
ATOM     19  C   UNL     1       6.944  -6.017  22.185  0.00  0.00    +0.147 C 
BRANCH  19  20
ATOM     20  N   UNL     1       5.505  -6.018  21.982  0.00  0.00    -0.310 N 
ATOM     21  H   UNL     1       5.212  -6.216  21.033  0.00  0.00    +0.149 HD
ATOM     22  C   UNL     1       4.703  -6.264  23.031  0.00  0.00    +0.194 A 
ATOM     23  N   UNL     1       3.348  -6.330  22.841  0.00  0.00    -0.326 N 
ATOM     24  H   UNL     1       2.878  -6.187  21.963  0.00  0.00    +0.169 HD
ATOM     25  C   UNL     1       2.753  -6.591  24.047  0.00  0.00    +0.067 A 
ATOM     26  C   UNL     1       1.419  -6.760  24.423  0.00  0.00    +0.028 A 
ATOM     27  C   UNL     1       1.181  -7.032  25.774  0.00  0.00    +0.002 A 
ATOM     28  C   UNL     1       2.230  -7.121  26.694  0.00  0.00    +0.002 A 
ATOM     29  C   UNL     1       3.559  -6.936  26.289  0.00  0.00    +0.030 A 
ATOM     30  C   UNL     1       3.819  -6.666  24.936  0.00  0.00    +0.091 A 
ATOM     31  N   UNL     1       5.013  -6.450  24.290  0.00  0.00    -0.215 NA
ENDBRANCH  19  20
ENDBRANCH   3  19
TORSDOF 4
ENDMDL
MODEL 9
REMARK VINA RESULT:      -7.0      2.337      9.474
REMARK  Name = 
REMARK  4 active torsions:
REMARK  status: ('A' for Active; 'I' for Inactive)
REMARK    1  A    between atoms: N_4  and  C_5
REMARK    2  A    between atoms: C_7  and  C_10
REMARK    3  A    between atoms: C_13  and  C_14
REMARK    4  A    between atoms: C_14  and  N_15
REMARK                            x       y       z     vdW  Elec       q    Type
REMARK                         _______ _______ _______ _____ _____    ______ ____
ROOT
ATOM      1  C   UNL     1      10.000   1.311  23.099  0.00  0.00    +0.038 A 
ATOM      2  S   UNL     1      10.207   0.141  24.326  0.00  0.00    -0.090 S 
ATOM      3  C   UNL     1      10.073  -1.158  23.222  0.00  0.00    +0.008 A 
ATOM      4  C   UNL     1       9.825  -0.704  21.941  0.00  0.00    +0.013 A 
ATOM      5  C   UNL     1       9.794   0.723  21.868  0.00  0.00    +0.018 A 
ENDROOT
BRANCH   1   9
ATOM      6  C   UNL     1       9.201   4.840  23.577  0.00  0.00    +0.272 A 
ATOM      7  S   UNL     1      10.901   5.160  23.666  0.00  0.00    -0.038 S 
ATOM      8  C   UNL     1      11.229   3.497  23.466  0.00  0.00    +0.079 A 
ATOM      9  C   UNL     1      10.050   2.795  23.330  0.00  0.00    +0.088 A 
ATOM     10  N   UNL     1       8.898   3.561  23.414  0.00  0.00    -0.206 NA
BRANCH   6  15
ATOM     11  N   UNL     1       6.556   7.107  22.986  0.00  0.00    -0.289 N 
ATOM     12  H   UNL     1       6.902   7.789  23.652  0.00  0.00    +0.255 HD
ATOM     13  H   UNL     1       6.329   7.539  22.098  0.00  0.00    +0.255 HD
ATOM     14  C   UNL     1       7.418   6.070  22.855  0.00  0.00    +0.384 C 
ATOM     15  N   UNL     1       8.369   5.905  23.708  0.00  0.00    -0.045 NA
ATOM     16  N   UNL     1       7.094   5.354  21.752  0.00  0.00    -0.289 N 
ATOM     17  H   UNL     1       7.631   4.485  21.712  0.00  0.00    +0.255 HD
ATOM     18  H   UNL     1       6.100   5.157  21.700  0.00  0.00    +0.255 HD
ENDBRANCH   6  15
ENDBRANCH   1   9
BRANCH   3  19
ATOM     19  C   UNL     1      10.199  -2.575  23.717  0.00  0.00    +0.147 C 
BRANCH  19  20
ATOM     20  N   UNL     1       9.256  -2.873  24.781  0.00  0.00    -0.310 N 
ATOM     21  H   UNL     1       9.229  -2.187  25.526  0.00  0.00    +0.149 HD
ATOM     22  C   UNL     1       8.201  -3.660  24.512  0.00  0.00    +0.194 A 
ATOM     23  N   UNL     1       7.271  -3.896  25.490  0.00  0.00    -0.326 N 
ATOM     24  H   UNL     1       7.316  -3.542  26.430  0.00  0.00    +0.169 HD
ATOM     25  C   UNL     1       6.302  -4.717  24.977  0.00  0.00    +0.067 A 
ATOM     26  C   UNL     1       5.139  -5.261  25.526  0.00  0.00    +0.028 A 
ATOM     27  C   UNL     1       4.366  -6.063  24.681  0.00  0.00    +0.002 A 
ATOM     28  C   UNL     1       4.748  -6.308  23.360  0.00  0.00    +0.002 A 
ATOM     29  C   UNL     1       5.926  -5.757  22.838  0.00  0.00    +0.030 A 
ATOM     30  C   UNL     1       6.715  -4.945  23.669  0.00  0.00    +0.091 A 
ATOM     31  N   UNL     1       7.896  -4.292  23.406  0.00  0.00    -0.215 NA
ENDBRANCH  19  20
ENDBRANCH   3  19
TORSDOF 4
ENDMDL
