MODEL 1
REMARK VINA RESULT:      -4.8      0.000      0.000
REMARK  Name = 
REMARK  5 active torsions:
REMARK  status: ('A' for Active; 'I' for Inactive)
REMARK    1  A    between atoms: O_1  and  P_2
REMARK    2  A    between atoms: P_2  and  O_3
REMARK    3  A    between atoms: P_2  and  O_5
REMARK    4  A    between atoms: O_5  and  C_6
REMARK    5  A    between atoms: C_7  and  C_8
REMARK                            x       y       z     vdW  Elec       q    Type
REMARK                         _______ _______ _______ _____ _____    ______ ____
ROOT
ATOM      1  C   UNL     1       6.297  -5.221  25.450  0.00  0.00    +0.142 A 
ATOM      2  C   UNL     1       5.867  -5.431  24.135  0.00  0.00    +0.047 A 
ATOM      3  C   UNL     1       4.855  -6.353  23.846  0.00  0.00    +0.004 A 
ATOM      4  C   UNL     1       4.255  -7.077  24.871  0.00  0.00    +0.001 A 
ATOM      5  C   UNL     1       4.660  -6.873  26.186  0.00  0.00    +0.015 A 
ATOM      6  C   UNL     1       5.670  -5.940  26.482  0.00  0.00    +0.056 A 
ENDROOT
BRANCH   6   7
ATOM      7  C   UNL     1       5.958  -5.784  27.917  0.00  0.00    +0.262 C 
ATOM      8  O   UNL     1       7.021  -6.156  28.398  0.00  0.00    -0.296 OA
ENDBRANCH   6   7
BRANCH   1   9
ATOM      9  O   UNL     1       7.368  -4.353  25.552  0.00  0.00    -0.403 OA
BRANCH   9  10
ATOM     10  P   UNL     1       8.992  -4.939  25.446  0.00  0.00    +0.528 P 
ATOM     11  O   UNL     1       9.523  -3.624  24.848  0.00  0.00    -0.216 OA
BRANCH  10  12
ATOM     12  O   UNL     1      10.616  -5.524  25.342  0.00  0.00    -0.293 OA
ATOM     13  H   UNL     1      10.728  -6.059  26.149  0.00  0.00    +0.223 HD
ENDBRANCH  10  12
BRANCH  10  14
ATOM     14  O   UNL     1       9.209  -4.680  27.047  0.00  0.00    -0.293 OA
ATOM     15  H   UNL     1       8.783  -5.422  27.516  0.00  0.00    +0.223 HD
ENDBRANCH  10  14
ENDBRANCH   9  10
ENDBRANCH   1   9
TORSDOF 5
ENDMDL
MODEL 2
REMARK VINA RESULT:      -4.7      2.000      2.988
REMARK  Name = 
REMARK  5 active torsions:
REMARK  status: ('A' for Active; 'I' for Inactive)
REMARK    1  A    between atoms: O_1  and  P_2
REMARK    2  A    between atoms: P_2  and  O_3
REMARK    3  A    between atoms: P_2  and  O_5
REMARK    4  A    between atoms: O_5  and  C_6
REMARK    5  A    between atoms: C_7  and  C_8
REMARK                            x       y       z     vdW  Elec       q    Type
REMARK                         _______ _______ _______ _____ _____    ______ ____
ROOT
ATOM      1  C   UNL     1       6.356  -5.301  24.254  0.00  0.00    +0.142 A 
ATOM      2  C   UNL     1       7.358  -4.780  23.428  0.00  0.00    +0.047 A 
ATOM      3  C   UNL     1       7.307  -4.944  22.040  0.00  0.00    +0.004 A 
ATOM      4  C   UNL     1       6.246  -5.630  21.456  0.00  0.00    +0.001 A 
ATOM      5  C   UNL     1       5.233  -6.143  22.259  0.00  0.00    +0.015 A 
ATOM      6  C   UNL     1       5.277  -5.972  23.655  0.00  0.00    +0.056 A 
ENDROOT
BRANCH   6   7
ATOM      7  C   UNL     1       4.114  -6.516  24.374  0.00  0.00    +0.262 C 
ATOM      8  O   UNL     1       3.944  -7.723  24.492  0.00  0.00    -0.296 OA
ENDBRANCH   6   7
BRANCH   1   9
ATOM      9  O   UNL     1       6.609  -5.138  25.603  0.00  0.00    -0.403 OA
BRANCH   9  10
ATOM     10  P   UNL     1       8.231  -5.036  26.193  0.00  0.00    +0.528 P 
ATOM     11  O   UNL     1       8.061  -3.585  26.677  0.00  0.00    -0.216 OA
BRANCH  10  12
ATOM     12  O   UNL     1       9.854  -4.934  26.783  0.00  0.00    -0.293 OA
ATOM     13  H   UNL     1      10.071  -3.986  26.719  0.00  0.00    +0.223 HD
ENDBRANCH  10  12
BRANCH  10  14
ATOM     14  O   UNL     1       7.817  -5.878  27.533  0.00  0.00    -0.293 OA
ATOM     15  H   UNL     1       8.436  -5.613  28.239  0.00  0.00    +0.223 HD
ENDBRANCH  10  14
ENDBRANCH   9  10
ENDBRANCH   1   9
TORSDOF 5
ENDMDL
MODEL 3
REMARK VINA RESULT:      -4.7      4.218      6.007
REMARK  Name = 
REMARK  5 active torsions:
REMARK  status: ('A' for Active; 'I' for Inactive)
REMARK    1  A    between atoms: O_1  and  P_2
REMARK    2  A    between atoms: P_2  and  O_3
REMARK    3  A    between atoms: P_2  and  O_5
REMARK    4  A    between atoms: O_5  and  C_6
REMARK    5  A    between atoms: C_7  and  C_8
REMARK                            x       y       z     vdW  Elec       q    Type
REMARK                         _______ _______ _______ _____ _____    ______ ____
ROOT
ATOM      1  C   UNL     1       9.289  -2.350  24.635  0.00  0.00    +0.142 A 
ATOM      2  C   UNL     1       8.702  -2.016  25.860  0.00  0.00    +0.047 A 
ATOM      3  C   UNL     1       8.586  -0.682  26.263  0.00  0.00    +0.004 A 
ATOM      4  C   UNL     1       9.053   0.341  25.443  0.00  0.00    +0.001 A 
ATOM      5  C   UNL     1       9.628   0.029  24.215  0.00  0.00    +0.015 A 
ATOM      6  C   UNL     1       9.738  -1.311  23.802  0.00  0.00    +0.056 A 
ENDROOT
BRANCH   6   7
ATOM      7  C   UNL     1      10.314  -1.492  22.460  0.00  0.00    +0.262 C 
ATOM      8  O   UNL     1       9.902  -0.856  21.498  0.00  0.00    -0.296 OA
ENDBRANCH   6   7
BRANCH   1   9
ATOM      9  O   UNL     1       9.416  -3.712  24.433  0.00  0.00    -0.403 OA
BRANCH   9  10
ATOM     10  P   UNL     1       8.836  -4.837  25.612  0.00  0.00    +0.528 P 
ATOM     11  O   UNL     1       7.642  -5.270  24.744  0.00  0.00    -0.216 OA
BRANCH  10  12
ATOM     12  O   UNL     1       8.257  -5.963  26.790  0.00  0.00    -0.293 OA
ATOM     13  H   UNL     1       9.008  -6.074  27.401  0.00  0.00    +0.223 HD
ENDBRANCH  10  12
BRANCH  10  14
ATOM     14  O   UNL     1       9.975  -5.922  25.164  0.00  0.00    -0.293 OA
ATOM     15  H   UNL     1       9.524  -6.609  24.637  0.00  0.00    +0.223 HD
ENDBRANCH  10  14
ENDBRANCH   9  10
ENDBRANCH   1   9
TORSDOF 5
ENDMDL
MODEL 4
REMARK VINA RESULT:      -4.7      4.073      5.600
REMARK  Name = 
REMARK  5 active torsions:
REMARK  status: ('A' for Active; 'I' for Inactive)
REMARK    1  A    between atoms: O_1  and  P_2
REMARK    2  A    between atoms: P_2  and  O_3
REMARK    3  A    between atoms: P_2  and  O_5
REMARK    4  A    between atoms: O_5  and  C_6
REMARK    5  A    between atoms: C_7  and  C_8
REMARK                            x       y       z     vdW  Elec       q    Type
REMARK                         _______ _______ _______ _____ _____    ______ ____
ROOT
ATOM      1  C   UNL     1       8.785  -2.117  24.054  0.00  0.00    +0.142 A 
ATOM      2  C   UNL     1       9.797  -1.214  24.396  0.00  0.00    +0.047 A 
ATOM      3  C   UNL     1      10.379  -0.383  23.433  0.00  0.00    +0.004 A 
ATOM      4  C   UNL     1       9.953  -0.441  22.110  0.00  0.00    +0.001 A 
ATOM      5  C   UNL     1       8.938  -1.324  21.752  0.00  0.00    +0.015 A 
ATOM      6  C   UNL     1       8.345  -2.154  22.720  0.00  0.00    +0.056 A 
ENDROOT
BRANCH   6   7
ATOM      7  C   UNL     1       7.248  -2.995  22.213  0.00  0.00    +0.262 C 
ATOM      8  O   UNL     1       7.366  -4.210  22.120  0.00  0.00    -0.296 OA
ENDBRANCH   6   7
BRANCH   1   9
ATOM      9  O   UNL     1       8.389  -2.930  25.099  0.00  0.00    -0.403 OA
BRANCH   9  10
ATOM     10  P   UNL     1       9.135  -4.470  25.352  0.00  0.00    +0.528 P 
ATOM     11  O   UNL     1       8.945  -4.413  26.878  0.00  0.00    -0.216 OA
BRANCH  10  12
ATOM     12  O   UNL     1       9.881  -6.010  25.605  0.00  0.00    -0.293 OA
ATOM     13  H   UNL     1       9.962  -6.384  24.708  0.00  0.00    +0.223 HD
ENDBRANCH  10  12
BRANCH  10  14
ATOM     14  O   UNL     1       7.766  -5.232  24.881  0.00  0.00    -0.293 OA
ATOM     15  H   UNL     1       7.027  -4.812  25.360  0.00  0.00    +0.223 HD
ENDBRANCH  10  14
ENDBRANCH   9  10
ENDBRANCH   1   9
TORSDOF 5
ENDMDL
MODEL 5
REMARK VINA RESULT:      -4.7      6.185      7.670
REMARK  Name = 
REMARK  5 active torsions:
REMARK  status: ('A' for Active; 'I' for Inactive)
REMARK    1  A    between atoms: O_1  and  P_2
REMARK    2  A    between atoms: P_2  and  O_3
REMARK    3  A    between atoms: P_2  and  O_5
REMARK    4  A    between atoms: O_5  and  C_6
REMARK    5  A    between atoms: C_7  and  C_8
REMARK                            x       y       z     vdW  Elec       q    Type
REMARK                         _______ _______ _______ _____ _____    ______ ____
ROOT
ATOM      1  C   UNL     1      10.020  -0.043  24.172  0.00  0.00    +0.142 A 
ATOM      2  C   UNL     1       9.729   0.053  25.537  0.00  0.00    +0.047 A 
ATOM      3  C   UNL     1       8.930  -0.903  26.173  0.00  0.00    +0.004 A 
ATOM      4  C   UNL     1       8.414  -1.975  25.452  0.00  0.00    +0.001 A 
ATOM      5  C   UNL     1       8.704  -2.096  24.097  0.00  0.00    +0.015 A 
ATOM      6  C   UNL     1       9.515  -1.141  23.456  0.00  0.00    +0.056 A 
ENDROOT
BRANCH   6   7
ATOM      7  C   UNL     1       9.785  -1.424  22.037  0.00  0.00    +0.262 C 
ATOM      8  O   UNL     1       9.387  -0.678  21.151  0.00  0.00    -0.296 OA
ENDBRANCH   6   7
BRANCH   1   9
ATOM      9  O   UNL     1      10.737   1.031  23.680  0.00  0.00    -0.403 OA
BRANCH   9  10
ATOM     10  P   UNL     1       9.936   2.500  23.242  0.00  0.00    +0.528 P 
ATOM     11  O   UNL     1      11.190   3.360  23.475  0.00  0.00    -0.216 OA
BRANCH  10  12
ATOM     12  O   UNL     1       9.135   3.969  22.803  0.00  0.00    -0.293 OA
ATOM     13  H   UNL     1       8.534   4.144  23.551  0.00  0.00    +0.223 HD
ENDBRANCH  10  12
BRANCH  10  14
ATOM     14  O   UNL     1      10.084   2.130  21.655  0.00  0.00    -0.293 OA
ATOM     15  H   UNL     1       9.387   1.479  21.448  0.00  0.00    +0.223 HD
ENDBRANCH  10  14
ENDBRANCH   9  10
ENDBRANCH   1   9
TORSDOF 5
ENDMDL
MODEL 6
REMARK VINA RESULT:      -4.6      3.386      4.258
REMARK  Name = 
REMARK  5 active torsions:
REMARK  status: ('A' for Active; 'I' for Inactive)
REMARK    1  A    between atoms: O_1  and  P_2
REMARK    2  A    between atoms: P_2  and  O_3
REMARK    3  A    between atoms: P_2  and  O_5
REMARK    4  A    between atoms: O_5  and  C_6
REMARK    5  A    between atoms: C_7  and  C_8
REMARK                            x       y       z     vdW  Elec       q    Type
REMARK                         _______ _______ _______ _____ _____    ______ ____
ROOT
ATOM      1  C   UNL     1       7.397  -3.633  22.923  0.00  0.00    +0.142 A 
ATOM      2  C   UNL     1       6.515  -3.668  21.838  0.00  0.00    +0.047 A 
ATOM      3  C   UNL     1       6.111  -4.883  21.275  0.00  0.00    +0.004 A 
ATOM      4  C   UNL     1       6.581  -6.085  21.794  0.00  0.00    +0.001 A 
ATOM      5  C   UNL     1       7.449  -6.072  22.882  0.00  0.00    +0.015 A 
ATOM      6  C   UNL     1       7.850  -4.852  23.456  0.00  0.00    +0.056 A 
ENDROOT
BRANCH   6   7
ATOM      7  C   UNL     1       8.722  -4.988  24.634  0.00  0.00    +0.262 C 
ATOM      8  O   UNL     1       9.879  -4.587  24.621  0.00  0.00    -0.296 OA
ENDBRANCH   6   7
BRANCH   1   9
ATOM      9  O   UNL     1       7.771  -2.356  23.294  0.00  0.00    -0.403 OA
BRANCH   9  10
ATOM     10  P   UNL     1       8.859  -1.434  22.315  0.00  0.00    +0.528 P 
ATOM     11  O   UNL     1       8.618  -0.137  23.107  0.00  0.00    -0.216 OA
BRANCH  10  12
ATOM     12  O   UNL     1       9.948  -0.514  21.335  0.00  0.00    -0.293 OA
ATOM     13  H   UNL     1      10.258  -1.149  20.664  0.00  0.00    +0.223 HD
ENDBRANCH  10  12
BRANCH  10  14
ATOM     14  O   UNL     1      10.141  -2.068  23.110  0.00  0.00    -0.293 OA
ATOM     15  H   UNL     1       9.864  -2.940  23.448  0.00  0.00    +0.223 HD
ENDBRANCH  10  14
ENDBRANCH   9  10
ENDBRANCH   1   9
TORSDOF 5
ENDMDL
MODEL 7
REMARK VINA RESULT:      -4.6      5.882      7.291
REMARK  Name = 
REMARK  5 active torsions:
REMARK  status: ('A' for Active; 'I' for Inactive)
REMARK    1  A    between atoms: O_1  and  P_2
REMARK    2  A    between atoms: P_2  and  O_3
REMARK    3  A    between atoms: P_2  and  O_5
REMARK    4  A    between atoms: O_5  and  C_6
REMARK    5  A    between atoms: C_7  and  C_8
REMARK                            x       y       z     vdW  Elec       q    Type
REMARK                         _______ _______ _______ _____ _____    ______ ____
ROOT
ATOM      1  C   UNL     1       9.806   0.232  24.341  0.00  0.00    +0.142 A 
ATOM      2  C   UNL     1       9.925   1.626  24.338  0.00  0.00    +0.047 A 
ATOM      3  C   UNL     1      10.031   2.338  23.138  0.00  0.00    +0.004 A 
ATOM      4  C   UNL     1      10.015   1.664  21.921  0.00  0.00    +0.001 A 
ATOM      5  C   UNL     1       9.884   0.279  21.903  0.00  0.00    +0.015 A 
ATOM      6  C   UNL     1       9.768  -0.439  23.107  0.00  0.00    +0.056 A 
ENDROOT
BRANCH   6   7
ATOM      7  C   UNL     1       9.578  -1.889  22.938  0.00  0.00    +0.262 C 
ATOM      8  O   UNL     1      10.289  -2.698  23.521  0.00  0.00    -0.296 OA
ENDBRANCH   6   7
BRANCH   1   9
ATOM      9  O   UNL     1       9.811  -0.323  25.607  0.00  0.00    -0.403 OA
BRANCH   9  10
ATOM     10  P   UNL     1       8.328  -0.672  26.425  0.00  0.00    +0.528 P 
ATOM     11  O   UNL     1       8.574  -2.191  26.413  0.00  0.00    -0.216 OA
BRANCH  10  12
ATOM     12  O   UNL     1       6.845  -1.021  27.243  0.00  0.00    -0.293 OA
ATOM     13  H   UNL     1       6.540  -1.853  26.837  0.00  0.00    +0.223 HD
ENDBRANCH  10  12
BRANCH  10  14
ATOM     14  O   UNL     1       8.995  -0.245  27.856  0.00  0.00    -0.293 OA
ATOM     15  H   UNL     1       9.430   0.618  27.721  0.00  0.00    +0.223 HD
ENDBRANCH  10  14
ENDBRANCH   9  10
ENDBRANCH   1   9
TORSDOF 5
ENDMDL
MODEL 8
REMARK VINA RESULT:      -4.4      1.762      3.184
REMARK  Name = 
REMARK  5 active torsions:
REMARK  status: ('A' for Active; 'I' for Inactive)
REMARK    1  A    between atoms: O_1  and  P_2
REMARK    2  A    between atoms: P_2  and  O_3
REMARK    3  A    between atoms: P_2  and  O_5
REMARK    4  A    between atoms: O_5  and  C_6
REMARK    5  A    between atoms: C_7  and  C_8
REMARK                            x       y       z     vdW  Elec       q    Type
REMARK                         _______ _______ _______ _____ _____    ______ ____
ROOT
ATOM      1  C   UNL     1       6.328  -4.623  24.410  0.00  0.00    +0.142 A 
ATOM      2  C   UNL     1       6.010  -5.665  25.287  0.00  0.00    +0.047 A 
ATOM      3  C   UNL     1       4.837  -6.411  25.127  0.00  0.00    +0.004 A 
ATOM      4  C   UNL     1       3.966  -6.126  24.080  0.00  0.00    +0.001 A 
ATOM      5  C   UNL     1       4.271  -5.102  23.189  0.00  0.00    +0.015 A 
ATOM      6  C   UNL     1       5.454  -4.356  23.343  0.00  0.00    +0.056 A 
ENDROOT
BRANCH   6   7
ATOM      7  C   UNL     1       5.678  -3.344  22.299  0.00  0.00    +0.262 C 
ATOM      8  O   UNL     1       5.597  -3.625  21.109  0.00  0.00    -0.296 OA
ENDBRANCH   6   7
BRANCH   1   9
ATOM      9  O   UNL     1       7.467  -3.925  24.767  0.00  0.00    -0.403 OA
BRANCH   9  10
ATOM     10  P   UNL     1       8.945  -4.759  25.100  0.00  0.00    +0.528 P 
ATOM     11  O   UNL     1       9.802  -3.731  24.341  0.00  0.00    -0.216 OA
BRANCH  10  12
ATOM     12  O   UNL     1      10.424  -5.593  25.434  0.00  0.00    -0.293 OA
ATOM     13  H   UNL     1      11.112  -4.913  25.313  0.00  0.00    +0.223 HD
ENDBRANCH  10  12
BRANCH  10  14
ATOM     14  O   UNL     1       8.970  -4.148  26.617  0.00  0.00    -0.293 OA
ATOM     15  H   UNL     1       9.115  -4.898  27.224  0.00  0.00    +0.223 HD
ENDBRANCH  10  14
ENDBRANCH   9  10
ENDBRANCH   1   9
TORSDOF 5
ENDMDL
MODEL 9
REMARK VINA RESULT:      -4.4      3.084      4.880
REMARK  Name = 
REMARK  5 active torsions:
REMARK  status: ('A' for Active; 'I' for Inactive)
REMARK    1  A    between atoms: O_1  and  P_2
REMARK    2  A    between atoms: P_2  and  O_3
REMARK    3  A    between atoms: P_2  and  O_5
REMARK    4  A    between atoms: O_5  and  C_6
REMARK    5  A    between atoms: C_7  and  C_8
REMARK                            x       y       z     vdW  Elec       q    Type
REMARK                         _______ _______ _______ _____ _____    ______ ____
ROOT
ATOM      1  C   UNL     1       7.810  -4.043  24.111  0.00  0.00    +0.142 A 
ATOM      2  C   UNL     1       9.115  -3.638  24.409  0.00  0.00    +0.047 A 
ATOM      3  C   UNL     1       9.709  -2.566  23.736  0.00  0.00    +0.004 A 
ATOM      4  C   UNL     1       9.002  -1.878  22.755  0.00  0.00    +0.001 A 
ATOM      5  C   UNL     1       7.698  -2.257  22.454  0.00  0.00    +0.015 A 
ATOM      6  C   UNL     1       7.094  -3.329  23.135  0.00  0.00    +0.056 A 
ENDROOT
BRANCH   6   7
ATOM      7  C   UNL     1       5.695  -3.585  22.757  0.00  0.00    +0.262 C 
ATOM      8  O   UNL     1       5.408  -4.393  21.882  0.00  0.00    -0.296 OA
ENDBRANCH   6   7
BRANCH   1   9
ATOM      9  O   UNL     1       7.411  -5.177  24.794  0.00  0.00    -0.403 OA
BRANCH   9  10
ATOM     10  P   UNL     1       7.020  -5.102  26.478  0.00  0.00    +0.528 P 
ATOM     11  O   UNL     1       6.028  -6.276  26.393  0.00  0.00    -0.216 OA
BRANCH  10  12
ATOM     12  O   UNL     1       6.630  -5.028  28.161  0.00  0.00    -0.293 OA
ATOM     13  H   UNL     1       7.424  -5.380  28.604  0.00  0.00    +0.223 HD
ENDBRANCH  10  12
BRANCH  10  14
ATOM     14  O   UNL     1       8.411  -5.877  26.854  0.00  0.00    -0.293 OA
ATOM     15  H   UNL     1       8.917  -5.973  26.025  0.00  0.00    +0.223 HD
ENDBRANCH  10  14
ENDBRANCH   9  10
ENDBRANCH   1   9
TORSDOF 5
ENDMDL
