MODEL 1
REMARK VINA RESULT:      -7.4      0.000      0.000
REMARK  Name = 
REMARK  5 active torsions:
REMARK  status: ('A' for Active; 'I' for Inactive)
REMARK    1  A    between atoms: C_5  and  N_8
REMARK    2  A    between atoms: C_10  and  C_24
REMARK    3  A    between atoms: C_12  and  N_13
REMARK    4  A    between atoms: N_13  and  S_14
REMARK    5  A    between atoms: S_14  and  C_17
REMARK                            x       y       z     vdW  Elec       q    Type
REMARK                         _______ _______ _______ _____ _____    ______ ____
ROOT
ATOM      1  N   UNL     1       7.968  -3.002  24.552  0.00  0.00    -0.217 N 
ATOM      2  C   UNL     1       7.979  -3.359  23.201  0.00  0.00    +0.142 A 
ATOM      3  C   UNL     1       8.504  -2.294  22.510  0.00  0.00    +0.075 A 
ATOM      4  C   UNL     1       8.803  -1.323  23.485  0.00  0.00    +0.102 A 
ATOM      5  N   UNL     1       8.486  -1.745  24.712  0.00  0.00    -0.164 NA
ENDROOT
BRANCH   1  10
ATOM      6  F   UNL     1       5.589  -5.676  28.828  0.00  0.00    -0.205 F 
ATOM      7  C   UNL     1       6.180  -5.025  27.820  0.00  0.00    +0.124 A 
ATOM      8  C   UNL     1       7.243  -5.615  27.156  0.00  0.00    +0.040 A 
ATOM      9  C   UNL     1       7.844  -4.953  26.079  0.00  0.00    +0.030 A 
ATOM     10  C   UNL     1       7.400  -3.687  25.675  0.00  0.00    +0.068 A 
ATOM     11  C   UNL     1       6.332  -3.098  26.378  0.00  0.00    +0.030 A 
ATOM     12  C   UNL     1       5.719  -3.772  27.442  0.00  0.00    +0.040 A 
ENDBRANCH   1  10
BRANCH   4  13
ATOM     13  C   UNL     1       9.374   0.042  23.200  0.00  0.00    +0.039 A 
ATOM     14  S   UNL     1       9.968   1.093  24.419  0.00  0.00    -0.095 S 
ATOM     15  C   UNL     1      10.397   2.291  23.279  0.00  0.00    +0.046 A 
ATOM     16  C   UNL     1      10.098   1.902  21.991  0.00  0.00    +0.008 A 
ATOM     17  C   UNL     1       9.501   0.604  21.946  0.00  0.00    +0.018 A 
ENDBRANCH   4  13
BRANCH   2  18
ATOM     18  N   UNL     1       7.471  -4.474  22.547  0.00  0.00    -0.199 N 
ATOM     19  H   UNL     1       7.836  -5.377  22.809  0.00  0.00    +0.175 HD
BRANCH  18  20
ATOM     20  S   UNL     1       5.975  -4.490  21.881  0.00  0.00    +0.074 S 
ATOM     21  O   UNL     1       5.914  -5.523  20.870  0.00  0.00    -0.150 OA
ATOM     22  O   UNL     1       5.516  -3.148  21.585  0.00  0.00    -0.150 OA
BRANCH  20  23
ATOM     23  C   UNL     1       5.002  -5.082  23.255  0.00  0.00    +0.111 A 
ATOM     24  C   UNL     1       4.016  -4.256  23.803  0.00  0.00    +0.067 A 
ATOM     25  C   UNL     1       3.271  -4.729  24.878  0.00  0.00    +0.125 A 
ATOM     26  F   UNL     1       2.320  -3.949  25.407  0.00  0.00    -0.205 F 
ATOM     27  C   UNL     1       3.498  -5.991  25.411  0.00  0.00    +0.038 A 
ATOM     28  C   UNL     1       4.492  -6.807  24.866  0.00  0.00    +0.005 A 
ATOM     29  C   UNL     1       5.251  -6.353  23.785  0.00  0.00    +0.029 A 
ENDBRANCH  20  23
ENDBRANCH  18  20
ENDBRANCH   2  18
TORSDOF 5
ENDMDL
MODEL 2
REMARK VINA RESULT:      -6.9      4.675      7.935
REMARK  Name = 
REMARK  5 active torsions:
REMARK  status: ('A' for Active; 'I' for Inactive)
REMARK    1  A    between atoms: C_5  and  N_8
REMARK    2  A    between atoms: C_10  and  C_24
REMARK    3  A    between atoms: C_12  and  N_13
REMARK    4  A    between atoms: N_13  and  S_14
REMARK    5  A    between atoms: S_14  and  C_17
REMARK                            x       y       z     vdW  Elec       q    Type
REMARK                         _______ _______ _______ _____ _____    ______ ____
ROOT
ATOM      1  N   UNL     1       7.958  -0.599  23.274  0.00  0.00    -0.217 N 
ATOM      2  C   UNL     1       6.588  -0.478  23.521  0.00  0.00    +0.142 A 
ATOM      3  C   UNL     1       6.024  -1.702  23.253  0.00  0.00    +0.075 A 
ATOM      4  C   UNL     1       7.091  -2.531  22.857  0.00  0.00    +0.102 A 
ATOM      5  N   UNL     1       8.255  -1.874  22.872  0.00  0.00    -0.164 NA
ENDROOT
BRANCH   1  10
ATOM      6  F   UNL     1      11.791   3.451  23.220  0.00  0.00    -0.205 F 
ATOM      7  C   UNL     1      10.892   2.461  23.223  0.00  0.00    +0.124 A 
ATOM      8  C   UNL     1      10.792   1.633  24.330  0.00  0.00    +0.040 A 
ATOM      9  C   UNL     1       9.831   0.617  24.355  0.00  0.00    +0.030 A 
ATOM     10  C   UNL     1       8.978   0.407  23.263  0.00  0.00    +0.068 A 
ATOM     11  C   UNL     1       9.111   1.246  22.141  0.00  0.00    +0.030 A 
ATOM     12  C   UNL     1      10.060   2.276  22.128  0.00  0.00    +0.040 A 
ENDBRANCH   1  10
BRANCH   4  13
ATOM     13  C   UNL     1       6.958  -3.970  22.431  0.00  0.00    +0.039 A 
ATOM     14  S   UNL     1       7.675  -5.278  23.279  0.00  0.00    -0.095 S 
ATOM     15  C   UNL     1       7.034  -6.429  22.190  0.00  0.00    +0.046 A 
ATOM     16  C   UNL     1       6.285  -5.833  21.199  0.00  0.00    +0.008 A 
ATOM     17  C   UNL     1       6.245  -4.411  21.336  0.00  0.00    +0.018 A 
ENDBRANCH   4  13
BRANCH   2  18
ATOM     18  N   UNL     1       5.812   0.628  23.844  0.00  0.00    -0.199 N 
ATOM     19  H   UNL     1       4.913   0.715  23.397  0.00  0.00    +0.175 HD
BRANCH  18  20
ATOM     20  S   UNL     1       5.963   1.412  25.274  0.00  0.00    +0.074 S 
ATOM     21  O   UNL     1       6.852   0.664  26.137  0.00  0.00    -0.150 OA
ATOM     22  O   UNL     1       4.677   1.866  25.764  0.00  0.00    -0.150 OA
BRANCH  20  23
ATOM     23  C   UNL     1       6.869   2.864  24.766  0.00  0.00    +0.111 A 
ATOM     24  C   UNL     1       6.640   3.406  23.498  0.00  0.00    +0.067 A 
ATOM     25  C   UNL     1       7.359   4.534  23.115  0.00  0.00    +0.125 A 
ATOM     26  F   UNL     1       7.143   5.066  21.905  0.00  0.00    -0.205 F 
ATOM     27  C   UNL     1       8.294   5.113  23.962  0.00  0.00    +0.038 A 
ATOM     28  C   UNL     1       8.526   4.560  25.224  0.00  0.00    +0.005 A 
ATOM     29  C   UNL     1       7.815   3.429  25.629  0.00  0.00    +0.029 A 
ENDBRANCH  20  23
ENDBRANCH  18  20
ENDBRANCH   2  18
TORSDOF 5
ENDMDL
MODEL 3
REMARK VINA RESULT:      -6.8      2.719      3.786
REMARK  Name = 
REMARK  5 active torsions:
REMARK  status: ('A' for Active; 'I' for Inactive)
REMARK    1  A    between atoms: C_5  and  N_8
REMARK    2  A    between atoms: C_10  and  C_24
REMARK    3  A    between atoms: C_12  and  N_13
REMARK    4  A    between atoms: N_13  and  S_14
REMARK    5  A    between atoms: S_14  and  C_17
REMARK                            x       y       z     vdW  Elec       q    Type
REMARK                         _______ _______ _______ _____ _____    ______ ____
ROOT
ATOM      1  N   UNL     1       7.460  -1.766  23.924  0.00  0.00    -0.217 N 
ATOM      2  C   UNL     1       7.215  -1.444  25.261  0.00  0.00    +0.142 A 
ATOM      3  C   UNL     1       7.757  -0.200  25.479  0.00  0.00    +0.075 A 
ATOM      4  C   UNL     1       8.310   0.192  24.244  0.00  0.00    +0.102 A 
ATOM      5  N   UNL     1       8.130  -0.743  23.307  0.00  0.00    -0.164 NA
ENDROOT
BRANCH   1  10
ATOM      6  F   UNL     1       6.494  -6.618  21.351  0.00  0.00    -0.205 F 
ATOM      7  C   UNL     1       6.746  -5.448  21.948  0.00  0.00    +0.124 A 
ATOM      8  C   UNL     1       6.104  -4.303  21.504  0.00  0.00    +0.040 A 
ATOM      9  C   UNL     1       6.337  -3.082  22.145  0.00  0.00    +0.030 A 
ATOM     10  C   UNL     1       7.231  -2.993  23.221  0.00  0.00    +0.068 A 
ATOM     11  C   UNL     1       7.888  -4.165  23.642  0.00  0.00    +0.030 A 
ATOM     12  C   UNL     1       7.636  -5.390  23.011  0.00  0.00    +0.040 A 
ENDBRANCH   1  10
BRANCH   4  13
ATOM     13  C   UNL     1       9.047   1.482  23.997  0.00  0.00    +0.039 A 
ATOM     14  S   UNL     1       8.361   3.031  24.270  0.00  0.00    -0.095 S 
ATOM     15  C   UNL     1       9.792   3.830  23.785  0.00  0.00    +0.046 A 
ATOM     16  C   UNL     1      10.778   2.938  23.423  0.00  0.00    +0.008 A 
ATOM     17  C   UNL     1      10.345   1.581  23.541  0.00  0.00    +0.018 A 
ENDBRANCH   4  13
BRANCH   2  18
ATOM     18  N   UNL     1       6.667  -2.192  26.295  0.00  0.00    -0.199 N 
ATOM     19  H   UNL     1       7.218  -2.309  27.131  0.00  0.00    +0.175 HD
BRANCH  18  20
ATOM     20  S   UNL     1       5.050  -2.351  26.495  0.00  0.00    +0.074 S 
ATOM     21  O   UNL     1       4.368  -1.388  25.656  0.00  0.00    -0.150 OA
ATOM     22  O   UNL     1       4.702  -2.478  27.896  0.00  0.00    -0.150 OA
BRANCH  20  23
ATOM     23  C   UNL     1       4.774  -3.946  25.744  0.00  0.00    +0.111 A 
ATOM     24  C   UNL     1       3.911  -4.048  24.648  0.00  0.00    +0.067 A 
ATOM     25  C   UNL     1       3.702  -5.300  24.078  0.00  0.00    +0.125 A 
ATOM     26  F   UNL     1       2.883  -5.408  23.024  0.00  0.00    -0.205 F 
ATOM     27  C   UNL     1       4.324  -6.434  24.583  0.00  0.00    +0.038 A 
ATOM     28  C   UNL     1       5.175  -6.327  25.685  0.00  0.00    +0.005 A 
ATOM     29  C   UNL     1       5.401  -5.080  26.272  0.00  0.00    +0.029 A 
ENDBRANCH  20  23
ENDBRANCH  18  20
ENDBRANCH   2  18
TORSDOF 5
ENDMDL
MODEL 4
REMARK VINA RESULT:      -6.8      2.998      4.564
REMARK  Name = 
REMARK  5 active torsions:
REMARK  status: ('A' for Active; 'I' for Inactive)
REMARK    1  A    between atoms: C_5  and  N_8
REMARK    2  A    between atoms: C_10  and  C_24
REMARK    3  A    between atoms: C_12  and  N_13
REMARK    4  A    between atoms: N_13  and  S_14
REMARK    5  A    between atoms: S_14  and  C_17
REMARK                            x       y       z     vdW  Elec       q    Type
REMARK                         _______ _______ _______ _____ _____    ______ ____
ROOT
ATOM      1  N   UNL     1       8.148   0.680  25.207  0.00  0.00    -0.217 N 
ATOM      2  C   UNL     1       9.397   0.606  24.584  0.00  0.00    +0.142 A 
ATOM      3  C   UNL     1       9.801   1.896  24.345  0.00  0.00    +0.075 A 
ATOM      4  C   UNL     1       8.771   2.715  24.847  0.00  0.00    +0.102 A 
ATOM      5  N   UNL     1       7.779   1.988  25.370  0.00  0.00    -0.164 NA
ENDROOT
BRANCH   1  10
ATOM      6  F   UNL     1       4.618  -3.483  26.348  0.00  0.00    -0.205 F 
ATOM      7  C   UNL     1       5.450  -2.467  26.093  0.00  0.00    +0.124 A 
ATOM      8  C   UNL     1       6.526  -2.238  26.936  0.00  0.00    +0.040 A 
ATOM      9  C   UNL     1       7.419  -1.198  26.655  0.00  0.00    +0.030 A 
ATOM     10  C   UNL     1       7.229  -0.367  25.543  0.00  0.00    +0.068 A 
ATOM     11  C   UNL     1       6.118  -0.605  24.713  0.00  0.00    +0.030 A 
ATOM     12  C   UNL     1       5.237  -1.660  24.985  0.00  0.00    +0.040 A 
ENDBRANCH   1  10
BRANCH   4  13
ATOM     13  C   UNL     1       8.751   4.219  24.783  0.00  0.00    +0.039 A 
ATOM     14  S   UNL     1       7.876   5.203  25.884  0.00  0.00    -0.095 S 
ATOM     15  C   UNL     1       8.405   6.643  25.132  0.00  0.00    +0.046 A 
ATOM     16  C   UNL     1       9.236   6.385  24.063  0.00  0.00    +0.008 A 
ATOM     17  C   UNL     1       9.432   4.984  23.859  0.00  0.00    +0.018 A 
ENDBRANCH   4  13
BRANCH   2  18
ATOM     18  N   UNL     1      10.125  -0.484  24.125  0.00  0.00    -0.199 N 
ATOM     19  H   UNL     1      10.674  -0.996  24.798  0.00  0.00    +0.175 HD
BRANCH  18  20
ATOM     20  S   UNL     1       9.690  -1.325  22.789  0.00  0.00    +0.074 S 
ATOM     21  O   UNL     1      10.880  -1.785  22.106  0.00  0.00    -0.150 OA
ATOM     22  O   UNL     1       8.641  -0.645  22.056  0.00  0.00    -0.150 OA
BRANCH  20  23
ATOM     23  C   UNL     1       8.953  -2.773  23.530  0.00  0.00    +0.111 A 
ATOM     24  C   UNL     1       9.525  -3.320  24.682  0.00  0.00    +0.067 A 
ATOM     25  C   UNL     1       8.942  -4.452  25.243  0.00  0.00    +0.125 A 
ATOM     26  F   UNL     1       9.478  -4.981  26.351  0.00  0.00    -0.205 F 
ATOM     27  C   UNL     1       7.821  -5.041  24.675  0.00  0.00    +0.038 A 
ATOM     28  C   UNL     1       7.261  -4.496  23.517  0.00  0.00    +0.005 A 
ATOM     29  C   UNL     1       7.828  -3.359  22.938  0.00  0.00    +0.029 A 
ENDBRANCH  20  23
ENDBRANCH  18  20
ENDBRANCH   2  18
TORSDOF 5
ENDMDL
MODEL 5
REMARK VINA RESULT:      -6.6      3.669      7.345
REMARK  Name = 
REMARK  5 active torsions:
REMARK  status: ('A' for Active; 'I' for Inactive)
REMARK    1  A    between atoms: C_5  and  N_8
REMARK    2  A    between atoms: C_10  and  C_24
REMARK    3  A    between atoms: C_12  and  N_13
REMARK    4  A    between atoms: N_13  and  S_14
REMARK    5  A    between atoms: S_14  and  C_17
REMARK                            x       y       z     vdW  Elec       q    Type
REMARK                         _______ _______ _______ _____ _____    ______ ____
ROOT
ATOM      1  N   UNL     1       7.046  -1.682  25.306  0.00  0.00    -0.217 N 
ATOM      2  C   UNL     1       8.168  -2.413  24.907  0.00  0.00    +0.142 A 
ATOM      3  C   UNL     1       7.934  -3.723  25.249  0.00  0.00    +0.075 A 
ATOM      4  C   UNL     1       6.657  -3.736  25.842  0.00  0.00    +0.102 A 
ATOM      5  N   UNL     1       6.119  -2.513  25.875  0.00  0.00    -0.164 NA
ENDROOT
BRANCH   1  10
ATOM      6  F   UNL     1       6.390   3.855  25.258  0.00  0.00    -0.205 F 
ATOM      7  C   UNL     1       6.525   2.525  25.289  0.00  0.00    +0.124 A 
ATOM      8  C   UNL     1       5.720   1.737  24.482  0.00  0.00    +0.040 A 
ATOM      9  C   UNL     1       5.880   0.348  24.484  0.00  0.00    +0.030 A 
ATOM     10  C   UNL     1       6.831  -0.266  25.311  0.00  0.00    +0.068 A 
ATOM     11  C   UNL     1       7.624   0.552  26.138  0.00  0.00    +0.030 A 
ATOM     12  C   UNL     1       7.475   1.945  26.118  0.00  0.00    +0.040 A 
ENDBRANCH   1  10
BRANCH   4  13
ATOM     13  C   UNL     1       5.978  -4.955  26.409  0.00  0.00    +0.039 A 
ATOM     14  S   UNL     1       6.077  -5.413  28.060  0.00  0.00    -0.095 S 
ATOM     15  C   UNL     1       5.076  -6.777  27.817  0.00  0.00    +0.046 A 
ATOM     16  C   UNL     1       4.669  -6.885  26.505  0.00  0.00    +0.008 A 
ATOM     17  C   UNL     1       5.195  -5.835  25.690  0.00  0.00    +0.018 A 
ENDBRANCH   4  13
BRANCH   2  18
ATOM     18  N   UNL     1       9.388  -2.003  24.385  0.00  0.00    -0.199 N 
ATOM     19  H   UNL     1      10.226  -2.344  24.829  0.00  0.00    +0.175 HD
BRANCH  18  20
ATOM     20  S   UNL     1       9.559  -1.548  22.821  0.00  0.00    +0.074 S 
ATOM     21  O   UNL     1       8.348  -1.868  22.096  0.00  0.00    -0.150 OA
ATOM     22  O   UNL     1      10.852  -1.940  22.296  0.00  0.00    -0.150 OA
BRANCH  20  23
ATOM     23  C   UNL     1       9.582   0.229  22.988  0.00  0.00    +0.111 A 
ATOM     24  C   UNL     1       8.674   0.998  22.254  0.00  0.00    +0.067 A 
ATOM     25  C   UNL     1       8.710   2.382  22.390  0.00  0.00    +0.125 A 
ATOM     26  F   UNL     1       7.840   3.129  21.697  0.00  0.00    -0.205 F 
ATOM     27  C   UNL     1       9.629   2.999  23.228  0.00  0.00    +0.038 A 
ATOM     28  C   UNL     1      10.540   2.226  23.950  0.00  0.00    +0.005 A 
ATOM     29  C   UNL     1      10.522   0.835  23.829  0.00  0.00    +0.029 A 
ENDBRANCH  20  23
ENDBRANCH  18  20
ENDBRANCH   2  18
TORSDOF 5
ENDMDL
MODEL 6
REMARK VINA RESULT:      -6.4      4.174      7.586
REMARK  Name = 
REMARK  5 active torsions:
REMARK  status: ('A' for Active; 'I' for Inactive)
REMARK    1  A    between atoms: C_5  and  N_8
REMARK    2  A    between atoms: C_10  and  C_24
REMARK    3  A    between atoms: C_12  and  N_13
REMARK    4  A    between atoms: N_13  and  S_14
REMARK    5  A    between atoms: S_14  and  C_17
REMARK                            x       y       z     vdW  Elec       q    Type
REMARK                         _______ _______ _______ _____ _____    ______ ____
ROOT
ATOM      1  N   UNL     1       8.391  -1.037  23.894  0.00  0.00    -0.217 N 
ATOM      2  C   UNL     1       7.591  -1.360  24.992  0.00  0.00    +0.142 A 
ATOM      3  C   UNL     1       6.989  -2.562  24.710  0.00  0.00    +0.075 A 
ATOM      4  C   UNL     1       7.462  -2.930  23.435  0.00  0.00    +0.102 A 
ATOM      5  N   UNL     1       8.307  -2.019  22.943  0.00  0.00    -0.164 NA
ENDROOT
BRANCH   1  10
ATOM      6  F   UNL     1      11.391   3.533  22.794  0.00  0.00    -0.205 F 
ATOM      7  C   UNL     1      10.651   2.454  23.070  0.00  0.00    +0.124 A 
ATOM      8  C   UNL     1       9.666   2.056  22.180  0.00  0.00    +0.040 A 
ATOM      9  C   UNL     1       8.911   0.909  22.445  0.00  0.00    +0.030 A 
ATOM     10  C   UNL     1       9.120   0.164  23.614  0.00  0.00    +0.068 A 
ATOM     11  C   UNL     1      10.112   0.598  24.514  0.00  0.00    +0.030 A 
ATOM     12  C   UNL     1      10.880   1.735  24.235  0.00  0.00    +0.040 A 
ENDBRANCH   1  10
BRANCH   4  13
ATOM     13  C   UNL     1       7.052  -4.171  22.685  0.00  0.00    +0.039 A 
ATOM     14  S   UNL     1       5.936  -4.164  21.381  0.00  0.00    -0.095 S 
ATOM     15  C   UNL     1       6.084  -5.851  21.152  0.00  0.00    +0.046 A 
ATOM     16  C   UNL     1       6.967  -6.413  22.047  0.00  0.00    +0.008 A 
ATOM     17  C   UNL     1       7.524  -5.443  22.937  0.00  0.00    +0.018 A 
ENDBRANCH   4  13
BRANCH   2  18
ATOM     18  N   UNL     1       7.278  -0.639  26.138  0.00  0.00    -0.199 N 
ATOM     19  H   UNL     1       8.039  -0.353  26.733  0.00  0.00    +0.175 HD
BRANCH  18  20
ATOM     20  S   UNL     1       5.919   0.267  26.254  0.00  0.00    +0.074 S 
ATOM     21  O   UNL     1       5.747   0.695  27.626  0.00  0.00    -0.150 OA
ATOM     22  O   UNL     1       4.818  -0.338  25.532  0.00  0.00    -0.150 OA
BRANCH  20  23
ATOM     23  C   UNL     1       6.405   1.720  25.338  0.00  0.00    +0.111 A 
ATOM     24  C   UNL     1       7.417   2.543  25.844  0.00  0.00    +0.067 A 
ATOM     25  C   UNL     1       7.779   3.675  25.121  0.00  0.00    +0.125 A 
ATOM     26  F   UNL     1       8.752   4.466  25.594  0.00  0.00    -0.205 F 
ATOM     27  C   UNL     1       7.152   3.997  23.926  0.00  0.00    +0.038 A 
ATOM     28  C   UNL     1       6.135   3.178  23.432  0.00  0.00    +0.005 A 
ATOM     29  C   UNL     1       5.755   2.035  24.140  0.00  0.00    +0.029 A 
ENDBRANCH  20  23
ENDBRANCH  18  20
ENDBRANCH   2  18
TORSDOF 5
ENDMDL
MODEL 7
REMARK VINA RESULT:      -6.4      3.817      7.309
REMARK  Name = 
REMARK  5 active torsions:
REMARK  status: ('A' for Active; 'I' for Inactive)
REMARK    1  A    between atoms: C_5  and  N_8
REMARK    2  A    between atoms: C_10  and  C_24
REMARK    3  A    between atoms: C_12  and  N_13
REMARK    4  A    between atoms: N_13  and  S_14
REMARK    5  A    between atoms: S_14  and  C_17
REMARK                            x       y       z     vdW  Elec       q    Type
REMARK                         _______ _______ _______ _____ _____    ______ ____
ROOT
ATOM      1  N   UNL     1       6.026  -1.304  25.160  0.00  0.00    -0.217 N 
ATOM      2  C   UNL     1       6.712  -2.504  25.366  0.00  0.00    +0.142 A 
ATOM      3  C   UNL     1       5.774  -3.448  25.706  0.00  0.00    +0.075 A 
ATOM      4  C   UNL     1       4.536  -2.776  25.683  0.00  0.00    +0.102 A 
ATOM      5  N   UNL     1       4.683  -1.490  25.352  0.00  0.00    -0.164 NA
ENDROOT
BRANCH   1  10
ATOM      6  F   UNL     1       8.193   3.756  24.272  0.00  0.00    -0.205 F 
ATOM      7  C   UNL     1       7.647   2.555  24.491  0.00  0.00    +0.124 A 
ATOM      8  C   UNL     1       6.952   1.924  23.472  0.00  0.00    +0.040 A 
ATOM      9  C   UNL     1       6.409   0.653  23.684  0.00  0.00    +0.030 A 
ATOM     10  C   UNL     1       6.536   0.013  24.925  0.00  0.00    +0.068 A 
ATOM     11  C   UNL     1       7.228   0.682  25.952  0.00  0.00    +0.030 A 
ATOM     12  C   UNL     1       7.790   1.946  25.730  0.00  0.00    +0.040 A 
ENDBRANCH   1  10
BRANCH   4  13
ATOM     13  C   UNL     1       3.207  -3.398  26.021  0.00  0.00    +0.039 A 
ATOM     14  S   UNL     1       2.665  -3.661  27.628  0.00  0.00    -0.095 S 
ATOM     15  C   UNL     1       1.183  -4.326  27.097  0.00  0.00    +0.046 A 
ATOM     16  C   UNL     1       1.096  -4.346  25.722  0.00  0.00    +0.008 A 
ATOM     17  C   UNL     1       2.268  -3.815  25.100  0.00  0.00    +0.018 A 
ENDBRANCH   4  13
BRANCH   2  18
ATOM     18  N   UNL     1       8.071  -2.787  25.387  0.00  0.00    -0.199 N 
ATOM     19  H   UNL     1       8.478  -3.067  26.265  0.00  0.00    +0.175 HD
BRANCH  18  20
ATOM     20  S   UNL     1       8.880  -3.281  24.051  0.00  0.00    +0.074 S 
ATOM     21  O   UNL     1       7.943  -3.861  23.113  0.00  0.00    -0.150 OA
ATOM     22  O   UNL     1      10.097  -3.986  24.402  0.00  0.00    -0.150 OA
BRANCH  20  23
ATOM     23  C   UNL     1       9.371  -1.712  23.356  0.00  0.00    +0.111 A 
ATOM     24  C   UNL     1      10.065  -0.796  24.152  0.00  0.00    +0.067 A 
ATOM     25  C   UNL     1      10.434   0.425  23.597  0.00  0.00    +0.125 A 
ATOM     26  F   UNL     1      11.105   1.307  24.349  0.00  0.00    -0.205 F 
ATOM     27  C   UNL     1      10.117   0.744  22.284  0.00  0.00    +0.038 A 
ATOM     28  C   UNL     1       9.414  -0.171  21.497  0.00  0.00    +0.005 A 
ATOM     29  C   UNL     1       9.035  -1.404  22.033  0.00  0.00    +0.029 A 
ENDBRANCH  20  23
ENDBRANCH  18  20
ENDBRANCH   2  18
TORSDOF 5
ENDMDL
MODEL 8
REMARK VINA RESULT:      -6.3      2.718      3.573
REMARK  Name = 
REMARK  5 active torsions:
REMARK  status: ('A' for Active; 'I' for Inactive)
REMARK    1  A    between atoms: C_5  and  N_8
REMARK    2  A    between atoms: C_10  and  C_24
REMARK    3  A    between atoms: C_12  and  N_13
REMARK    4  A    between atoms: N_13  and  S_14
REMARK    5  A    between atoms: S_14  and  C_17
REMARK                            x       y       z     vdW  Elec       q    Type
REMARK                         _______ _______ _______ _____ _____    ______ ____
ROOT
ATOM      1  N   UNL     1       6.817  -1.652  26.063  0.00  0.00    -0.217 N 
ATOM      2  C   UNL     1       8.183  -1.936  25.993  0.00  0.00    +0.142 A 
ATOM      3  C   UNL     1       8.829  -0.745  25.769  0.00  0.00    +0.075 A 
ATOM      4  C   UNL     1       7.815   0.231  25.720  0.00  0.00    +0.102 A 
ATOM      5  N   UNL     1       6.606  -0.308  25.901  0.00  0.00    -0.164 NA
ENDROOT
BRANCH   1  10
ATOM      6  F   UNL     1       2.512  -5.192  26.200  0.00  0.00    -0.205 F 
ATOM      7  C   UNL     1       3.531  -4.327  26.188  0.00  0.00    +0.124 A 
ATOM      8  C   UNL     1       4.540  -4.446  27.130  0.00  0.00    +0.040 A 
ATOM      9  C   UNL     1       5.626  -3.565  27.101  0.00  0.00    +0.030 A 
ATOM     10  C   UNL     1       5.699  -2.544  26.144  0.00  0.00    +0.068 A 
ATOM     11  C   UNL     1       4.653  -2.428  25.209  0.00  0.00    +0.030 A 
ATOM     12  C   UNL     1       3.577  -3.325  25.228  0.00  0.00    +0.040 A 
ENDBRANCH   1  10
BRANCH   4  13
ATOM     13  C   UNL     1       8.037   1.699  25.463  0.00  0.00    +0.039 A 
ATOM     14  S   UNL     1       7.197   2.943  26.293  0.00  0.00    -0.095 S 
ATOM     15  C   UNL     1       8.031   4.171  25.446  0.00  0.00    +0.046 A 
ATOM     16  C   UNL     1       8.936   3.648  24.548  0.00  0.00    +0.008 A 
ATOM     17  C   UNL     1       8.936   2.219  24.554  0.00  0.00    +0.018 A 
ENDBRANCH   4  13
BRANCH   2  18
ATOM     18  N   UNL     1       8.866  -3.146  25.998  0.00  0.00    -0.199 N 
ATOM     19  H   UNL     1       8.682  -3.783  26.757  0.00  0.00    +0.175 HD
BRANCH  18  20
ATOM     20  S   UNL     1       9.430  -3.836  24.625  0.00  0.00    +0.074 S 
ATOM     21  O   UNL     1      10.027  -5.115  24.944  0.00  0.00    -0.150 OA
ATOM     22  O   UNL     1      10.146  -2.877  23.808  0.00  0.00    -0.150 OA
BRANCH  20  23
ATOM     23  C   UNL     1       7.900  -4.200  23.779  0.00  0.00    +0.111 A 
ATOM     24  C   UNL     1       7.118  -5.276  24.210  0.00  0.00    +0.067 A 
ATOM     25  C   UNL     1       5.932  -5.550  23.537  0.00  0.00    +0.125 A 
ATOM     26  F   UNL     1       5.171  -6.574  23.946  0.00  0.00    -0.205 F 
ATOM     27  C   UNL     1       5.527  -4.785  22.452  0.00  0.00    +0.038 A 
ATOM     28  C   UNL     1       6.318  -3.719  22.019  0.00  0.00    +0.005 A 
ATOM     29  C   UNL     1       7.512  -3.424  22.681  0.00  0.00    +0.029 A 
ENDBRANCH  20  23
ENDBRANCH  18  20
ENDBRANCH   2  18
TORSDOF 5
ENDMDL
MODEL 9
REMARK VINA RESULT:      -6.3      4.432      8.419
REMARK  Name = 
REMARK  5 active torsions:
REMARK  status: ('A' for Active; 'I' for Inactive)
REMARK    1  A    between atoms: C_5  and  N_8
REMARK    2  A    between atoms: C_10  and  C_24
REMARK    3  A    between atoms: C_12  and  N_13
REMARK    4  A    between atoms: N_13  and  S_14
REMARK    5  A    between atoms: S_14  and  C_17
REMARK                            x       y       z     vdW  Elec       q    Type
REMARK                         _______ _______ _______ _____ _____    ______ ____
ROOT
ATOM      1  N   UNL     1       7.244  -0.189  22.783  0.00  0.00    -0.217 N 
ATOM      2  C   UNL     1       8.589  -0.565  22.769  0.00  0.00    +0.142 A 
ATOM      3  C   UNL     1       8.621  -1.938  22.737  0.00  0.00    +0.075 A 
ATOM      4  C   UNL     1       7.273  -2.346  22.726  0.00  0.00    +0.102 A 
ATOM      5  N   UNL     1       6.443  -1.299  22.749  0.00  0.00    -0.164 NA
ENDROOT
BRANCH   1  10
ATOM      6  F   UNL     1       5.069   4.880  23.601  0.00  0.00    -0.205 F 
ATOM      7  C   UNL     1       5.567   3.657  23.389  0.00  0.00    +0.124 A 
ATOM      8  C   UNL     1       6.284   3.403  22.231  0.00  0.00    +0.040 A 
ATOM      9  C   UNL     1       6.837   2.136  22.019  0.00  0.00    +0.030 A 
ATOM     10  C   UNL     1       6.657   1.107  22.953  0.00  0.00    +0.068 A 
ATOM     11  C   UNL     1       5.907   1.381  24.112  0.00  0.00    +0.030 A 
ATOM     12  C   UNL     1       5.373   2.657  24.331  0.00  0.00    +0.040 A 
ENDBRANCH   1  10
BRANCH   4  13
ATOM     13  C   UNL     1       6.802  -3.777  22.723  0.00  0.00    +0.039 A 
ATOM     14  S   UNL     1       5.604  -4.381  23.793  0.00  0.00    -0.095 S 
ATOM     15  C   UNL     1       5.687  -5.948  23.117  0.00  0.00    +0.046 A 
ATOM     16  C   UNL     1       6.608  -6.015  22.094  0.00  0.00    +0.008 A 
ATOM     17  C   UNL     1       7.256  -4.761  21.869  0.00  0.00    +0.018 A 
ENDBRANCH   4  13
BRANCH   2  18
ATOM     18  N   UNL     1       9.749   0.189  22.892  0.00  0.00    -0.199 N 
ATOM     19  H   UNL     1      10.038   0.737  22.096  0.00  0.00    +0.175 HD
BRANCH  18  20
ATOM     20  S   UNL     1      10.298   0.717  24.342  0.00  0.00    +0.074 S 
ATOM     21  O   UNL     1      11.700   0.384  24.471  0.00  0.00    -0.150 OA
ATOM     22  O   UNL     1       9.367   0.397  25.405  0.00  0.00    -0.150 OA
BRANCH  20  23
ATOM     23  C   UNL     1      10.228   2.485  24.103  0.00  0.00    +0.111 A 
ATOM     24  C   UNL     1      11.311   3.140  23.508  0.00  0.00    +0.067 A 
ATOM     25  C   UNL     1      11.243   4.518  23.335  0.00  0.00    +0.125 A 
ATOM     26  F   UNL     1      12.272   5.155  22.760  0.00  0.00    -0.205 F 
ATOM     27  C   UNL     1      10.133   5.242  23.750  0.00  0.00    +0.038 A 
ATOM     28  C   UNL     1       9.060   4.584  24.354  0.00  0.00    +0.005 A 
ATOM     29  C   UNL     1       9.105   3.200  24.536  0.00  0.00    +0.029 A 
ENDBRANCH  20  23
ENDBRANCH  18  20
ENDBRANCH   2  18
TORSDOF 5
ENDMDL
