MODEL 1
REMARK VINA RESULT:      -6.7      0.000      0.000
REMARK  Name = 
REMARK  8 active torsions:
REMARK  status: ('A' for Active; 'I' for Inactive)
REMARK    1  A    between atoms: O_1  and  C_2
REMARK    2  A    between atoms: C_2  and  C_4
REMARK    3  A    between atoms: C_4  and  O_5
REMARK    4  A    between atoms: O_5  and  C_6
REMARK    5  A    between atoms: C_7  and  C_19
REMARK    6  A    between atoms: C_9  and  C_12
REMARK    7  A    between atoms: C_15  and  O_16
REMARK    8  A    between atoms: C_19  and  O_20
REMARK                            x       y       z     vdW  Elec       q    Type
REMARK                         _______ _______ _______ _____ _____    ______ ____
ROOT
ATOM      1  C   UNL     1       6.495  -4.529  24.293  0.00  0.00    +0.157 A 
ATOM      2  C   UNL     1       7.481  -3.505  24.098  0.00  0.00    +0.075 A 
ATOM      3 BR   UNL     1       9.113  -3.454  25.077  0.00  0.00    -0.045 Br
ATOM      4  C   UNL     1       7.157  -2.614  23.086  0.00  0.00    +0.038 A 
ATOM      5  S   UNL     1       5.720  -3.137  22.293  0.00  0.00    -0.077 S 
ATOM      6  C   UNL     1       5.548  -4.517  23.285  0.00  0.00    +0.139 A 
ENDROOT
BRANCH   4   7
ATOM      7  C   UNL     1       7.818  -1.372  22.626  0.00  0.00    -0.010 A 
ATOM      8  C   UNL     1       7.301  -0.103  22.945  0.00  0.00    +0.012 A 
ATOM      9  C   UNL     1       7.960   1.065  22.549  0.00  0.00    +0.046 A 
ATOM     10  C   UNL     1       9.129   0.980  21.806  0.00  0.00    +0.117 A 
ATOM     11  C   UNL     1       9.652  -0.255  21.455  0.00  0.00    +0.046 A 
ATOM     12  C   UNL     1       9.006  -1.423  21.878  0.00  0.00    +0.012 A 
BRANCH  10  13
ATOM     13  O   UNL     1       9.740   2.144  21.448  0.00  0.00    -0.507 OA
ATOM     14  H   UNL     1       9.220   2.889  21.793  0.00  0.00    +0.292 HD
ENDBRANCH  10  13
ENDBRANCH   4   7
BRANCH   6  15
ATOM     15  C   UNL     1       4.495  -5.492  23.047  0.00  0.00    +0.347 C 
ATOM     16  O   UNL     1       3.318  -5.220  22.842  0.00  0.00    -0.244 OA
BRANCH  15  17
ATOM     17  O   UNL     1       4.928  -6.779  23.093  0.00  0.00    -0.477 OA
ATOM     18  H   UNL     1       5.359  -7.062  22.262  0.00  0.00    +0.295 HD
ENDBRANCH  15  17
ENDBRANCH   6  15
BRANCH   1  19
ATOM     19  O   UNL     1       6.462  -5.522  25.227  0.00  0.00    -0.478 OA
BRANCH  19  20
ATOM     20  C   UNL     1       5.811  -5.163  26.447  0.00  0.00    +0.349 C 
BRANCH  20  21
ATOM     21  C   UNL     1       6.688  -5.435  27.663  0.00  0.00    +0.343 C 
ATOM     22  O   UNL     1       6.311  -5.247  28.811  0.00  0.00    -0.247 OA
BRANCH  21  23
ATOM     23  O   UNL     1       7.916  -5.908  27.362  0.00  0.00    -0.478 OA
ATOM     24  H   UNL     1       8.631  -5.442  27.854  0.00  0.00    +0.295 HD
ENDBRANCH  21  23
ENDBRANCH  20  21
ENDBRANCH  19  20
ENDBRANCH   1  19
TORSDOF 8
ENDMDL
MODEL 2
REMARK VINA RESULT:      -6.4      1.640      3.422
REMARK  Name = 
REMARK  8 active torsions:
REMARK  status: ('A' for Active; 'I' for Inactive)
REMARK    1  A    between atoms: O_1  and  C_2
REMARK    2  A    between atoms: C_2  and  C_4
REMARK    3  A    between atoms: C_4  and  O_5
REMARK    4  A    between atoms: O_5  and  C_6
REMARK    5  A    between atoms: C_7  and  C_19
REMARK    6  A    between atoms: C_9  and  C_12
REMARK    7  A    between atoms: C_15  and  O_16
REMARK    8  A    between atoms: C_19  and  O_20
REMARK                            x       y       z     vdW  Elec       q    Type
REMARK                         _______ _______ _______ _____ _____    ______ ____
ROOT
ATOM      1  C   UNL     1       6.872  -4.547  24.480  0.00  0.00    +0.157 A 
ATOM      2  C   UNL     1       7.006  -3.478  23.532  0.00  0.00    +0.075 A 
ATOM      3 BR   UNL     1       6.032  -3.429  21.897  0.00  0.00    -0.045 Br
ATOM      4  C   UNL     1       7.849  -2.464  23.962  0.00  0.00    +0.038 A 
ATOM      5  S   UNL     1       8.345  -2.770  25.582  0.00  0.00    -0.077 S 
ATOM      6  C   UNL     1       7.450  -4.221  25.694  0.00  0.00    +0.139 A 
ENDROOT
BRANCH   4   7
ATOM      7  C   UNL     1       8.347  -1.249  23.278  0.00  0.00    -0.010 A 
ATOM      8  C   UNL     1       8.053   0.039  23.760  0.00  0.00    +0.012 A 
ATOM      9  C   UNL     1       8.571   1.179  23.136  0.00  0.00    +0.046 A 
ATOM     10  C   UNL     1       9.365   1.047  22.006  0.00  0.00    +0.117 A 
ATOM     11  C   UNL     1       9.655  -0.208  21.491  0.00  0.00    +0.046 A 
ATOM     12  C   UNL     1       9.160  -1.348  22.135  0.00  0.00    +0.012 A 
BRANCH  10  13
ATOM     13  O   UNL     1       9.852   2.184  21.436  0.00  0.00    -0.507 OA
ATOM     14  H   UNL     1      10.823   2.154  21.460  0.00  0.00    +0.292 HD
ENDBRANCH  10  13
ENDBRANCH   4   7
BRANCH   6  15
ATOM     15  C   UNL     1       7.378  -4.971  26.938  0.00  0.00    +0.347 C 
ATOM     16  O   UNL     1       6.719  -4.646  27.918  0.00  0.00    -0.244 OA
BRANCH  15  17
ATOM     17  O   UNL     1       8.145  -6.093  26.940  0.00  0.00    -0.477 OA
ATOM     18  H   UNL     1       8.098  -6.583  26.095  0.00  0.00    +0.295 HD
ENDBRANCH  15  17
ENDBRANCH   6  15
BRANCH   1  19
ATOM     19  O   UNL     1       6.178  -5.715  24.364  0.00  0.00    -0.478 OA
BRANCH  19  20
ATOM     20  C   UNL     1       4.794  -5.616  24.706  0.00  0.00    +0.349 C 
BRANCH  20  21
ATOM     21  C   UNL     1       3.905  -6.338  23.701  0.00  0.00    +0.343 C 
ATOM     22  O   UNL     1       3.373  -5.771  22.756  0.00  0.00    -0.247 OA
BRANCH  21  23
ATOM     23  O   UNL     1       3.761  -7.658  23.940  0.00  0.00    -0.478 OA
ATOM     24  H   UNL     1       4.618  -8.143  23.917  0.00  0.00    +0.295 HD
ENDBRANCH  21  23
ENDBRANCH  20  21
ENDBRANCH  19  20
ENDBRANCH   1  19
TORSDOF 8
ENDMDL
MODEL 3
REMARK VINA RESULT:      -6.0      2.489      3.891
REMARK  Name = 
REMARK  8 active torsions:
REMARK  status: ('A' for Active; 'I' for Inactive)
REMARK    1  A    between atoms: O_1  and  C_2
REMARK    2  A    between atoms: C_2  and  C_4
REMARK    3  A    between atoms: C_4  and  O_5
REMARK    4  A    between atoms: O_5  and  C_6
REMARK    5  A    between atoms: C_7  and  C_19
REMARK    6  A    between atoms: C_9  and  C_12
REMARK    7  A    between atoms: C_15  and  O_16
REMARK    8  A    between atoms: C_19  and  O_20
REMARK                            x       y       z     vdW  Elec       q    Type
REMARK                         _______ _______ _______ _____ _____    ______ ____
ROOT
ATOM      1  C   UNL     1       7.224  -2.960  24.282  0.00  0.00    +0.157 A 
ATOM      2  C   UNL     1       7.400  -1.538  24.194  0.00  0.00    +0.075 A 
ATOM      3 BR   UNL     1       6.010  -0.305  24.613  0.00  0.00    -0.045 Br
ATOM      4  C   UNL     1       8.690  -1.163  23.850  0.00  0.00    +0.038 A 
ATOM      5  S   UNL     1       9.700  -2.557  23.786  0.00  0.00    -0.077 S 
ATOM      6  C   UNL     1       8.435  -3.624  24.209  0.00  0.00    +0.139 A 
ENDROOT
BRANCH   4   7
ATOM      7  C   UNL     1       9.278   0.162  23.550  0.00  0.00    -0.010 A 
ATOM      8  C   UNL     1       9.743   1.008  24.573  0.00  0.00    +0.012 A 
ATOM      9  C   UNL     1      10.343   2.236  24.277  0.00  0.00    +0.046 A 
ATOM     10  C   UNL     1      10.460   2.647  22.957  0.00  0.00    +0.117 A 
ATOM     11  C   UNL     1       9.991   1.846  21.926  0.00  0.00    +0.046 A 
ATOM     12  C   UNL     1       9.418   0.605  22.224  0.00  0.00    +0.012 A 
BRANCH  10  13
ATOM     13  O   UNL     1      11.057   3.847  22.716  0.00  0.00    -0.507 OA
ATOM     14  H   UNL     1      11.279   3.902  21.772  0.00  0.00    +0.292 HD
ENDBRANCH  10  13
ENDBRANCH   4   7
BRANCH   6  15
ATOM     15  C   UNL     1       8.681  -5.042  24.422  0.00  0.00    +0.347 C 
ATOM     16  O   UNL     1       9.196  -5.524  25.423  0.00  0.00    -0.244 OA
BRANCH  15  17
ATOM     17  O   UNL     1       8.302  -5.820  23.374  0.00  0.00    -0.477 OA
ATOM     18  H   UNL     1       7.519  -6.370  23.576  0.00  0.00    +0.295 HD
ENDBRANCH  15  17
ENDBRANCH   6  15
BRANCH   1  19
ATOM     19  O   UNL     1       6.088  -3.670  24.537  0.00  0.00    -0.478 OA
BRANCH  19  20
ATOM     20  C   UNL     1       5.089  -3.568  23.521  0.00  0.00    +0.349 C 
BRANCH  20  21
ATOM     21  C   UNL     1       5.424  -4.419  22.303  0.00  0.00    +0.343 C 
ATOM     22  O   UNL     1       5.495  -5.639  22.343  0.00  0.00    -0.247 OA
BRANCH  21  23
ATOM     23  O   UNL     1       5.631  -3.709  21.174  0.00  0.00    -0.478 OA
ATOM     24  H   UNL     1       6.574  -3.718  20.888  0.00  0.00    +0.295 HD
ENDBRANCH  21  23
ENDBRANCH  20  21
ENDBRANCH  19  20
ENDBRANCH   1  19
TORSDOF 8
ENDMDL
MODEL 4
REMARK VINA RESULT:      -5.9      2.065      3.283
REMARK  Name = 
REMARK  8 active torsions:
REMARK  status: ('A' for Active; 'I' for Inactive)
REMARK    1  A    between atoms: O_1  and  C_2
REMARK    2  A    between atoms: C_2  and  C_4
REMARK    3  A    between atoms: C_4  and  O_5
REMARK    4  A    between atoms: O_5  and  C_6
REMARK    5  A    between atoms: C_7  and  C_19
REMARK    6  A    between atoms: C_9  and  C_12
REMARK    7  A    between atoms: C_15  and  O_16
REMARK    8  A    between atoms: C_19  and  O_20
REMARK                            x       y       z     vdW  Elec       q    Type
REMARK                         _______ _______ _______ _____ _____    ______ ____
ROOT
ATOM      1  C   UNL     1       6.985  -3.667  25.257  0.00  0.00    +0.157 A 
ATOM      2  C   UNL     1       7.137  -2.351  24.707  0.00  0.00    +0.075 A 
ATOM      3 BR   UNL     1       5.718  -1.081  24.679  0.00  0.00    -0.045 Br
ATOM      4  C   UNL     1       8.426  -2.080  24.274  0.00  0.00    +0.038 A 
ATOM      5  S   UNL     1       9.463  -3.393  24.685  0.00  0.00    -0.077 S 
ATOM      6  C   UNL     1       8.209  -4.290  25.422  0.00  0.00    +0.139 A 
ENDROOT
BRANCH   4   7
ATOM      7  C   UNL     1       8.996  -0.915  23.561  0.00  0.00    -0.010 A 
ATOM      8  C   UNL     1       8.860  -0.766  22.168  0.00  0.00    +0.012 A 
ATOM      9  C   UNL     1       9.357   0.364  21.511  0.00  0.00    +0.046 A 
ATOM     10  C   UNL     1      10.021   1.345  22.232  0.00  0.00    +0.117 A 
ATOM     11  C   UNL     1      10.192   1.219  23.603  0.00  0.00    +0.046 A 
ATOM     12  C   UNL     1       9.667   0.101  24.262  0.00  0.00    +0.012 A 
BRANCH  10  13
ATOM     13  O   UNL     1      10.482   2.431  21.551  0.00  0.00    -0.507 OA
ATOM     14  H   UNL     1      11.163   2.871  22.088  0.00  0.00    +0.292 HD
ENDBRANCH  10  13
ENDBRANCH   4   7
BRANCH   6  15
ATOM     15  C   UNL     1       8.477  -5.553  26.093  0.00  0.00    +0.347 C 
ATOM     16  O   UNL     1       7.844  -5.991  27.045  0.00  0.00    -0.244 OA
BRANCH  15  17
ATOM     17  O   UNL     1       9.539  -6.226  25.576  0.00  0.00    -0.477 OA
ATOM     18  H   UNL     1       9.609  -7.140  25.917  0.00  0.00    +0.295 HD
ENDBRANCH  15  17
ENDBRANCH   6  15
BRANCH   1  19
ATOM     19  O   UNL     1       5.858  -4.280  25.719  0.00  0.00    -0.478 OA
BRANCH  19  20
ATOM     20  C   UNL     1       5.091  -4.940  24.710  0.00  0.00    +0.349 C 
BRANCH  20  21
ATOM     21  C   UNL     1       4.911  -6.423  25.010  0.00  0.00    +0.343 C 
ATOM     22  O   UNL     1       4.880  -6.874  26.147  0.00  0.00    -0.247 OA
BRANCH  21  23
ATOM     23  O   UNL     1       4.783  -7.196  23.911  0.00  0.00    -0.478 OA
ATOM     24  H   UNL     1       5.517  -7.847  23.819  0.00  0.00    +0.295 HD
ENDBRANCH  21  23
ENDBRANCH  20  21
ENDBRANCH  19  20
ENDBRANCH   1  19
TORSDOF 8
ENDMDL
MODEL 5
REMARK VINA RESULT:      -5.9      2.019      2.516
REMARK  Name = 
REMARK  8 active torsions:
REMARK  status: ('A' for Active; 'I' for Inactive)
REMARK    1  A    between atoms: O_1  and  C_2
REMARK    2  A    between atoms: C_2  and  C_4
REMARK    3  A    between atoms: C_4  and  O_5
REMARK    4  A    between atoms: O_5  and  C_6
REMARK    5  A    between atoms: C_7  and  C_19
REMARK    6  A    between atoms: C_9  and  C_12
REMARK    7  A    between atoms: C_15  and  O_16
REMARK    8  A    between atoms: C_19  and  O_20
REMARK                            x       y       z     vdW  Elec       q    Type
REMARK                         _______ _______ _______ _____ _____    ______ ____
ROOT
ATOM      1  C   UNL     1       7.106  -2.945  24.817  0.00  0.00    +0.157 A 
ATOM      2  C   UNL     1       7.685  -1.638  24.941  0.00  0.00    +0.075 A 
ATOM      3 BR   UNL     1       7.460  -0.560  26.495  0.00  0.00    -0.045 Br
ATOM      4  C   UNL     1       8.473  -1.280  23.858  0.00  0.00    +0.038 A 
ATOM      5  S   UNL     1       8.610  -2.613  22.776  0.00  0.00    -0.077 S 
ATOM      6  C   UNL     1       7.637  -3.633  23.742  0.00  0.00    +0.139 A 
ENDROOT
BRANCH   4   7
ATOM      7  C   UNL     1       9.161  -0.013  23.523  0.00  0.00    -0.010 A 
ATOM      8  C   UNL     1       8.801   0.743  22.392  0.00  0.00    +0.012 A 
ATOM      9  C   UNL     1       9.422   1.964  22.112  0.00  0.00    +0.046 A 
ATOM     10  C   UNL     1      10.429   2.432  22.943  0.00  0.00    +0.117 A 
ATOM     11  C   UNL     1      10.824   1.701  24.054  0.00  0.00    +0.046 A 
ATOM     12  C   UNL     1      10.180   0.494  24.347  0.00  0.00    +0.012 A 
BRANCH  10  13
ATOM     13  O   UNL     1      11.001   3.630  22.635  0.00  0.00    -0.507 OA
ATOM     14  H   UNL     1      11.752   3.781  23.232  0.00  0.00    +0.292 HD
ENDBRANCH  10  13
ENDBRANCH   4   7
BRANCH   6  15
ATOM     15  C   UNL     1       7.425  -5.029  23.391  0.00  0.00    +0.347 C 
ATOM     16  O   UNL     1       8.308  -5.819  23.084  0.00  0.00    -0.244 OA
BRANCH  15  17
ATOM     17  O   UNL     1       6.116  -5.399  23.409  0.00  0.00    -0.477 OA
ATOM     18  H   UNL     1       5.737  -5.399  24.310  0.00  0.00    +0.295 HD
ENDBRANCH  15  17
ENDBRANCH   6  15
BRANCH   1  19
ATOM     19  O   UNL     1       6.242  -3.584  25.658  0.00  0.00    -0.478 OA
BRANCH  19  20
ATOM     20  C   UNL     1       6.825  -4.008  26.891  0.00  0.00    +0.349 C 
BRANCH  20  21
ATOM     21  C   UNL     1       7.058  -5.513  26.925  0.00  0.00    +0.343 C 
ATOM     22  O   UNL     1       6.146  -6.327  26.971  0.00  0.00    -0.247 OA
BRANCH  21  23
ATOM     23  O   UNL     1       8.359  -5.870  26.893  0.00  0.00    -0.478 OA
ATOM     24  H   UNL     1       8.482  -6.836  26.740  0.00  0.00    +0.295 HD
ENDBRANCH  21  23
ENDBRANCH  20  21
ENDBRANCH  19  20
ENDBRANCH   1  19
TORSDOF 8
ENDMDL
MODEL 6
REMARK VINA RESULT:      -5.7      3.170      7.591
REMARK  Name = 
REMARK  8 active torsions:
REMARK  status: ('A' for Active; 'I' for Inactive)
REMARK    1  A    between atoms: O_1  and  C_2
REMARK    2  A    between atoms: C_2  and  C_4
REMARK    3  A    between atoms: C_4  and  O_5
REMARK    4  A    between atoms: O_5  and  C_6
REMARK    5  A    between atoms: C_7  and  C_19
REMARK    6  A    between atoms: C_9  and  C_12
REMARK    7  A    between atoms: C_15  and  O_16
REMARK    8  A    between atoms: C_19  and  O_20
REMARK                            x       y       z     vdW  Elec       q    Type
REMARK                         _______ _______ _______ _____ _____    ______ ____
ROOT
ATOM      1  C   UNL     1       8.198   0.407  22.873  0.00  0.00    +0.157 A 
ATOM      2  C   UNL     1       7.777  -0.879  23.353  0.00  0.00    +0.075 A 
ATOM      3 BR   UNL     1       6.307  -1.825  22.597  0.00  0.00    -0.045 Br
ATOM      4  C   UNL     1       8.587  -1.383  24.359  0.00  0.00    +0.038 A 
ATOM      5  S   UNL     1       9.936  -0.338  24.594  0.00  0.00    -0.077 S 
ATOM      6  C   UNL     1       9.437   0.754  23.378  0.00  0.00    +0.139 A 
ENDROOT
BRANCH   4   7
ATOM      7  C   UNL     1       8.467  -2.597  25.197  0.00  0.00    -0.010 A 
ATOM      8  C   UNL     1       7.468  -2.716  26.180  0.00  0.00    +0.012 A 
ATOM      9  C   UNL     1       7.332  -3.887  26.932  0.00  0.00    +0.046 A 
ATOM     10  C   UNL     1       8.208  -4.943  26.730  0.00  0.00    +0.117 A 
ATOM     11  C   UNL     1       9.219  -4.850  25.785  0.00  0.00    +0.046 A 
ATOM     12  C   UNL     1       9.335  -3.688  25.013  0.00  0.00    +0.012 A 
BRANCH  10  13
ATOM     13  O   UNL     1       8.033  -6.067  27.481  0.00  0.00    -0.507 OA
ATOM     14  H   UNL     1       7.162  -6.447  27.275  0.00  0.00    +0.292 HD
ENDBRANCH  10  13
ENDBRANCH   4   7
BRANCH   6  15
ATOM     15  C   UNL     1      10.260   1.892  23.001  0.00  0.00    +0.347 C 
ATOM     16  O   UNL     1      10.924   2.568  23.777  0.00  0.00    -0.244 OA
BRANCH  15  17
ATOM     17  O   UNL     1      10.218   2.175  21.671  0.00  0.00    -0.477 OA
ATOM     18  H   UNL     1       9.339   2.003  21.277  0.00  0.00    +0.295 HD
ENDBRANCH  15  17
ENDBRANCH   6  15
BRANCH   1  19
ATOM     19  O   UNL     1       7.608   1.210  21.942  0.00  0.00    -0.478 OA
BRANCH  19  20
ATOM     20  C   UNL     1       6.536   2.008  22.446  0.00  0.00    +0.349 C 
BRANCH  20  21
ATOM     21  C   UNL     1       6.991   3.418  22.802  0.00  0.00    +0.343 C 
ATOM     22  O   UNL     1       7.249   4.266  21.958  0.00  0.00    -0.247 OA
BRANCH  21  23
ATOM     23  O   UNL     1       7.080   3.651  24.128  0.00  0.00    -0.478 OA
ATOM     24  H   UNL     1       7.880   3.243  24.531  0.00  0.00    +0.295 HD
ENDBRANCH  21  23
ENDBRANCH  20  21
ENDBRANCH  19  20
ENDBRANCH   1  19
TORSDOF 8
ENDMDL
MODEL 7
REMARK VINA RESULT:      -5.6      3.147      6.947
REMARK  Name = 
REMARK  8 active torsions:
REMARK  status: ('A' for Active; 'I' for Inactive)
REMARK    1  A    between atoms: O_1  and  C_2
REMARK    2  A    between atoms: C_2  and  C_4
REMARK    3  A    between atoms: C_4  and  O_5
REMARK    4  A    between atoms: O_5  and  C_6
REMARK    5  A    between atoms: C_7  and  C_19
REMARK    6  A    between atoms: C_9  and  C_12
REMARK    7  A    between atoms: C_15  and  O_16
REMARK    8  A    between atoms: C_19  and  O_20
REMARK                            x       y       z     vdW  Elec       q    Type
REMARK                         _______ _______ _______ _____ _____    ______ ____
ROOT
ATOM      1  C   UNL     1       8.741   0.139  24.728  0.00  0.00    +0.157 A 
ATOM      2  C   UNL     1       8.728  -0.986  23.838  0.00  0.00    +0.075 A 
ATOM      3 BR   UNL     1      10.125  -1.321  22.588  0.00  0.00    -0.045 Br
ATOM      4  C   UNL     1       7.645  -1.830  24.033  0.00  0.00    +0.038 A 
ATOM      5  S   UNL     1       6.742  -1.307  25.403  0.00  0.00    -0.077 S 
ATOM      6  C   UNL     1       7.782   0.011  25.717  0.00  0.00    +0.139 A 
ENDROOT
BRANCH   4   7
ATOM      7  C   UNL     1       7.187  -3.024  23.287  0.00  0.00    -0.010 A 
ATOM      8  C   UNL     1       6.197  -2.934  22.291  0.00  0.00    +0.012 A 
ATOM      9  C   UNL     1       5.808  -4.059  21.557  0.00  0.00    +0.046 A 
ATOM     10  C   UNL     1       6.381  -5.293  21.828  0.00  0.00    +0.117 A 
ATOM     11  C   UNL     1       7.343  -5.420  22.819  0.00  0.00    +0.046 A 
ATOM     12  C   UNL     1       7.752  -4.287  23.532  0.00  0.00    +0.012 A 
BRANCH  10  13
ATOM     13  O   UNL     1       5.976  -6.359  21.083  0.00  0.00    -0.507 OA
ATOM     14  H   UNL     1       6.252  -6.219  20.162  0.00  0.00    +0.292 HD
ENDBRANCH  10  13
ENDBRANCH   4   7
BRANCH   6  15
ATOM     15  C   UNL     1       7.597   0.858  26.886  0.00  0.00    +0.347 C 
ATOM     16  O   UNL     1       7.049   1.953  26.881  0.00  0.00    -0.244 OA
BRANCH  15  17
ATOM     17  O   UNL     1       8.120   0.331  28.025  0.00  0.00    -0.477 OA
ATOM     18  H   UNL     1       7.808  -0.580  28.197  0.00  0.00    +0.295 HD
ENDBRANCH  15  17
ENDBRANCH   6  15
BRANCH   1  19
ATOM     19  O   UNL     1       9.614   1.185  24.777  0.00  0.00    -0.478 OA
BRANCH  19  20
ATOM     20  C   UNL     1       9.245   2.300  23.962  0.00  0.00    +0.349 C 
BRANCH  20  21
ATOM     21  C   UNL     1      10.370   2.720  23.026  0.00  0.00    +0.343 C 
ATOM     22  O   UNL     1      11.307   3.421  23.383  0.00  0.00    -0.247 OA
BRANCH  21  23
ATOM     23  O   UNL     1      10.247   2.246  21.768  0.00  0.00    -0.478 OA
ATOM     24  H   UNL     1       9.439   1.696  21.649  0.00  0.00    +0.295 HD
ENDBRANCH  21  23
ENDBRANCH  20  21
ENDBRANCH  19  20
ENDBRANCH   1  19
TORSDOF 8
ENDMDL
MODEL 8
REMARK VINA RESULT:      -5.6      1.989      2.531
REMARK  Name = 
REMARK  8 active torsions:
REMARK  status: ('A' for Active; 'I' for Inactive)
REMARK    1  A    between atoms: O_1  and  C_2
REMARK    2  A    between atoms: C_2  and  C_4
REMARK    3  A    between atoms: C_4  and  O_5
REMARK    4  A    between atoms: O_5  and  C_6
REMARK    5  A    between atoms: C_7  and  C_19
REMARK    6  A    between atoms: C_9  and  C_12
REMARK    7  A    between atoms: C_15  and  O_16
REMARK    8  A    between atoms: C_19  and  O_20
REMARK                            x       y       z     vdW  Elec       q    Type
REMARK                         _______ _______ _______ _____ _____    ______ ____
ROOT
ATOM      1  C   UNL     1       6.255  -3.688  24.262  0.00  0.00    +0.157 A 
ATOM      2  C   UNL     1       6.986  -2.548  24.737  0.00  0.00    +0.075 A 
ATOM      3 BR   UNL     1       6.928  -1.977  26.553  0.00  0.00    -0.045 Br
ATOM      4  C   UNL     1       7.784  -1.962  23.766  0.00  0.00    +0.038 A 
ATOM      5  S   UNL     1       7.736  -2.909  22.328  0.00  0.00    -0.077 S 
ATOM      6  C   UNL     1       6.675  -4.068  23.000  0.00  0.00    +0.139 A 
ENDROOT
BRANCH   4   7
ATOM      7  C   UNL     1       8.606  -0.731  23.786  0.00  0.00    -0.010 A 
ATOM      8  C   UNL     1       9.846  -0.686  24.449  0.00  0.00    +0.012 A 
ATOM      9  C   UNL     1      10.639   0.466  24.419  0.00  0.00    +0.046 A 
ATOM     10  C   UNL     1      10.190   1.596  23.751  0.00  0.00    +0.117 A 
ATOM     11  C   UNL     1       8.962   1.592  23.107  0.00  0.00    +0.046 A 
ATOM     12  C   UNL     1       8.184   0.428  23.113  0.00  0.00    +0.012 A 
BRANCH  10  13
ATOM     13  O   UNL     1      10.999   2.692  23.744  0.00  0.00    -0.507 OA
ATOM     14  H   UNL     1      10.634   3.344  23.122  0.00  0.00    +0.292 HD
ENDBRANCH  10  13
ENDBRANCH   4   7
BRANCH   6  15
ATOM     15  C   UNL     1       6.293  -5.261  22.261  0.00  0.00    +0.347 C 
ATOM     16  O   UNL     1       7.072  -6.017  21.695  0.00  0.00    -0.244 OA
BRANCH  15  17
ATOM     17  O   UNL     1       4.950  -5.468  22.225  0.00  0.00    -0.477 OA
ATOM     18  H   UNL     1       4.493  -5.118  23.016  0.00  0.00    +0.295 HD
ENDBRANCH  15  17
ENDBRANCH   6  15
BRANCH   1  19
ATOM     19  O   UNL     1       5.344  -4.460  24.922  0.00  0.00    -0.478 OA
BRANCH  19  20
ATOM     20  C   UNL     1       5.917  -5.508  25.706  0.00  0.00    +0.349 C 
BRANCH  20  21
ATOM     21  C   UNL     1       5.035  -6.750  25.728  0.00  0.00    +0.343 C 
ATOM     22  O   UNL     1       4.528  -7.224  24.721  0.00  0.00    -0.247 OA
BRANCH  21  23
ATOM     23  O   UNL     1       4.868  -7.286  26.955  0.00  0.00    -0.478 OA
ATOM     24  H   UNL     1       4.645  -6.610  27.636  0.00  0.00    +0.295 HD
ENDBRANCH  21  23
ENDBRANCH  20  21
ENDBRANCH  19  20
ENDBRANCH   1  19
TORSDOF 8
ENDMDL
MODEL 9
REMARK VINA RESULT:      -5.5      3.096      7.369
REMARK  Name = 
REMARK  8 active torsions:
REMARK  status: ('A' for Active; 'I' for Inactive)
REMARK    1  A    between atoms: O_1  and  C_2
REMARK    2  A    between atoms: C_2  and  C_4
REMARK    3  A    between atoms: C_4  and  O_5
REMARK    4  A    between atoms: O_5  and  C_6
REMARK    5  A    between atoms: C_7  and  C_19
REMARK    6  A    between atoms: C_9  and  C_12
REMARK    7  A    between atoms: C_15  and  O_16
REMARK    8  A    between atoms: C_19  and  O_20
REMARK                            x       y       z     vdW  Elec       q    Type
REMARK                         _______ _______ _______ _____ _____    ______ ____
ROOT
ATOM      1  C   UNL     1       8.261   0.675  24.088  0.00  0.00    +0.157 A 
ATOM      2  C   UNL     1       7.442  -0.502  24.026  0.00  0.00    +0.075 A 
ATOM      3 BR   UNL     1       5.765  -0.632  24.920  0.00  0.00    -0.045 Br
ATOM      4  C   UNL     1       7.957  -1.488  23.199  0.00  0.00    +0.038 A 
ATOM      5  S   UNL     1       9.362  -0.896  22.398  0.00  0.00    -0.077 S 
ATOM      6  C   UNL     1       9.271   0.638  23.145  0.00  0.00    +0.139 A 
ENDROOT
BRANCH   4   7
ATOM      7  C   UNL     1       7.509  -2.873  22.929  0.00  0.00    -0.010 A 
ATOM      8  C   UNL     1       6.516  -3.151  21.972  0.00  0.00    +0.012 A 
ATOM      9  C   UNL     1       6.135  -4.466  21.688  0.00  0.00    +0.046 A 
ATOM     10  C   UNL     1       6.721  -5.518  22.376  0.00  0.00    +0.117 A 
ATOM     11  C   UNL     1       7.686  -5.278  23.343  0.00  0.00    +0.046 A 
ATOM     12  C   UNL     1       8.086  -3.962  23.604  0.00  0.00    +0.012 A 
BRANCH  10  13
ATOM     13  O   UNL     1       6.323  -6.783  22.061  0.00  0.00    -0.507 OA
ATOM     14  H   UNL     1       5.803  -6.751  21.240  0.00  0.00    +0.292 HD
ENDBRANCH  10  13
ENDBRANCH   4   7
BRANCH   6  15
ATOM     15  C   UNL     1      10.195   1.705  22.793  0.00  0.00    +0.347 C 
ATOM     16  O   UNL     1      11.045   2.174  23.540  0.00  0.00    -0.244 OA
BRANCH  15  17
ATOM     17  O   UNL     1      10.021   2.178  21.530  0.00  0.00    -0.477 OA
ATOM     18  H   UNL     1       9.183   2.670  21.423  0.00  0.00    +0.295 HD
ENDBRANCH  15  17
ENDBRANCH   6  15
BRANCH   1  19
ATOM     19  O   UNL     1       8.090   1.801  24.838  0.00  0.00    -0.478 OA
BRANCH  19  20
ATOM     20  C   UNL     1       7.249   2.788  24.237  0.00  0.00    +0.349 C 
BRANCH  20  21
ATOM     21  C   UNL     1       8.006   4.075  23.934  0.00  0.00    +0.343 C 
ATOM     22  O   UNL     1       8.525   4.761  24.803  0.00  0.00    -0.247 OA
BRANCH  21  23
ATOM     23  O   UNL     1       8.059   4.388  22.623  0.00  0.00    -0.478 OA
ATOM     24  H   UNL     1       8.041   5.360  22.464  0.00  0.00    +0.295 HD
ENDBRANCH  21  23
ENDBRANCH  20  21
ENDBRANCH  19  20
ENDBRANCH   1  19
TORSDOF 8
ENDMDL
