MODEL 1
REMARK VINA RESULT:      -7.0      0.000      0.000
REMARK  Name = 
REMARK  14 active torsions:
REMARK  status: ('A' for Active; 'I' for Inactive)
REMARK    1  A    between atoms: C_1  and  C_2
REMARK    2  A    between atoms: C_7  and  C_8
REMARK    3  A    between atoms: N_9  and  C_10
REMARK    4  A    between atoms: C_10  and  C_11
REMARK    5  A    between atoms: C_11  and  O_13
REMARK    6  A    between atoms: C_11  and  C_14
REMARK    7  A    between atoms: C_14  and  O_16
REMARK    8  A    between atoms: C_14  and  C_17
REMARK    9  A    between atoms: C_17  and  O_19
REMARK   10  A    between atoms: C_17  and  C_20
REMARK   11  A    between atoms: C_20  and  O_21
REMARK   12  A    between atoms: O_21  and  P_22
REMARK   13  A    between atoms: P_22  and  O_23
REMARK   14  A    between atoms: P_22  and  O_24
REMARK                            x       y       z     vdW  Elec       q    Type
REMARK                         _______ _______ _______ _____ _____    ______ ____
ROOT
ATOM      1  C   UNL     1       9.809   0.430  22.090  0.00  0.00    +0.044 C 
ATOM      2  C   UNL     1       8.621  -0.325  22.607  0.00  0.00    -0.045 A 
ATOM      3  C   UNL     1       7.751   0.236  23.536  0.00  0.00    -0.045 A 
ATOM      4  C   UNL     1       7.760   1.721  23.813  0.00  0.00    +0.044 C 
ATOM      5  C   UNL     1       6.762  -0.578  24.138  0.00  0.00    +0.031 A 
ATOM      6  C   UNL     1       6.498  -1.910  23.779  0.00  0.00    +0.069 A 
ATOM      7  N   UNL     1       5.494  -2.746  24.316  0.00  0.00    -0.320 N 
ATOM      8  C   UNL     1       5.225  -3.956  23.624  0.00  0.00    +0.170 A 
ATOM      9  C   UNL     1       6.081  -4.338  22.443  0.00  0.00    +0.171 A 
ATOM     10  N   UNL     1       7.088  -3.616  22.068  0.00  0.00    -0.237 NA
ATOM     11  C   UNL     1       5.760  -5.599  21.690  0.00  0.00    +0.282 A 
ATOM     12  O   UNL     1       6.335  -5.928  20.664  0.00  0.00    -0.265 OA
ATOM     13  N   UNL     1       4.746  -6.311  22.247  0.00  0.00    -0.272 N 
ATOM     14  H   UNL     1       4.473  -7.174  21.785  0.00  0.00    +0.174 HD
ATOM     15  C   UNL     1       4.002  -5.942  23.319  0.00  0.00    +0.351 A 
ATOM     16  O   UNL     1       3.090  -6.685  23.684  0.00  0.00    -0.245 OA
ATOM     17  N   UNL     1       4.272  -4.760  23.973  0.00  0.00    -0.173 NA
ATOM     18  C   UNL     1       7.306  -2.390  22.715  0.00  0.00    +0.089 A 
ATOM     19  C   UNL     1       8.368  -1.630  22.188  0.00  0.00    +0.033 A 
ENDROOT
BRANCH   7  20
ATOM     20  C   UNL     1       4.668  -2.576  25.565  0.00  0.00    +0.158 C 
BRANCH  20  21
ATOM     21  C   UNL     1       5.176  -2.938  26.974  0.00  0.00    +0.165 C 
BRANCH  21  22
ATOM     22  O   UNL     1       4.639  -2.129  28.024  0.00  0.00    -0.387 OA
ATOM     23  H   UNL     1       4.443  -1.242  27.646  0.00  0.00    +0.210 HD
ENDBRANCH  21  22
BRANCH  21  24
ATOM     24  C   UNL     1       4.878  -4.412  27.395  0.00  0.00    +0.175 C 
BRANCH  24  25
ATOM     25  O   UNL     1       3.611  -4.830  26.843  0.00  0.00    -0.387 OA
ATOM     26  H   UNL     1       3.032  -5.078  27.586  0.00  0.00    +0.210 HD
ENDBRANCH  24  25
BRANCH  24  27
ATOM     27  C   UNL     1       5.913  -5.500  27.003  0.00  0.00    +0.172 C 
BRANCH  27  28
ATOM     28  O   UNL     1       5.687  -6.678  27.781  0.00  0.00    -0.387 OA
ATOM     29  H   UNL     1       4.924  -6.515  28.365  0.00  0.00    +0.210 HD
ENDBRANCH  27  28
BRANCH  27  30
ATOM     30  C   UNL     1       7.394  -5.080  27.074  0.00  0.00    +0.206 C 
BRANCH  30  31
ATOM     31  O   UNL     1       8.150  -5.723  26.052  0.00  0.00    -0.284 OA
BRANCH  31  32
ATOM     32  P   UNL     1       9.189  -4.666  25.160  0.00  0.00    +0.472 P 
ATOM     33  O   UNL     1      10.118  -3.719  24.361  0.00  0.00    -0.228 OA
BRANCH  32  34
ATOM     34  O   UNL     1       8.759  -5.608  23.896  0.00  0.00    -0.303 OA
ATOM     35  H   UNL     1       9.558  -5.956  23.465  0.00  0.00    +0.222 HD
ENDBRANCH  32  34
BRANCH  32  36
ATOM     36  O   UNL     1      10.382  -5.630  25.725  0.00  0.00    -0.303 OA
ATOM     37  H   UNL     1      10.286  -5.810  26.681  0.00  0.00    +0.222 HD
ENDBRANCH  32  36
ENDBRANCH  31  32
ENDBRANCH  30  31
ENDBRANCH  27  30
ENDBRANCH  24  27
ENDBRANCH  21  24
ENDBRANCH  20  21
ENDBRANCH   7  20
TORSDOF 12
ENDMDL
MODEL 2
REMARK VINA RESULT:      -7.0      3.192      6.223
REMARK  Name = 
REMARK  14 active torsions:
REMARK  status: ('A' for Active; 'I' for Inactive)
REMARK    1  A    between atoms: C_1  and  C_2
REMARK    2  A    between atoms: C_7  and  C_8
REMARK    3  A    between atoms: N_9  and  C_10
REMARK    4  A    between atoms: C_10  and  C_11
REMARK    5  A    between atoms: C_11  and  O_13
REMARK    6  A    between atoms: C_11  and  C_14
REMARK    7  A    between atoms: C_14  and  O_16
REMARK    8  A    between atoms: C_14  and  C_17
REMARK    9  A    between atoms: C_17  and  O_19
REMARK   10  A    between atoms: C_17  and  C_20
REMARK   11  A    between atoms: C_20  and  O_21
REMARK   12  A    between atoms: O_21  and  P_22
REMARK   13  A    between atoms: P_22  and  O_23
REMARK   14  A    between atoms: P_22  and  O_24
REMARK                            x       y       z     vdW  Elec       q    Type
REMARK                         _______ _______ _______ _____ _____    ______ ____
ROOT
ATOM      1  C   UNL     1       9.803   6.290  23.732  0.00  0.00    +0.044 C 
ATOM      2  C   UNL     1       9.757   4.819  24.020  0.00  0.00    -0.045 A 
ATOM      3  C   UNL     1      10.767   3.962  23.592  0.00  0.00    -0.045 A 
ATOM      4  C   UNL     1      12.097   4.502  23.120  0.00  0.00    +0.044 C 
ATOM      5  C   UNL     1      10.587   2.564  23.716  0.00  0.00    +0.031 A 
ATOM      6  C   UNL     1       9.501   1.953  24.363  0.00  0.00    +0.069 A 
ATOM      7  N   UNL     1       9.301   0.568  24.554  0.00  0.00    -0.320 N 
ATOM      8  C   UNL     1       8.284   0.183  25.465  0.00  0.00    +0.170 A 
ATOM      9  C   UNL     1       7.408   1.242  26.086  0.00  0.00    +0.171 A 
ATOM     10  N   UNL     1       7.526   2.493  25.775  0.00  0.00    -0.237 NA
ATOM     11  C   UNL     1       6.363   0.828  27.085  0.00  0.00    +0.282 A 
ATOM     12  O   UNL     1       5.684   1.627  27.709  0.00  0.00    -0.265 OA
ATOM     13  N   UNL     1       6.279  -0.519  27.243  0.00  0.00    -0.272 N 
ATOM     14  H   UNL     1       5.596  -0.869  27.909  0.00  0.00    +0.174 HD
ATOM     15  C   UNL     1       7.078  -1.446  26.660  0.00  0.00    +0.351 A 
ATOM     16  O   UNL     1       6.897  -2.633  26.934  0.00  0.00    -0.245 OA
ATOM     17  N   UNL     1       8.066  -1.053  25.783  0.00  0.00    -0.173 NA
ATOM     18  C   UNL     1       8.576   2.872  24.925  0.00  0.00    +0.089 A 
ATOM     19  C   UNL     1       8.682   4.259  24.708  0.00  0.00    +0.033 A 
ENDROOT
BRANCH   7  20
ATOM     20  C   UNL     1       9.985  -0.601  23.893  0.00  0.00    +0.158 C 
BRANCH  20  21
ATOM     21  C   UNL     1       9.507  -1.228  22.569  0.00  0.00    +0.165 C 
BRANCH  21  22
ATOM     22  O   UNL     1      10.547  -1.475  21.620  0.00  0.00    -0.387 OA
ATOM     23  H   UNL     1      10.386  -2.362  21.226  0.00  0.00    +0.210 HD
ENDBRANCH  21  22
BRANCH  21  24
ATOM     24  C   UNL     1       8.774  -2.596  22.745  0.00  0.00    +0.175 C 
BRANCH  24  25
ATOM     25  O   UNL     1       9.109  -3.167  24.028  0.00  0.00    -0.387 OA
ATOM     26  H   UNL     1      10.070  -3.323  24.040  0.00  0.00    +0.210 HD
ENDBRANCH  24  25
BRANCH  24  27
ATOM     27  C   UNL     1       7.225  -2.604  22.648  0.00  0.00    +0.172 C 
BRANCH  27  28
ATOM     28  O   UNL     1       6.726  -1.282  22.864  0.00  0.00    -0.387 OA
ATOM     29  H   UNL     1       6.217  -1.016  22.076  0.00  0.00    +0.210 HD
ENDBRANCH  27  28
BRANCH  27  30
ATOM     30  C   UNL     1       6.496  -3.613  23.557  0.00  0.00    +0.206 C 
BRANCH  30  31
ATOM     31  O   UNL     1       6.797  -4.951  23.169  0.00  0.00    -0.284 OA
BRANCH  31  32
ATOM     32  P   UNL     1       6.337  -5.346  21.549  0.00  0.00    +0.472 P 
ATOM     33  O   UNL     1       5.927  -5.699  20.098  0.00  0.00    -0.228 OA
BRANCH  32  34
ATOM     34  O   UNL     1       4.836  -4.980  22.079  0.00  0.00    -0.303 OA
ATOM     35  H   UNL     1       4.221  -5.686  21.823  0.00  0.00    +0.222 HD
ENDBRANCH  32  34
BRANCH  32  36
ATOM     36  O   UNL     1       6.365  -6.888  22.092  0.00  0.00    -0.303 OA
ATOM     37  H   UNL     1       5.605  -7.406  21.763  0.00  0.00    +0.222 HD
ENDBRANCH  32  36
ENDBRANCH  31  32
ENDBRANCH  30  31
ENDBRANCH  27  30
ENDBRANCH  24  27
ENDBRANCH  21  24
ENDBRANCH  20  21
ENDBRANCH   7  20
TORSDOF 12
ENDMDL
MODEL 3
REMARK VINA RESULT:      -6.8      3.119      6.150
REMARK  Name = 
REMARK  14 active torsions:
REMARK  status: ('A' for Active; 'I' for Inactive)
REMARK    1  A    between atoms: C_1  and  C_2
REMARK    2  A    between atoms: C_7  and  C_8
REMARK    3  A    between atoms: N_9  and  C_10
REMARK    4  A    between atoms: C_10  and  C_11
REMARK    5  A    between atoms: C_11  and  O_13
REMARK    6  A    between atoms: C_11  and  C_14
REMARK    7  A    between atoms: C_14  and  O_16
REMARK    8  A    between atoms: C_14  and  C_17
REMARK    9  A    between atoms: C_17  and  O_19
REMARK   10  A    between atoms: C_17  and  C_20
REMARK   11  A    between atoms: C_20  and  O_21
REMARK   12  A    between atoms: O_21  and  P_22
REMARK   13  A    between atoms: P_22  and  O_23
REMARK   14  A    between atoms: P_22  and  O_24
REMARK                            x       y       z     vdW  Elec       q    Type
REMARK                         _______ _______ _______ _____ _____    ______ ____
ROOT
ATOM      1  C   UNL     1       9.851   6.176  23.779  0.00  0.00    +0.044 C 
ATOM      2  C   UNL     1       9.747   4.704  24.048  0.00  0.00    -0.045 A 
ATOM      3  C   UNL     1      10.709   3.811  23.586  0.00  0.00    -0.045 A 
ATOM      4  C   UNL     1      12.050   4.299  23.093  0.00  0.00    +0.044 C 
ATOM      5  C   UNL     1      10.470   2.420  23.695  0.00  0.00    +0.031 A 
ATOM      6  C   UNL     1       9.371   1.848  24.357  0.00  0.00    +0.069 A 
ATOM      7  N   UNL     1       9.115   0.471  24.533  0.00  0.00    -0.320 N 
ATOM      8  C   UNL     1       8.102   0.117  25.461  0.00  0.00    +0.170 A 
ATOM      9  C   UNL     1       7.287   1.204  26.116  0.00  0.00    +0.171 A 
ATOM     10  N   UNL     1       7.453   2.453  25.819  0.00  0.00    -0.237 NA
ATOM     11  C   UNL     1       6.246   0.821  27.131  0.00  0.00    +0.282 A 
ATOM     12  O   UNL     1       5.616   1.641  27.782  0.00  0.00    -0.265 OA
ATOM     13  N   UNL     1       6.106  -0.522  27.273  0.00  0.00    -0.272 N 
ATOM     14  H   UNL     1       5.422  -0.852  27.949  0.00  0.00    +0.174 HD
ATOM     15  C   UNL     1       6.851  -1.475  26.660  0.00  0.00    +0.351 A 
ATOM     16  O   UNL     1       6.623  -2.657  26.921  0.00  0.00    -0.245 OA
ATOM     17  N   UNL     1       7.836  -1.113  25.767  0.00  0.00    -0.173 NA
ATOM     18  C   UNL     1       8.500   2.798  24.952  0.00  0.00    +0.089 A 
ATOM     19  C   UNL     1       8.663   4.183  24.752  0.00  0.00    +0.033 A 
ENDROOT
BRANCH   7  20
ATOM     20  C   UNL     1       9.732  -0.718  23.842  0.00  0.00    +0.158 C 
BRANCH  20  21
ATOM     21  C   UNL     1       9.260  -1.243  22.472  0.00  0.00    +0.165 C 
BRANCH  21  22
ATOM     22  O   UNL     1      10.316  -1.540  21.554  0.00  0.00    -0.387 OA
ATOM     23  H   UNL     1      10.665  -2.432  21.781  0.00  0.00    +0.210 HD
ENDBRANCH  21  22
BRANCH  21  24
ATOM     24  C   UNL     1       8.406  -2.549  22.556  0.00  0.00    +0.175 C 
BRANCH  24  25
ATOM     25  O   UNL     1       8.482  -3.097  23.889  0.00  0.00    -0.387 OA
ATOM     26  H   UNL     1       7.964  -3.921  23.900  0.00  0.00    +0.210 HD
ENDBRANCH  24  25
BRANCH  24  27
ATOM     27  C   UNL     1       6.898  -2.450  22.203  0.00  0.00    +0.172 C 
BRANCH  27  28
ATOM     28  O   UNL     1       6.183  -1.898  23.311  0.00  0.00    -0.387 OA
ATOM     29  H   UNL     1       5.450  -1.359  22.963  0.00  0.00    +0.210 HD
ENDBRANCH  27  28
BRANCH  27  30
ATOM     30  C   UNL     1       6.229  -3.753  21.722  0.00  0.00    +0.206 C 
BRANCH  30  31
ATOM     31  O   UNL     1       6.675  -4.863  22.496  0.00  0.00    -0.284 OA
BRANCH  31  32
ATOM     32  P   UNL     1       5.446  -5.599  23.464  0.00  0.00    +0.472 P 
ATOM     33  O   UNL     1       4.345  -6.259  24.331  0.00  0.00    -0.228 OA
BRANCH  32  34
ATOM     34  O   UNL     1       4.465  -4.540  22.700  0.00  0.00    -0.303 OA
ATOM     35  H   UNL     1       4.873  -3.658  22.706  0.00  0.00    +0.222 HD
ENDBRANCH  32  34
BRANCH  32  36
ATOM     36  O   UNL     1       5.976  -4.574  24.623  0.00  0.00    -0.303 OA
ATOM     37  H   UNL     1       5.754  -3.645  24.419  0.00  0.00    +0.222 HD
ENDBRANCH  32  36
ENDBRANCH  31  32
ENDBRANCH  30  31
ENDBRANCH  27  30
ENDBRANCH  24  27
ENDBRANCH  21  24
ENDBRANCH  20  21
ENDBRANCH   7  20
TORSDOF 12
ENDMDL
MODEL 4
REMARK VINA RESULT:      -6.7      2.159      3.474
REMARK  Name = 
REMARK  14 active torsions:
REMARK  status: ('A' for Active; 'I' for Inactive)
REMARK    1  A    between atoms: C_1  and  C_2
REMARK    2  A    between atoms: C_7  and  C_8
REMARK    3  A    between atoms: N_9  and  C_10
REMARK    4  A    between atoms: C_10  and  C_11
REMARK    5  A    between atoms: C_11  and  O_13
REMARK    6  A    between atoms: C_11  and  C_14
REMARK    7  A    between atoms: C_14  and  O_16
REMARK    8  A    between atoms: C_14  and  C_17
REMARK    9  A    between atoms: C_17  and  O_19
REMARK   10  A    between atoms: C_17  and  C_20
REMARK   11  A    between atoms: C_20  and  O_21
REMARK   12  A    between atoms: O_21  and  P_22
REMARK   13  A    between atoms: P_22  and  O_23
REMARK   14  A    between atoms: P_22  and  O_24
REMARK                            x       y       z     vdW  Elec       q    Type
REMARK                         _______ _______ _______ _____ _____    ______ ____
ROOT
ATOM      1  C   UNL     1       9.995   0.579  21.980  0.00  0.00    +0.044 C 
ATOM      2  C   UNL     1       9.159  -0.406  22.743  0.00  0.00    -0.045 A 
ATOM      3  C   UNL     1       8.859  -0.217  24.089  0.00  0.00    -0.045 A 
ATOM      4  C   UNL     1       9.067   1.125  24.751  0.00  0.00    +0.044 C 
ATOM      5  C   UNL     1       8.236  -1.262  24.812  0.00  0.00    +0.031 A 
ATOM      6  C   UNL     1       7.772  -2.459  24.244  0.00  0.00    +0.069 A 
ATOM      7  N   UNL     1       7.104  -3.508  24.914  0.00  0.00    -0.320 N 
ATOM      8  C   UNL     1       6.484  -4.496  24.106  0.00  0.00    +0.170 A 
ATOM      9  C   UNL     1       6.661  -4.446  22.610  0.00  0.00    +0.171 A 
ATOM     10  N   UNL     1       7.403  -3.550  22.040  0.00  0.00    -0.237 NA
ATOM     11  C   UNL     1       5.963  -5.471  21.759  0.00  0.00    +0.282 A 
ATOM     12  O   UNL     1       5.969  -5.441  20.539  0.00  0.00    -0.265 OA
ATOM     13  N   UNL     1       5.302  -6.408  22.487  0.00  0.00    -0.272 N 
ATOM     14  H   UNL     1       4.803  -7.130  21.975  0.00  0.00    +0.174 HD
ATOM     15  C   UNL     1       5.172  -6.430  23.836  0.00  0.00    +0.351 A 
ATOM     16  O   UNL     1       4.508  -7.333  24.347  0.00  0.00    -0.245 OA
ATOM     17  N   UNL     1       5.774  -5.458  24.605  0.00  0.00    -0.173 NA
ATOM     18  C   UNL     1       7.957  -2.539  22.839  0.00  0.00    +0.089 A 
ATOM     19  C   UNL     1       8.678  -1.560  22.128  0.00  0.00    +0.033 A 
ENDROOT
BRANCH   7  20
ATOM     20  C   UNL     1       6.976  -3.778  26.391  0.00  0.00    +0.158 C 
BRANCH  20  21
ATOM     21  C   UNL     1       6.787  -5.188  26.983  0.00  0.00    +0.165 C 
BRANCH  21  22
ATOM     22  O   UNL     1       7.997  -5.933  27.140  0.00  0.00    -0.387 OA
ATOM     23  H   UNL     1       7.768  -6.888  27.083  0.00  0.00    +0.210 HD
ENDBRANCH  21  22
BRANCH  21  24
ATOM     24  C   UNL     1       6.111  -5.196  28.392  0.00  0.00    +0.175 C 
BRANCH  24  25
ATOM     25  O   UNL     1       5.063  -4.205  28.436  0.00  0.00    -0.387 OA
ATOM     26  H   UNL     1       4.211  -4.676  28.454  0.00  0.00    +0.210 HD
ENDBRANCH  24  25
BRANCH  24  27
ATOM     27  C   UNL     1       5.483  -6.527  28.884  0.00  0.00    +0.172 C 
BRANCH  27  28
ATOM     28  O   UNL     1       6.515  -7.494  29.094  0.00  0.00    -0.387 OA
ATOM     29  H   UNL     1       6.654  -7.588  30.053  0.00  0.00    +0.210 HD
ENDBRANCH  27  28
BRANCH  27  30
ATOM     30  C   UNL     1       4.364  -7.113  28.002  0.00  0.00    +0.206 C 
BRANCH  30  31
ATOM     31  O   UNL     1       3.107  -6.521  28.320  0.00  0.00    -0.284 OA
BRANCH  31  32
ATOM     32  P   UNL     1       2.052  -6.313  26.966  0.00  0.00    +0.472 P 
ATOM     33  O   UNL     1       1.106  -6.127  25.753  0.00  0.00    -0.228 OA
BRANCH  32  34
ATOM     34  O   UNL     1       2.694  -7.734  26.479  0.00  0.00    -0.303 OA
ATOM     35  H   UNL     1       2.434  -7.910  25.559  0.00  0.00    +0.222 HD
ENDBRANCH  32  34
BRANCH  32  36
ATOM     36  O   UNL     1       3.245  -5.353  26.392  0.00  0.00    -0.303 OA
ATOM     37  H   UNL     1       3.147  -5.178  25.436  0.00  0.00    +0.222 HD
ENDBRANCH  32  36
ENDBRANCH  31  32
ENDBRANCH  30  31
ENDBRANCH  27  30
ENDBRANCH  24  27
ENDBRANCH  21  24
ENDBRANCH  20  21
ENDBRANCH   7  20
TORSDOF 12
ENDMDL
MODEL 5
REMARK VINA RESULT:      -6.6      3.141      5.075
REMARK  Name = 
REMARK  14 active torsions:
REMARK  status: ('A' for Active; 'I' for Inactive)
REMARK    1  A    between atoms: C_1  and  C_2
REMARK    2  A    between atoms: C_7  and  C_8
REMARK    3  A    between atoms: N_9  and  C_10
REMARK    4  A    between atoms: C_10  and  C_11
REMARK    5  A    between atoms: C_11  and  O_13
REMARK    6  A    between atoms: C_11  and  C_14
REMARK    7  A    between atoms: C_14  and  O_16
REMARK    8  A    between atoms: C_14  and  C_17
REMARK    9  A    between atoms: C_17  and  O_19
REMARK   10  A    between atoms: C_17  and  C_20
REMARK   11  A    between atoms: C_20  and  O_21
REMARK   12  A    between atoms: O_21  and  P_22
REMARK   13  A    between atoms: P_22  and  O_23
REMARK   14  A    between atoms: P_22  and  O_24
REMARK                            x       y       z     vdW  Elec       q    Type
REMARK                         _______ _______ _______ _____ _____    ______ ____
ROOT
ATOM      1  C   UNL     1      11.846   5.313  23.777  0.00  0.00    +0.044 C 
ATOM      2  C   UNL     1      10.709   4.353  23.592  0.00  0.00    -0.045 A 
ATOM      3  C   UNL     1       9.388   4.789  23.554  0.00  0.00    -0.045 A 
ATOM      4  C   UNL     1       9.056   6.249  23.360  0.00  0.00    +0.044 C 
ATOM      5  C   UNL     1       8.344   3.834  23.573  0.00  0.00    +0.031 A 
ATOM      6  C   UNL     1       8.531   2.444  23.504  0.00  0.00    +0.069 A 
ATOM      7  N   UNL     1       7.523   1.456  23.472  0.00  0.00    -0.320 N 
ATOM      8  C   UNL     1       7.922   0.138  23.127  0.00  0.00    +0.170 A 
ATOM      9  C   UNL     1       9.385  -0.162  22.927  0.00  0.00    +0.171 A 
ATOM     10  N   UNL     1      10.298   0.739  23.107  0.00  0.00    -0.237 NA
ATOM     11  C   UNL     1       9.794  -1.550  22.518  0.00  0.00    +0.282 A 
ATOM     12  O   UNL     1      10.943  -1.851  22.235  0.00  0.00    -0.265 OA
ATOM     13  N   UNL     1       8.752  -2.420  22.462  0.00  0.00    -0.272 N 
ATOM     14  H   UNL     1       8.955  -3.376  22.186  0.00  0.00    +0.174 HD
ATOM     15  C   UNL     1       7.445  -2.117  22.658  0.00  0.00    +0.351 A 
ATOM     16  O   UNL     1       6.610  -3.015  22.538  0.00  0.00    -0.245 OA
ATOM     17  N   UNL     1       7.074  -0.831  22.985  0.00  0.00    -0.173 NA
ATOM     18  C   UNL     1       9.891   2.053  23.383  0.00  0.00    +0.089 A 
ATOM     19  C   UNL     1      10.943   2.984  23.479  0.00  0.00    +0.033 A 
ENDROOT
BRANCH   7  20
ATOM     20  C   UNL     1       6.056   1.569  23.798  0.00  0.00    +0.158 C 
BRANCH  20  21
ATOM     21  C   UNL     1       5.516   1.764  25.228  0.00  0.00    +0.165 C 
BRANCH  21  22
ATOM     22  O   UNL     1       4.191   2.297  25.295  0.00  0.00    -0.387 OA
ATOM     23  H   UNL     1       3.722   1.839  26.028  0.00  0.00    +0.210 HD
ENDBRANCH  21  22
BRANCH  21  24
ATOM     24  C   UNL     1       5.475   0.450  26.073  0.00  0.00    +0.175 C 
BRANCH  24  25
ATOM     25  O   UNL     1       5.224  -0.678  25.209  0.00  0.00    -0.387 OA
ATOM     26  H   UNL     1       5.976  -1.290  25.296  0.00  0.00    +0.210 HD
ENDBRANCH  24  25
BRANCH  24  27
ATOM     27  C   UNL     1       6.730   0.093  26.915  0.00  0.00    +0.172 C 
BRANCH  27  28
ATOM     28  O   UNL     1       7.660   1.178  26.869  0.00  0.00    -0.387 OA
ATOM     29  H   UNL     1       7.614   1.655  27.717  0.00  0.00    +0.210 HD
ENDBRANCH  27  28
BRANCH  27  30
ATOM     30  C   UNL     1       7.427  -1.233  26.558  0.00  0.00    +0.206 C 
BRANCH  30  31
ATOM     31  O   UNL     1       6.647  -2.346  26.988  0.00  0.00    -0.284 OA
BRANCH  31  32
ATOM     32  P   UNL     1       7.084  -3.851  26.256  0.00  0.00    +0.472 P 
ATOM     33  O   UNL     1       7.474  -5.199  25.601  0.00  0.00    -0.228 OA
BRANCH  32  34
ATOM     34  O   UNL     1       8.105  -2.922  25.384  0.00  0.00    -0.303 OA
ATOM     35  H   UNL     1       7.958  -3.079  24.437  0.00  0.00    +0.222 HD
ENDBRANCH  32  34
BRANCH  32  36
ATOM     36  O   UNL     1       5.756  -3.599  25.335  0.00  0.00    -0.303 OA
ATOM     37  H   UNL     1       5.873  -3.933  24.424  0.00  0.00    +0.222 HD
ENDBRANCH  32  36
ENDBRANCH  31  32
ENDBRANCH  30  31
ENDBRANCH  27  30
ENDBRANCH  24  27
ENDBRANCH  21  24
ENDBRANCH  20  21
ENDBRANCH   7  20
TORSDOF 12
ENDMDL
MODEL 6
REMARK VINA RESULT:      -6.3      4.604      7.827
REMARK  Name = 
REMARK  14 active torsions:
REMARK  status: ('A' for Active; 'I' for Inactive)
REMARK    1  A    between atoms: C_1  and  C_2
REMARK    2  A    between atoms: C_7  and  C_8
REMARK    3  A    between atoms: N_9  and  C_10
REMARK    4  A    between atoms: C_10  and  C_11
REMARK    5  A    between atoms: C_11  and  O_13
REMARK    6  A    between atoms: C_11  and  C_14
REMARK    7  A    between atoms: C_14  and  O_16
REMARK    8  A    between atoms: C_14  and  C_17
REMARK    9  A    between atoms: C_17  and  O_19
REMARK   10  A    between atoms: C_17  and  C_20
REMARK   11  A    between atoms: C_20  and  O_21
REMARK   12  A    between atoms: O_21  and  P_22
REMARK   13  A    between atoms: P_22  and  O_23
REMARK   14  A    between atoms: P_22  and  O_24
REMARK                            x       y       z     vdW  Elec       q    Type
REMARK                         _______ _______ _______ _____ _____    ______ ____
ROOT
ATOM      1  C   UNL     1       5.148  -6.452  23.741  0.00  0.00    +0.044 C 
ATOM      2  C   UNL     1       5.533  -5.023  23.497  0.00  0.00    -0.045 A 
ATOM      3  C   UNL     1       6.161  -4.630  22.319  0.00  0.00    -0.045 A 
ATOM      4  C   UNL     1       6.184  -5.535  21.110  0.00  0.00    +0.044 C 
ATOM      5  C   UNL     1       6.677  -3.316  22.216  0.00  0.00    +0.031 A 
ATOM      6  C   UNL     1       6.498  -2.310  23.179  0.00  0.00    +0.069 A 
ATOM      7  N   UNL     1       6.951  -0.975  23.101  0.00  0.00    -0.320 N 
ATOM      8  C   UNL     1       6.429  -0.060  24.052  0.00  0.00    +0.170 A 
ATOM      9  C   UNL     1       5.526  -0.567  25.147  0.00  0.00    +0.171 A 
ATOM     10  N   UNL     1       5.248  -1.825  25.274  0.00  0.00    -0.237 NA
ATOM     11  C   UNL     1       4.943   0.417  26.123  0.00  0.00    +0.282 A 
ATOM     12  O   UNL     1       4.123   0.107  26.973  0.00  0.00    -0.265 OA
ATOM     13  N   UNL     1       5.394   1.685  25.938  0.00  0.00    -0.272 N 
ATOM     14  H   UNL     1       5.035   2.403  26.561  0.00  0.00    +0.174 HD
ATOM     15  C   UNL     1       6.217   2.106  24.946  0.00  0.00    +0.351 A 
ATOM     16  O   UNL     1       6.508   3.301  24.893  0.00  0.00    -0.245 OA
ATOM     17  N   UNL     1       6.707   1.205  24.026  0.00  0.00    -0.173 NA
ATOM     18  C   UNL     1       5.713  -2.712  24.292  0.00  0.00    +0.089 A 
ATOM     19  C   UNL     1       5.294  -4.046  24.462  0.00  0.00    +0.033 A 
ENDROOT
BRANCH   7  20
ATOM     20  C   UNL     1       7.962  -0.356  22.169  0.00  0.00    +0.158 C 
BRANCH  20  21
ATOM     21  C   UNL     1       9.481  -0.384  22.426  0.00  0.00    +0.165 C 
BRANCH  21  22
ATOM     22  O   UNL     1      10.211  -1.270  21.573  0.00  0.00    -0.387 OA
ATOM     23  H   UNL     1       9.673  -1.413  20.761  0.00  0.00    +0.210 HD
ENDBRANCH  21  22
BRANCH  21  24
ATOM     24  C   UNL     1      10.175   1.007  22.266  0.00  0.00    +0.175 C 
BRANCH  24  25
ATOM     25  O   UNL     1       9.329   1.888  21.498  0.00  0.00    -0.387 OA
ATOM     26  H   UNL     1       9.864   2.251  20.770  0.00  0.00    +0.210 HD
ENDBRANCH  24  25
BRANCH  24  27
ATOM     27  C   UNL     1      10.559   1.776  23.559  0.00  0.00    +0.172 C 
BRANCH  27  28
ATOM     28  O   UNL     1       9.667   1.409  24.615  0.00  0.00    -0.387 OA
ATOM     29  H   UNL     1      10.198   1.064  25.355  0.00  0.00    +0.210 HD
ENDBRANCH  27  28
BRANCH  27  30
ATOM     30  C   UNL     1      10.645   3.309  23.432  0.00  0.00    +0.206 C 
BRANCH  30  31
ATOM     31  O   UNL     1       9.765   3.942  24.357  0.00  0.00    -0.284 OA
BRANCH  31  32
ATOM     32  P   UNL     1       9.107   5.443  23.805  0.00  0.00    +0.472 P 
ATOM     33  O   UNL     1       8.518   6.788  23.311  0.00  0.00    -0.228 OA
BRANCH  32  34
ATOM     34  O   UNL     1       8.390   4.505  22.677  0.00  0.00    -0.303 OA
ATOM     35  H   UNL     1       7.516   4.224  22.996  0.00  0.00    +0.222 HD
ENDBRANCH  32  34
BRANCH  32  36
ATOM     36  O   UNL     1      10.544   5.603  23.041  0.00  0.00    -0.303 OA
ATOM     37  H   UNL     1      11.042   4.763  23.017  0.00  0.00    +0.222 HD
ENDBRANCH  32  36
ENDBRANCH  31  32
ENDBRANCH  30  31
ENDBRANCH  27  30
ENDBRANCH  24  27
ENDBRANCH  21  24
ENDBRANCH  20  21
ENDBRANCH   7  20
TORSDOF 12
ENDMDL
MODEL 7
REMARK VINA RESULT:      -6.3      2.422      4.825
REMARK  Name = 
REMARK  14 active torsions:
REMARK  status: ('A' for Active; 'I' for Inactive)
REMARK    1  A    between atoms: C_1  and  C_2
REMARK    2  A    between atoms: C_7  and  C_8
REMARK    3  A    between atoms: N_9  and  C_10
REMARK    4  A    between atoms: C_10  and  C_11
REMARK    5  A    between atoms: C_11  and  O_13
REMARK    6  A    between atoms: C_11  and  C_14
REMARK    7  A    between atoms: C_14  and  O_16
REMARK    8  A    between atoms: C_14  and  C_17
REMARK    9  A    between atoms: C_17  and  O_19
REMARK   10  A    between atoms: C_17  and  C_20
REMARK   11  A    between atoms: C_20  and  O_21
REMARK   12  A    between atoms: O_21  and  P_22
REMARK   13  A    between atoms: P_22  and  O_23
REMARK   14  A    between atoms: P_22  and  O_24
REMARK                            x       y       z     vdW  Elec       q    Type
REMARK                         _______ _______ _______ _____ _____    ______ ____
ROOT
ATOM      1  C   UNL     1       7.708   2.605  22.301  0.00  0.00    +0.044 C 
ATOM      2  C   UNL     1       7.705   1.419  23.219  0.00  0.00    -0.045 A 
ATOM      3  C   UNL     1       8.878   0.743  23.539  0.00  0.00    -0.045 A 
ATOM      4  C   UNL     1      10.230   1.355  23.256  0.00  0.00    +0.044 C 
ATOM      5  C   UNL     1       8.801  -0.479  24.249  0.00  0.00    +0.031 A 
ATOM      6  C   UNL     1       7.620  -1.021  24.779  0.00  0.00    +0.069 A 
ATOM      7  N   UNL     1       7.499  -2.209  25.533  0.00  0.00    -0.320 N 
ATOM      8  C   UNL     1       6.265  -2.428  26.199  0.00  0.00    +0.170 A 
ATOM      9  C   UNL     1       5.128  -1.462  25.983  0.00  0.00    +0.171 A 
ATOM     10  N   UNL     1       5.228  -0.461  25.168  0.00  0.00    -0.237 NA
ATOM     11  C   UNL     1       3.840  -1.678  26.727  0.00  0.00    +0.282 A 
ATOM     12  O   UNL     1       2.908  -0.890  26.690  0.00  0.00    -0.265 OA
ATOM     13  N   UNL     1       3.834  -2.817  27.468  0.00  0.00    -0.272 N 
ATOM     14  H   UNL     1       2.995  -3.022  28.003  0.00  0.00    +0.174 HD
ATOM     15  C   UNL     1       4.875  -3.670  27.633  0.00  0.00    +0.351 A 
ATOM     16  O   UNL     1       4.723  -4.646  28.368  0.00  0.00    -0.245 OA
ATOM     17  N   UNL     1       6.068  -3.438  26.985  0.00  0.00    -0.173 NA
ATOM     18  C   UNL     1       6.471  -0.215  24.566  0.00  0.00    +0.089 A 
ATOM     19  C   UNL     1       6.513   0.942  23.763  0.00  0.00    +0.033 A 
ENDROOT
BRANCH   7  20
ATOM     20  C   UNL     1       8.484  -3.336  25.714  0.00  0.00    +0.158 C 
BRANCH  20  21
ATOM     21  C   UNL     1       9.016  -4.194  24.551  0.00  0.00    +0.165 C 
BRANCH  21  22
ATOM     22  O   UNL     1      10.233  -4.889  24.834  0.00  0.00    -0.387 OA
ATOM     23  H   UNL     1      10.204  -5.167  25.778  0.00  0.00    +0.210 HD
ENDBRANCH  21  22
BRANCH  21  24
ATOM     24  C   UNL     1       8.016  -5.293  24.066  0.00  0.00    +0.175 C 
BRANCH  24  25
ATOM     25  O   UNL     1       6.998  -5.502  25.068  0.00  0.00    -0.387 OA
ATOM     26  H   UNL     1       6.733  -4.629  25.406  0.00  0.00    +0.210 HD
ENDBRANCH  24  25
BRANCH  24  27
ATOM     27  C   UNL     1       7.274  -5.053  22.724  0.00  0.00    +0.172 C 
BRANCH  27  28
ATOM     28  O   UNL     1       6.785  -3.710  22.682  0.00  0.00    -0.387 OA
ATOM     29  H   UNL     1       6.821  -3.402  21.758  0.00  0.00    +0.210 HD
ENDBRANCH  27  28
BRANCH  27  30
ATOM     30  C   UNL     1       6.148  -6.050  22.387  0.00  0.00    +0.206 C 
BRANCH  30  31
ATOM     31  O   UNL     1       4.898  -5.377  22.267  0.00  0.00    -0.284 OA
BRANCH  31  32
ATOM     32  P   UNL     1       3.692  -5.902  23.390  0.00  0.00    +0.472 P 
ATOM     33  O   UNL     1       2.613  -6.374  24.396  0.00  0.00    -0.228 OA
BRANCH  32  34
ATOM     34  O   UNL     1       4.390  -4.801  24.375  0.00  0.00    -0.303 OA
ATOM     35  H   UNL     1       5.238  -4.518  23.995  0.00  0.00    +0.222 HD
ENDBRANCH  32  34
BRANCH  32  36
ATOM     36  O   UNL     1       4.739  -7.123  23.690  0.00  0.00    -0.303 OA
ATOM     37  H   UNL     1       4.306  -7.997  23.643  0.00  0.00    +0.222 HD
ENDBRANCH  32  36
ENDBRANCH  31  32
ENDBRANCH  30  31
ENDBRANCH  27  30
ENDBRANCH  24  27
ENDBRANCH  21  24
ENDBRANCH  20  21
ENDBRANCH   7  20
TORSDOF 12
ENDMDL
MODEL 8
REMARK VINA RESULT:      -6.2      1.927      4.515
REMARK  Name = 
REMARK  14 active torsions:
REMARK  status: ('A' for Active; 'I' for Inactive)
REMARK    1  A    between atoms: C_1  and  C_2
REMARK    2  A    between atoms: C_7  and  C_8
REMARK    3  A    between atoms: N_9  and  C_10
REMARK    4  A    between atoms: C_10  and  C_11
REMARK    5  A    between atoms: C_11  and  O_13
REMARK    6  A    between atoms: C_11  and  C_14
REMARK    7  A    between atoms: C_14  and  O_16
REMARK    8  A    between atoms: C_14  and  C_17
REMARK    9  A    between atoms: C_17  and  O_19
REMARK   10  A    between atoms: C_17  and  C_20
REMARK   11  A    between atoms: C_20  and  O_21
REMARK   12  A    between atoms: O_21  and  P_22
REMARK   13  A    between atoms: P_22  and  O_23
REMARK   14  A    between atoms: P_22  and  O_24
REMARK                            x       y       z     vdW  Elec       q    Type
REMARK                         _______ _______ _______ _____ _____    ______ ____
ROOT
ATOM      1  C   UNL     1       3.066  -0.626  28.169  0.00  0.00    +0.044 C 
ATOM      2  C   UNL     1       3.923  -1.122  27.043  0.00  0.00    -0.045 A 
ATOM      3  C   UNL     1       5.087  -0.458  26.668  0.00  0.00    -0.045 A 
ATOM      4  C   UNL     1       5.716   0.578  27.569  0.00  0.00    +0.044 C 
ATOM      5  C   UNL     1       5.755  -0.848  25.483  0.00  0.00    +0.031 A 
ATOM      6  C   UNL     1       5.402  -1.956  24.695  0.00  0.00    +0.069 A 
ATOM      7  N   UNL     1       6.064  -2.413  23.534  0.00  0.00    -0.320 N 
ATOM      8  C   UNL     1       5.708  -3.700  23.054  0.00  0.00    +0.170 A 
ATOM      9  C   UNL     1       4.587  -4.454  23.721  0.00  0.00    +0.171 A 
ATOM     10  N   UNL     1       3.904  -3.941  24.694  0.00  0.00    -0.237 NA
ATOM     11  C   UNL     1       4.248  -5.835  23.233  0.00  0.00    +0.282 A 
ATOM     12  O   UNL     1       3.427  -6.553  23.781  0.00  0.00    -0.265 OA
ATOM     13  N   UNL     1       4.971  -6.211  22.147  0.00  0.00    -0.272 N 
ATOM     14  H   UNL     1       4.797  -7.137  21.767  0.00  0.00    +0.174 HD
ATOM     15  C   UNL     1       5.969  -5.501  21.564  0.00  0.00    +0.351 A 
ATOM     16  O   UNL     1       6.556  -5.996  20.601  0.00  0.00    -0.245 OA
ATOM     17  N   UNL     1       6.306  -4.257  22.048  0.00  0.00    -0.173 NA
ATOM     18  C   UNL     1       4.304  -2.698  25.206  0.00  0.00    +0.089 A 
ATOM     19  C   UNL     1       3.561  -2.255  26.317  0.00  0.00    +0.033 A 
ENDROOT
BRANCH   7  20
ATOM     20  C   UNL     1       7.085  -1.715  22.674  0.00  0.00    +0.158 C 
BRANCH  20  21
ATOM     21  C   UNL     1       8.514  -2.247  22.450  0.00  0.00    +0.165 C 
BRANCH  21  22
ATOM     22  O   UNL     1       9.279  -1.511  21.493  0.00  0.00    -0.387 OA
ATOM     23  H   UNL     1      10.084  -2.038  21.285  0.00  0.00    +0.210 HD
ENDBRANCH  21  22
BRANCH  21  24
ATOM     24  C   UNL     1       9.389  -2.274  23.745  0.00  0.00    +0.175 C 
BRANCH  24  25
ATOM     25  O   UNL     1       9.018  -1.177  24.606  0.00  0.00    -0.387 OA
ATOM     26  H   UNL     1       9.207  -0.350  24.129  0.00  0.00    +0.210 HD
ENDBRANCH  24  25
BRANCH  24  27
ATOM     27  C   UNL     1       9.348  -3.557  24.618  0.00  0.00    +0.172 C 
BRANCH  27  28
ATOM     28  O   UNL     1       8.839  -4.646  23.844  0.00  0.00    -0.387 OA
ATOM     29  H   UNL     1       8.463  -4.285  23.021  0.00  0.00    +0.210 HD
ENDBRANCH  27  28
BRANCH  27  30
ATOM     30  C   UNL     1       8.588  -3.441  25.954  0.00  0.00    +0.206 C 
BRANCH  30  31
ATOM     31  O   UNL     1       7.382  -4.199  25.915  0.00  0.00    -0.284 OA
BRANCH  31  32
ATOM     32  P   UNL     1       7.172  -5.276  27.252  0.00  0.00    +0.472 P 
ATOM     33  O   UNL     1       6.983  -6.240  28.450  0.00  0.00    -0.228 OA
BRANCH  32  34
ATOM     34  O   UNL     1       8.493  -6.010  26.634  0.00  0.00    -0.303 OA
ATOM     35  H   UNL     1       8.551  -5.825  25.682  0.00  0.00    +0.222 HD
ENDBRANCH  32  34
BRANCH  32  36
ATOM     36  O   UNL     1       6.073  -6.002  26.282  0.00  0.00    -0.303 OA
ATOM     37  H   UNL     1       6.333  -5.964  25.341  0.00  0.00    +0.222 HD
ENDBRANCH  32  36
ENDBRANCH  31  32
ENDBRANCH  30  31
ENDBRANCH  27  30
ENDBRANCH  24  27
ENDBRANCH  21  24
ENDBRANCH  20  21
ENDBRANCH   7  20
TORSDOF 12
ENDMDL
MODEL 9
REMARK VINA RESULT:      -6.2      4.884      7.518
REMARK  Name = 
REMARK  14 active torsions:
REMARK  status: ('A' for Active; 'I' for Inactive)
REMARK    1  A    between atoms: C_1  and  C_2
REMARK    2  A    between atoms: C_7  and  C_8
REMARK    3  A    between atoms: N_9  and  C_10
REMARK    4  A    between atoms: C_10  and  C_11
REMARK    5  A    between atoms: C_11  and  O_13
REMARK    6  A    between atoms: C_11  and  C_14
REMARK    7  A    between atoms: C_14  and  O_16
REMARK    8  A    between atoms: C_14  and  C_17
REMARK    9  A    between atoms: C_17  and  O_19
REMARK   10  A    between atoms: C_17  and  C_20
REMARK   11  A    between atoms: C_20  and  O_21
REMARK   12  A    between atoms: O_21  and  P_22
REMARK   13  A    between atoms: P_22  and  O_23
REMARK   14  A    between atoms: P_22  and  O_24
REMARK                            x       y       z     vdW  Elec       q    Type
REMARK                         _______ _______ _______ _____ _____    ______ ____
ROOT
ATOM      1  C   UNL     1       5.150  -6.269  23.704  0.00  0.00    +0.044 C 
ATOM      2  C   UNL     1       5.636  -4.905  24.096  0.00  0.00    -0.045 A 
ATOM      3  C   UNL     1       5.004  -4.167  25.092  0.00  0.00    -0.045 A 
ATOM      4  C   UNL     1       4.030  -4.819  26.044  0.00  0.00    +0.044 C 
ATOM      5  C   UNL     1       5.374  -2.815  25.291  0.00  0.00    +0.031 A 
ATOM      6  C   UNL     1       6.436  -2.173  24.634  0.00  0.00    +0.069 A 
ATOM      7  N   UNL     1       6.873  -0.845  24.832  0.00  0.00    -0.320 N 
ATOM      8  C   UNL     1       8.125  -0.487  24.269  0.00  0.00    +0.170 A 
ATOM      9  C   UNL     1       8.860  -1.483  23.409  0.00  0.00    +0.171 A 
ATOM     10  N   UNL     1       8.359  -2.644  23.128  0.00  0.00    -0.237 NA
ATOM     11  C   UNL     1      10.207  -1.111  22.853  0.00  0.00    +0.282 A 
ATOM     12  O   UNL     1      10.913  -1.892  22.235  0.00  0.00    -0.265 OA
ATOM     13  N   UNL     1      10.568   0.167  23.139  0.00  0.00    -0.272 N 
ATOM     14  H   UNL     1      11.472   0.484  22.798  0.00  0.00    +0.174 HD
ATOM     15  C   UNL     1       9.876   1.042  23.910  0.00  0.00    +0.351 A 
ATOM     16  O   UNL     1      10.356   2.160  24.105  0.00  0.00    -0.245 OA
ATOM     17  N   UNL     1       8.666   0.675  24.456  0.00  0.00    -0.173 NA
ATOM     18  C   UNL     1       7.153  -3.014  23.743  0.00  0.00    +0.089 A 
ATOM     19  C   UNL     1       6.724  -4.323  23.449  0.00  0.00    +0.033 A 
ENDROOT
BRANCH   7  20
ATOM     20  C   UNL     1       6.183   0.299  25.530  0.00  0.00    +0.158 C 
BRANCH  20  21
ATOM     21  C   UNL     1       5.117   1.185  24.857  0.00  0.00    +0.165 C 
BRANCH  21  22
ATOM     22  O   UNL     1       4.031   1.558  25.709  0.00  0.00    -0.387 OA
ATOM     23  H   UNL     1       3.286   1.846  25.134  0.00  0.00    +0.210 HD
ENDBRANCH  21  22
BRANCH  21  24
ATOM     24  C   UNL     1       5.678   2.529  24.290  0.00  0.00    +0.175 C 
BRANCH  24  25
ATOM     25  O   UNL     1       6.940   2.835  24.919  0.00  0.00    -0.387 OA
ATOM     26  H   UNL     1       7.041   2.240  25.683  0.00  0.00    +0.210 HD
ENDBRANCH  24  25
BRANCH  24  27
ATOM     27  C   UNL     1       5.911   2.626  22.758  0.00  0.00    +0.172 C 
BRANCH  27  28
ATOM     28  O   UNL     1       6.287   1.344  22.250  0.00  0.00    -0.387 OA
ATOM     29  H   UNL     1       6.820   0.892  22.929  0.00  0.00    +0.210 HD
ENDBRANCH  27  28
BRANCH  27  30
ATOM     30  C   UNL     1       6.907   3.706  22.294  0.00  0.00    +0.206 C 
BRANCH  30  31
ATOM     31  O   UNL     1       6.718   4.915  23.024  0.00  0.00    -0.284 OA
BRANCH  31  32
ATOM     32  P   UNL     1       8.146   5.874  23.201  0.00  0.00    +0.472 P 
ATOM     33  O   UNL     1       9.425   6.733  23.360  0.00  0.00    -0.228 OA
BRANCH  32  34
ATOM     34  O   UNL     1       7.942   6.144  21.603  0.00  0.00    -0.303 OA
ATOM     35  H   UNL     1       8.811   6.242  21.177  0.00  0.00    +0.222 HD
ENDBRANCH  32  34
BRANCH  32  36
ATOM     36  O   UNL     1       8.926   4.443  23.059  0.00  0.00    -0.303 OA
ATOM     37  H   UNL     1       8.473   3.839  22.439  0.00  0.00    +0.222 HD
ENDBRANCH  32  36
ENDBRANCH  31  32
ENDBRANCH  30  31
ENDBRANCH  27  30
ENDBRANCH  24  27
ENDBRANCH  21  24
ENDBRANCH  20  21
ENDBRANCH   7  20
TORSDOF 12
ENDMDL
