MODEL 1
REMARK VINA RESULT:      -8.2      0.000      0.000
REMARK  Name = 
REMARK  11 active torsions:
REMARK  status: ('A' for Active; 'I' for Inactive)
REMARK    1  A    between atoms: C_7  and  C_9
REMARK    2  A    between atoms: C_9  and  N_10
REMARK    3  A    between atoms: N_10  and  C_11
REMARK    4  A    between atoms: C_14  and  C_17
REMARK    5  A    between atoms: N_19  and  CA_20
REMARK    6  A    between atoms: CA_20  and  CB_22
REMARK    7  A    between atoms: CA_20  and  C_27
REMARK    8  A    between atoms: CB_22  and  CG_23
REMARK    9  A    between atoms: CG_23  and  CD_24
REMARK   10  A    between atoms: CD_24  and  OE1_25
REMARK   11  A    between atoms: C_27  and  O_28
REMARK                            x       y       z     vdW  Elec       q    Type
REMARK                         _______ _______ _______ _____ _____    ______ ____
ROOT
ATOM      1  C   UNK A   0       9.902  -1.318  23.527  0.00  0.00    +0.027 A 
ATOM      2  C   UNK A   0       9.901  -0.470  24.642  0.00  0.00    +0.023 A 
ATOM      3  C   UNK A   0       9.806   0.922  24.515  0.00  0.00    +0.015 A 
ATOM      4  C   UNK A   0       9.672   1.500  23.250  0.00  0.00    +0.037 A 
ATOM      5  C   UNK A   0       9.724   0.664  22.124  0.00  0.00    +0.015 A 
ATOM      6  C   UNK A   0       9.833  -0.731  22.264  0.00  0.00    +0.023 A 
ENDROOT
BRANCH   4   7
ATOM      7  C   UNK A   0       9.313   2.944  23.058  0.00  0.00    +0.245 C 
ATOM      8  N   GLU A   1      10.151   3.892  23.619  0.00  0.00    -0.298 N 
ATOM      9  H   GLU A   1      11.126   3.659  23.774  0.00  0.00    +0.150 HD
ATOM     10  O   UNK A   0       8.280   3.256  22.474  0.00  0.00    -0.270 OA
BRANCH   8  11
ATOM     11  CA  GLU A   1       9.790   5.323  23.710  0.00  0.00    +0.182 C 
BRANCH  11  12
ATOM     12  C   GLU A   1       9.010   5.538  25.022  0.00  0.00    +0.325 C 
ATOM     13  OXT GLU A   1       9.474   5.993  26.056  0.00  0.00    -0.249 OA
BRANCH  12  14
ATOM     14  O   GLU A   1       7.689   5.243  24.894  0.00  0.00    -0.479 OA
ATOM     15  H   GLU A   1       7.357   5.573  24.034  0.00  0.00    +0.295 HD
ENDBRANCH  12  14
ENDBRANCH  11  12
BRANCH  11  16
ATOM     16  CB  GLU A   1      11.000   6.259  23.637  0.00  0.00    +0.045 C 
BRANCH  16  17
ATOM     17  CG  GLU A   1      12.305   5.550  23.991  0.00  0.00    +0.123 C 
BRANCH  17  18
ATOM     18  CD  GLU A   1      13.236   5.418  22.812  0.00  0.00    +0.305 C 
ATOM     19  OE2 GLU A   1      12.946   5.644  21.650  0.00  0.00    -0.251 OA
BRANCH  18  20
ATOM     20  OE1 GLU A   1      14.476   5.034  23.197  0.00  0.00    -0.481 OA
ATOM     21  HE1 GLU A   1      14.943   4.499  22.527  0.00  0.00    +0.295 HD
ENDBRANCH  18  20
ENDBRANCH  17  18
ENDBRANCH  16  17
ENDBRANCH  11  16
ENDBRANCH   8  11
ENDBRANCH   4   7
BRANCH   1  22
ATOM     22  N   UNK A   0       9.829  -2.692  23.772  0.00  0.00    -0.342 N 
ATOM     23  H   UNK A   0      10.091  -2.872  24.743  0.00  0.00    +0.146 HD
BRANCH  22  24
ATOM     24  C   UNK A   0       8.615  -3.451  23.431  0.00  0.00    +0.125 C 
BRANCH  24  36
ATOM     25  N   UNK A   0       4.898  -7.420  29.005  0.00  0.00    -0.329 N 
ATOM     26  H   UNK A   0       4.348  -8.258  28.877  0.00  0.00    +0.145 HD
ATOM     27  H   UNK A   0       5.564  -7.489  29.768  0.00  0.00    +0.145 HD
ATOM     28  C   UNK A   0       5.442  -6.856  27.897  0.00  0.00    +0.195 A 
ATOM     29  N   UNK A   0       4.726  -6.947  26.751  0.00  0.00    -0.294 N 
ATOM     30  H   UNK A   0       3.811  -7.367  26.748  0.00  0.00    +0.172 HD
ATOM     31  C   UNK A   0       5.135  -6.371  25.587  0.00  0.00    +0.276 A 
ATOM     32  O   UNK A   0       4.449  -6.388  24.567  0.00  0.00    -0.266 OA
ATOM     33  C   UNK A   0       6.458  -5.681  25.637  0.00  0.00    +0.133 A 
ATOM     34  N   UNK A   0       6.945  -5.028  24.482  0.00  0.00    -0.331 N 
ATOM     35  H   UNK A   0       6.166  -4.758  23.881  0.00  0.00    +0.147 HD
ATOM     36  C   UNK A   0       7.955  -3.964  24.728  0.00  0.00    +0.105 C 
ATOM     37  C   UNK A   0       9.002  -4.521  25.733  0.00  0.00    +0.126 C 
ATOM     38  N   UNK A   0       8.303  -4.975  26.939  0.00  0.00    -0.326 N 
ATOM     39  H   UNK A   0       8.854  -5.299  27.726  0.00  0.00    +0.148 HD
ATOM     40  C   UNK A   0       7.094  -5.668  26.840  0.00  0.00    +0.149 A 
ATOM     41  N   UNK A   0       6.595  -6.269  27.963  0.00  0.00    -0.199 NA
ENDBRANCH  24  36
ENDBRANCH  22  24
ENDBRANCH   1  22
TORSDOF 11
ENDMDL
MODEL 2
REMARK VINA RESULT:      -8.1      1.393      1.860
REMARK  Name = 
REMARK  11 active torsions:
REMARK  status: ('A' for Active; 'I' for Inactive)
REMARK    1  A    between atoms: C_7  and  C_9
REMARK    2  A    between atoms: C_9  and  N_10
REMARK    3  A    between atoms: N_10  and  C_11
REMARK    4  A    between atoms: C_14  and  C_17
REMARK    5  A    between atoms: N_19  and  CA_20
REMARK    6  A    between atoms: CA_20  and  CB_22
REMARK    7  A    between atoms: CA_20  and  C_27
REMARK    8  A    between atoms: CB_22  and  CG_23
REMARK    9  A    between atoms: CG_23  and  CD_24
REMARK   10  A    between atoms: CD_24  and  OE1_25
REMARK   11  A    between atoms: C_27  and  O_28
REMARK                            x       y       z     vdW  Elec       q    Type
REMARK                         _______ _______ _______ _____ _____    ______ ____
ROOT
ATOM      1  C   UNK A   0       8.889  -1.369  22.694  0.00  0.00    +0.027 A 
ATOM      2  C   UNK A   0       8.681  -0.668  23.888  0.00  0.00    +0.023 A 
ATOM      3  C   UNK A   0       8.739   0.731  23.946  0.00  0.00    +0.015 A 
ATOM      4  C   UNK A   0       8.975   1.469  22.784  0.00  0.00    +0.037 A 
ATOM      5  C   UNK A   0       9.236   0.775  21.592  0.00  0.00    +0.015 A 
ATOM      6  C   UNK A   0       9.188  -0.630  21.549  0.00  0.00    +0.023 A 
ENDROOT
BRANCH   4   7
ATOM      7  C   UNK A   0       8.798   2.958  22.726  0.00  0.00    +0.245 C 
ATOM      8  N   GLU A   1       9.738   3.739  23.375  0.00  0.00    -0.298 N 
ATOM      9  H   GLU A   1      10.674   3.375  23.511  0.00  0.00    +0.150 HD
ATOM     10  O   UNK A   0       7.820   3.447  22.169  0.00  0.00    -0.270 OA
BRANCH   8  11
ATOM     11  CA  GLU A   1       9.553   5.190  23.597  0.00  0.00    +0.182 C 
BRANCH  11  12
ATOM     12  C   GLU A   1       8.740   5.377  24.893  0.00  0.00    +0.325 C 
ATOM     13  OXT GLU A   1       9.208   5.625  25.994  0.00  0.00    -0.249 OA
BRANCH  12  14
ATOM     14  O   GLU A   1       7.399   5.322  24.676  0.00  0.00    -0.479 OA
ATOM     15  H   GLU A   1       7.223   5.044  23.754  0.00  0.00    +0.295 HD
ENDBRANCH  12  14
ENDBRANCH  11  12
BRANCH  11  16
ATOM     16  CB  GLU A   1      10.873   5.964  23.666  0.00  0.00    +0.045 C 
BRANCH  16  17
ATOM     17  CG  GLU A   1      12.082   5.042  23.794  0.00  0.00    +0.123 C 
BRANCH  17  18
ATOM     18  CD  GLU A   1      13.140   5.319  22.756  0.00  0.00    +0.305 C 
ATOM     19  OE2 GLU A   1      12.936   5.739  21.630  0.00  0.00    -0.251 OA
BRANCH  18  20
ATOM     20  OE1 GLU A   1      14.383   5.070  23.231  0.00  0.00    -0.481 OA
ATOM     21  HE1 GLU A   1      14.728   5.777  23.809  0.00  0.00    +0.295 HD
ENDBRANCH  18  20
ENDBRANCH  17  18
ENDBRANCH  16  17
ENDBRANCH  11  16
ENDBRANCH   8  11
ENDBRANCH   4   7
BRANCH   1  22
ATOM     22  N   UNK A   0       8.641  -2.745  22.711  0.00  0.00    -0.342 N 
ATOM     23  H   UNK A   0       8.840  -3.108  23.646  0.00  0.00    +0.146 HD
BRANCH  22  24
ATOM     24  C   UNK A   0       7.360  -3.282  22.227  0.00  0.00    +0.125 C 
BRANCH  24  36
ATOM     25  N   UNK A   0       5.182  -7.448  28.434  0.00  0.00    -0.329 N 
ATOM     26  H   UNK A   0       5.376  -7.228  29.401  0.00  0.00    +0.145 HD
ATOM     27  H   UNK A   0       4.210  -7.688  28.263  0.00  0.00    +0.145 HD
ATOM     28  C   UNK A   0       5.679  -6.608  27.490  0.00  0.00    +0.195 A 
ATOM     29  N   UNK A   0       6.874  -6.029  27.757  0.00  0.00    -0.294 N 
ATOM     30  H   UNK A   0       7.383  -6.262  28.594  0.00  0.00    +0.172 HD
ATOM     31  C   UNK A   0       7.504  -5.215  26.867  0.00  0.00    +0.276 A 
ATOM     32  O   UNK A   0       8.623  -4.751  27.077  0.00  0.00    -0.266 OA
ATOM     33  C   UNK A   0       6.766  -4.950  25.596  0.00  0.00    +0.133 A 
ATOM     34  N   UNK A   0       7.362  -4.142  24.602  0.00  0.00    -0.331 N 
ATOM     35  H   UNK A   0       8.377  -4.170  24.694  0.00  0.00    +0.147 HD
ATOM     36  C   UNK A   0       6.844  -4.342  23.222  0.00  0.00    +0.105 C 
ATOM     37  C   UNK A   0       5.291  -4.367  23.292  0.00  0.00    +0.126 C 
ATOM     38  N   UNK A   0       4.878  -5.403  24.243  0.00  0.00    -0.326 N 
ATOM     39  H   UNK A   0       3.889  -5.598  24.349  0.00  0.00    +0.148 HD
ATOM     40  C   UNK A   0       5.566  -5.576  25.447  0.00  0.00    +0.149 A 
ATOM     41  N   UNK A   0       5.016  -6.389  26.400  0.00  0.00    -0.199 NA
ENDBRANCH  24  36
ENDBRANCH  22  24
ENDBRANCH   1  22
TORSDOF 11
ENDMDL
MODEL 3
REMARK VINA RESULT:      -8.1      1.476      1.980
REMARK  Name = 
REMARK  11 active torsions:
REMARK  status: ('A' for Active; 'I' for Inactive)
REMARK    1  A    between atoms: C_7  and  C_9
REMARK    2  A    between atoms: C_9  and  N_10
REMARK    3  A    between atoms: N_10  and  C_11
REMARK    4  A    between atoms: C_14  and  C_17
REMARK    5  A    between atoms: N_19  and  CA_20
REMARK    6  A    between atoms: CA_20  and  CB_22
REMARK    7  A    between atoms: CA_20  and  C_27
REMARK    8  A    between atoms: CB_22  and  CG_23
REMARK    9  A    between atoms: CG_23  and  CD_24
REMARK   10  A    between atoms: CD_24  and  OE1_25
REMARK   11  A    between atoms: C_27  and  O_28
REMARK                            x       y       z     vdW  Elec       q    Type
REMARK                         _______ _______ _______ _____ _____    ______ ____
ROOT
ATOM      1  C   UNK A   0       9.686  -1.508  23.393  0.00  0.00    +0.027 A 
ATOM      2  C   UNK A   0       9.997  -0.620  24.429  0.00  0.00    +0.023 A 
ATOM      3  C   UNK A   0       9.932   0.769  24.260  0.00  0.00    +0.015 A 
ATOM      4  C   UNK A   0       9.513   1.305  23.039  0.00  0.00    +0.037 A 
ATOM      5  C   UNK A   0       9.250   0.425  21.978  0.00  0.00    +0.015 A 
ATOM      6  C   UNK A   0       9.331  -0.968  22.157  0.00  0.00    +0.023 A 
ENDROOT
BRANCH   4   7
ATOM      7  C   UNK A   0       9.179   2.758  22.870  0.00  0.00    +0.245 C 
ATOM      8  N   GLU A   1      10.004   3.680  23.489  0.00  0.00    -0.298 N 
ATOM      9  H   GLU A   1      10.969   3.432  23.678  0.00  0.00    +0.150 HD
ATOM     10  O   UNK A   0       8.175   3.097  22.252  0.00  0.00    -0.270 OA
BRANCH   8  11
ATOM     11  CA  GLU A   1       9.656   5.113  23.601  0.00  0.00    +0.182 C 
BRANCH  11  12
ATOM     12  C   GLU A   1       8.809   5.302  24.875  0.00  0.00    +0.325 C 
ATOM     13  OXT GLU A   1       9.227   5.698  25.952  0.00  0.00    -0.249 OA
BRANCH  12  14
ATOM     14  O   GLU A   1       7.488   5.060  24.660  0.00  0.00    -0.479 OA
ATOM     15  H   GLU A   1       7.185   5.553  23.871  0.00  0.00    +0.295 HD
ENDBRANCH  12  14
ENDBRANCH  11  12
BRANCH  11  16
ATOM     16  CB  GLU A   1      10.880   6.034  23.621  0.00  0.00    +0.045 C 
BRANCH  16  17
ATOM     17  CG  GLU A   1      12.169   5.280  23.934  0.00  0.00    +0.123 C 
BRANCH  17  18
ATOM     18  CD  GLU A   1      13.173   5.348  22.810  0.00  0.00    +0.305 C 
ATOM     19  OE2 GLU A   1      12.933   5.685  21.664  0.00  0.00    -0.251 OA
BRANCH  18  20
ATOM     20  OE1 GLU A   1      14.415   5.010  23.230  0.00  0.00    -0.481 OA
ATOM     21  HE1 GLU A   1      14.857   4.358  22.654  0.00  0.00    +0.295 HD
ENDBRANCH  18  20
ENDBRANCH  17  18
ENDBRANCH  16  17
ENDBRANCH  11  16
ENDBRANCH   8  11
ENDBRANCH   4   7
BRANCH   1  22
ATOM     22  N   UNK A   0       9.618  -2.867  23.717  0.00  0.00    -0.342 N 
ATOM     23  H   UNK A   0      10.460  -3.334  23.375  0.00  0.00    +0.146 HD
BRANCH  22  24
ATOM     24  C   UNK A   0       9.330  -3.296  25.094  0.00  0.00    +0.125 C 
BRANCH  24  36
ATOM     25  N   UNK A   0       2.871  -7.452  23.810  0.00  0.00    -0.329 N 
ATOM     26  H   UNK A   0       2.631  -7.935  22.955  0.00  0.00    +0.145 HD
ATOM     27  H   UNK A   0       2.754  -8.021  24.641  0.00  0.00    +0.145 HD
ATOM     28  C   UNK A   0       4.034  -6.751  23.824  0.00  0.00    +0.195 A 
ATOM     29  N   UNK A   0       4.406  -6.161  22.663  0.00  0.00    -0.294 N 
ATOM     30  H   UNK A   0       3.812  -6.203  21.850  0.00  0.00    +0.172 HD
ATOM     31  C   UNK A   0       5.519  -5.385  22.564  0.00  0.00    +0.276 A 
ATOM     32  O   UNK A   0       5.815  -4.787  21.530  0.00  0.00    -0.266 OA
ATOM     33  C   UNK A   0       6.341  -5.269  23.804  0.00  0.00    +0.133 A 
ATOM     34  N   UNK A   0       7.496  -4.455  23.800  0.00  0.00    -0.331 N 
ATOM     35  H   UNK A   0       7.408  -3.731  23.087  0.00  0.00    +0.147 HD
ATOM     36  C   UNK A   0       7.947  -3.980  25.136  0.00  0.00    +0.105 C 
ATOM     37  C   UNK A   0       7.927  -5.193  26.108  0.00  0.00    +0.126 C 
ATOM     38  N   UNK A   0       6.584  -5.779  26.103  0.00  0.00    -0.326 N 
ATOM     39  H   UNK A   0       6.384  -6.539  26.744  0.00  0.00    +0.148 HD
ATOM     40  C   UNK A   0       5.875  -5.919  24.906  0.00  0.00    +0.149 A 
ATOM     41  N   UNK A   0       4.733  -6.672  24.911  0.00  0.00    -0.199 NA
ENDBRANCH  24  36
ENDBRANCH  22  24
ENDBRANCH   1  22
TORSDOF 11
ENDMDL
MODEL 4
REMARK VINA RESULT:      -8.1      1.749      3.110
REMARK  Name = 
REMARK  11 active torsions:
REMARK  status: ('A' for Active; 'I' for Inactive)
REMARK    1  A    between atoms: C_7  and  C_9
REMARK    2  A    between atoms: C_9  and  N_10
REMARK    3  A    between atoms: N_10  and  C_11
REMARK    4  A    between atoms: C_14  and  C_17
REMARK    5  A    between atoms: N_19  and  CA_20
REMARK    6  A    between atoms: CA_20  and  CB_22
REMARK    7  A    between atoms: CA_20  and  C_27
REMARK    8  A    between atoms: CB_22  and  CG_23
REMARK    9  A    between atoms: CG_23  and  CD_24
REMARK   10  A    between atoms: CD_24  and  OE1_25
REMARK   11  A    between atoms: C_27  and  O_28
REMARK                            x       y       z     vdW  Elec       q    Type
REMARK                         _______ _______ _______ _____ _____    ______ ____
ROOT
ATOM      1  C   UNK A   0       9.565  -1.155  22.954  0.00  0.00    +0.027 A 
ATOM      2  C   UNK A   0       9.686  -0.766  24.294  0.00  0.00    +0.023 A 
ATOM      3  C   UNK A   0       9.856   0.575  24.664  0.00  0.00    +0.015 A 
ATOM      4  C   UNK A   0       9.873   1.573  23.687  0.00  0.00    +0.037 A 
ATOM      5  C   UNK A   0       9.804   1.189  22.338  0.00  0.00    +0.015 A 
ATOM      6  C   UNK A   0       9.646  -0.162  21.978  0.00  0.00    +0.023 A 
ENDROOT
BRANCH   4   7
ATOM      7  C   UNK A   0       9.795   3.033  24.024  0.00  0.00    +0.245 C 
ATOM      8  N   GLU A   1      10.718   3.876  23.432  0.00  0.00    -0.298 N 
ATOM      9  H   GLU A   1      11.128   3.613  22.542  0.00  0.00    +0.150 HD
ATOM     10  O   UNK A   0       8.975   3.439  24.842  0.00  0.00    -0.270 OA
BRANCH   8  11
ATOM     11  CA  GLU A   1      10.904   5.281  23.857  0.00  0.00    +0.182 C 
BRANCH  11  12
ATOM     12  C   GLU A   1      12.412   5.595  23.826  0.00  0.00    +0.325 C 
ATOM     13  OXT GLU A   1      13.197   5.221  22.968  0.00  0.00    -0.249 OA
BRANCH  12  14
ATOM     14  O   GLU A   1      12.788   6.430  24.832  0.00  0.00    -0.479 OA
ATOM     15  H   GLU A   1      12.105   7.119  24.964  0.00  0.00    +0.295 HD
ENDBRANCH  12  14
ENDBRANCH  11  12
BRANCH  11  16
ATOM     16  CB  GLU A   1      10.122   6.281  23.000  0.00  0.00    +0.045 C 
BRANCH  16  17
ATOM     17  CG  GLU A   1       8.662   6.399  23.430  0.00  0.00    +0.123 C 
BRANCH  17  18
ATOM     18  CD  GLU A   1       7.699   5.974  22.350  0.00  0.00    +0.305 C 
ATOM     19  OE2 GLU A   1       6.957   6.715  21.729  0.00  0.00    -0.251 OA
BRANCH  18  20
ATOM     20  OE1 GLU A   1       7.766   4.642  22.118  0.00  0.00    -0.481 OA
ATOM     21  HE1 GLU A   1       6.893   4.223  21.997  0.00  0.00    +0.295 HD
ENDBRANCH  18  20
ENDBRANCH  17  18
ENDBRANCH  16  17
ENDBRANCH  11  16
ENDBRANCH   8  11
ENDBRANCH   4   7
BRANCH   1  22
ATOM     22  N   UNK A   0       9.229  -2.489  22.707  0.00  0.00    -0.342 N 
ATOM     23  H   UNK A   0       9.427  -3.043  23.542  0.00  0.00    +0.146 HD
BRANCH  22  24
ATOM     24  C   UNK A   0       7.905  -2.842  22.172  0.00  0.00    +0.125 C 
BRANCH  24  36
ATOM     25  N   UNK A   0       5.119  -7.301  27.916  0.00  0.00    -0.329 N 
ATOM     26  H   UNK A   0       5.251  -7.152  28.907  0.00  0.00    +0.145 HD
ATOM     27  H   UNK A   0       4.154  -7.486  27.662  0.00  0.00    +0.145 HD
ATOM     28  C   UNK A   0       5.716  -6.425  27.069  0.00  0.00    +0.195 A 
ATOM     29  N   UNK A   0       6.911  -5.917  27.456  0.00  0.00    -0.294 N 
ATOM     30  H   UNK A   0       7.349  -6.226  28.309  0.00  0.00    +0.172 HD
ATOM     31  C   UNK A   0       7.635  -5.076  26.670  0.00  0.00    +0.276 A 
ATOM     32  O   UNK A   0       8.754  -4.677  26.988  0.00  0.00    -0.266 OA
ATOM     33  C   UNK A   0       7.003  -4.698  25.372  0.00  0.00    +0.133 A 
ATOM     34  N   UNK A   0       7.701  -3.854  24.478  0.00  0.00    -0.331 N 
ATOM     35  H   UNK A   0       8.705  -3.933  24.638  0.00  0.00    +0.147 HD
ATOM     36  C   UNK A   0       7.276  -3.941  23.055  0.00  0.00    +0.105 C 
ATOM     37  C   UNK A   0       5.722  -3.901  23.015  0.00  0.00    +0.126 C 
ATOM     38  N   UNK A   0       5.201  -4.978  23.863  0.00  0.00    -0.326 N 
ATOM     39  H   UNK A   0       4.200  -5.135  23.886  0.00  0.00    +0.148 HD
ATOM     40  C   UNK A   0       5.793  -5.258  25.097  0.00  0.00    +0.149 A 
ATOM     41  N   UNK A   0       5.143  -6.106  25.952  0.00  0.00    -0.199 NA
ENDBRANCH  24  36
ENDBRANCH  22  24
ENDBRANCH   1  22
TORSDOF 11
ENDMDL
MODEL 5
REMARK VINA RESULT:      -8.0      1.156      1.745
REMARK  Name = 
REMARK  11 active torsions:
REMARK  status: ('A' for Active; 'I' for Inactive)
REMARK    1  A    between atoms: C_7  and  C_9
REMARK    2  A    between atoms: C_9  and  N_10
REMARK    3  A    between atoms: N_10  and  C_11
REMARK    4  A    between atoms: C_14  and  C_17
REMARK    5  A    between atoms: N_19  and  CA_20
REMARK    6  A    between atoms: CA_20  and  CB_22
REMARK    7  A    between atoms: CA_20  and  C_27
REMARK    8  A    between atoms: CB_22  and  CG_23
REMARK    9  A    between atoms: CG_23  and  CD_24
REMARK   10  A    between atoms: CD_24  and  OE1_25
REMARK   11  A    between atoms: C_27  and  O_28
REMARK                            x       y       z     vdW  Elec       q    Type
REMARK                         _______ _______ _______ _____ _____    ______ ____
ROOT
ATOM      1  C   UNK A   0       9.917  -1.268  23.052  0.00  0.00    +0.027 A 
ATOM      2  C   UNK A   0      10.184  -0.462  24.166  0.00  0.00    +0.023 A 
ATOM      3  C   UNK A   0      10.070   0.933  24.117  0.00  0.00    +0.015 A 
ATOM      4  C   UNK A   0       9.643   1.558  22.942  0.00  0.00    +0.037 A 
ATOM      5  C   UNK A   0       9.422   0.765  21.805  0.00  0.00    +0.015 A 
ATOM      6  C   UNK A   0       9.553  -0.635  21.864  0.00  0.00    +0.023 A 
ENDROOT
BRANCH   4   7
ATOM      7  C   UNK A   0       9.257   3.007  22.895  0.00  0.00    +0.245 C 
ATOM      8  N   GLU A   1      10.077   3.909  23.550  0.00  0.00    -0.298 N 
ATOM      9  H   GLU A   1      11.055   3.680  23.684  0.00  0.00    +0.150 HD
ATOM     10  O   UNK A   0       8.219   3.356  22.341  0.00  0.00    -0.270 OA
BRANCH   8  11
ATOM     11  CA  GLU A   1       9.689   5.317  23.783  0.00  0.00    +0.182 C 
BRANCH  11  12
ATOM     12  C   GLU A   1       9.074   5.418  25.193  0.00  0.00    +0.325 C 
ATOM     13  OXT GLU A   1       8.603   4.488  25.829  0.00  0.00    -0.249 OA
BRANCH  12  14
ATOM     14  O   GLU A   1       9.184   6.668  25.717  0.00  0.00    -0.479 OA
ATOM     15  H   GLU A   1       9.001   7.335  25.025  0.00  0.00    +0.295 HD
ENDBRANCH  12  14
ENDBRANCH  11  12
BRANCH  11  16
ATOM     16  CB  GLU A   1      10.853   6.300  23.626  0.00  0.00    +0.045 C 
BRANCH  16  17
ATOM     17  CG  GLU A   1      12.187   5.693  24.050  0.00  0.00    +0.123 C 
BRANCH  17  18
ATOM     18  CD  GLU A   1      13.114   5.446  22.885  0.00  0.00    +0.305 C 
ATOM     19  OE2 GLU A   1      12.842   5.630  21.712  0.00  0.00    -0.251 OA
BRANCH  18  20
ATOM     20  OE1 GLU A   1      14.328   5.010  23.297  0.00  0.00    -0.481 OA
ATOM     21  HE1 GLU A   1      14.303   4.541  24.153  0.00  0.00    +0.295 HD
ENDBRANCH  18  20
ENDBRANCH  17  18
ENDBRANCH  16  17
ENDBRANCH  11  16
ENDBRANCH   8  11
ENDBRANCH   4   7
BRANCH   1  22
ATOM     22  N   UNK A   0       9.895  -2.651  23.257  0.00  0.00    -0.342 N 
ATOM     23  H   UNK A   0      10.720  -3.065  22.818  0.00  0.00    +0.146 HD
BRANCH  22  24
ATOM     24  C   UNK A   0       9.711  -3.207  24.606  0.00  0.00    +0.125 C 
BRANCH  24  36
ATOM     25  N   UNK A   0       3.481  -7.665  26.002  0.00  0.00    -0.329 N 
ATOM     26  H   UNK A   0       2.970  -7.723  26.872  0.00  0.00    +0.145 HD
ATOM     27  H   UNK A   0       2.883  -7.544  25.192  0.00  0.00    +0.145 HD
ATOM     28  C   UNK A   0       4.566  -6.849  25.970  0.00  0.00    +0.195 A 
ATOM     29  N   UNK A   0       5.288  -6.746  27.111  0.00  0.00    -0.294 N 
ATOM     30  H   UNK A   0       5.052  -7.297  27.921  0.00  0.00    +0.172 HD
ATOM     31  C   UNK A   0       6.428  -6.007  27.188  0.00  0.00    +0.276 A 
ATOM     32  O   UNK A   0       7.125  -5.975  28.201  0.00  0.00    -0.266 OA
ATOM     33  C   UNK A   0       6.804  -5.264  25.949  0.00  0.00    +0.133 A 
ATOM     34  N   UNK A   0       7.991  -4.498  25.931  0.00  0.00    -0.331 N 
ATOM     35  H   UNK A   0       8.651  -4.864  26.616  0.00  0.00    +0.147 HD
ATOM     36  C   UNK A   0       8.558  -4.231  24.582  0.00  0.00    +0.105 C 
ATOM     37  C   UNK A   0       7.396  -3.778  23.654  0.00  0.00    +0.126 C 
ATOM     38  N   UNK A   0       6.349  -4.804  23.672  0.00  0.00    -0.326 N 
ATOM     39  H   UNK A   0       5.551  -4.693  23.058  0.00  0.00    +0.148 HD
ATOM     40  C   UNK A   0       5.992  -5.432  24.869  0.00  0.00    +0.149 A 
ATOM     41  N   UNK A   0       4.866  -6.209  24.885  0.00  0.00    -0.199 NA
ENDBRANCH  24  36
ENDBRANCH  22  24
ENDBRANCH   1  22
TORSDOF 11
ENDMDL
MODEL 6
REMARK VINA RESULT:      -7.9      1.884      3.246
REMARK  Name = 
REMARK  11 active torsions:
REMARK  status: ('A' for Active; 'I' for Inactive)
REMARK    1  A    between atoms: C_7  and  C_9
REMARK    2  A    between atoms: C_9  and  N_10
REMARK    3  A    between atoms: N_10  and  C_11
REMARK    4  A    between atoms: C_14  and  C_17
REMARK    5  A    between atoms: N_19  and  CA_20
REMARK    6  A    between atoms: CA_20  and  CB_22
REMARK    7  A    between atoms: CA_20  and  C_27
REMARK    8  A    between atoms: CB_22  and  CG_23
REMARK    9  A    between atoms: CG_23  and  CD_24
REMARK   10  A    between atoms: CD_24  and  OE1_25
REMARK   11  A    between atoms: C_27  and  O_28
REMARK                            x       y       z     vdW  Elec       q    Type
REMARK                         _______ _______ _______ _____ _____    ______ ____
ROOT
ATOM      1  C   UNK A   0       9.766  -1.309  23.395  0.00  0.00    +0.027 A 
ATOM      2  C   UNK A   0       9.972  -0.764  24.668  0.00  0.00    +0.023 A 
ATOM      3  C   UNK A   0      10.094   0.616  24.873  0.00  0.00    +0.015 A 
ATOM      4  C   UNK A   0       9.975   1.496  23.794  0.00  0.00    +0.037 A 
ATOM      5  C   UNK A   0       9.820   0.958  22.507  0.00  0.00    +0.015 A 
ATOM      6  C   UNK A   0       9.711  -0.431  22.312  0.00  0.00    +0.023 A 
ENDROOT
BRANCH   4   7
ATOM      7  C   UNK A   0       9.842   2.979  23.976  0.00  0.00    +0.245 C 
ATOM      8  N   GLU A   1      10.876   3.775  23.516  0.00  0.00    -0.298 N 
ATOM      9  H   GLU A   1      11.461   3.438  22.760  0.00  0.00    +0.150 HD
ATOM     10  O   UNK A   0       8.872   3.449  24.564  0.00  0.00    -0.270 OA
BRANCH   8  11
ATOM     11  CA  GLU A   1      10.981   5.214  23.843  0.00  0.00    +0.182 C 
BRANCH  11  12
ATOM     12  C   GLU A   1      12.466   5.618  23.756  0.00  0.00    +0.325 C 
ATOM     13  OXT GLU A   1      13.253   5.248  22.898  0.00  0.00    -0.249 OA
BRANCH  12  14
ATOM     14  O   GLU A   1      12.813   6.524  24.709  0.00  0.00    -0.479 OA
ATOM     15  H   GLU A   1      12.062   6.665  25.322  0.00  0.00    +0.295 HD
ENDBRANCH  12  14
ENDBRANCH  11  12
BRANCH  11  16
ATOM     16  CB  GLU A   1      10.122   6.104  22.939  0.00  0.00    +0.045 C 
BRANCH  16  17
ATOM     17  CG  GLU A   1       8.955   6.739  23.689  0.00  0.00    +0.123 C 
BRANCH  17  18
ATOM     18  CD  GLU A   1       7.651   6.634  22.937  0.00  0.00    +0.305 C 
ATOM     19  OE2 GLU A   1       6.551   6.911  23.383  0.00  0.00    -0.251 OA
BRANCH  18  20
ATOM     20  OE1 GLU A   1       7.842   6.211  21.665  0.00  0.00    -0.481 OA
ATOM     21  HE1 GLU A   1       8.040   6.934  21.040  0.00  0.00    +0.295 HD
ENDBRANCH  18  20
ENDBRANCH  17  18
ENDBRANCH  16  17
ENDBRANCH  11  16
ENDBRANCH   8  11
ENDBRANCH   4   7
BRANCH   1  22
ATOM     22  N   UNK A   0       9.488  -2.677  23.325  0.00  0.00    -0.342 N 
ATOM     23  H   UNK A   0      10.091  -3.105  22.620  0.00  0.00    +0.146 HD
BRANCH  22  24
ATOM     24  C   UNK A   0       9.474  -3.503  24.542  0.00  0.00    +0.125 C 
BRANCH  24  36
ATOM     25  N   UNK A   0       2.778  -7.440  23.998  0.00  0.00    -0.329 N 
ATOM     26  H   UNK A   0       2.461  -7.974  23.201  0.00  0.00    +0.145 HD
ATOM     27  H   UNK A   0       2.695  -7.942  24.877  0.00  0.00    +0.145 HD
ATOM     28  C   UNK A   0       3.967  -6.795  23.884  0.00  0.00    +0.195 A 
ATOM     29  N   UNK A   0       4.284  -6.310  22.659  0.00  0.00    -0.294 N 
ATOM     30  H   UNK A   0       3.635  -6.385  21.893  0.00  0.00    +0.172 HD
ATOM     31  C   UNK A   0       5.418  -5.595  22.430  0.00  0.00    +0.276 A 
ATOM     32  O   UNK A   0       5.668  -5.090  21.336  0.00  0.00    -0.266 OA
ATOM     33  C   UNK A   0       6.326  -5.427  23.602  0.00  0.00    +0.133 A 
ATOM     34  N   UNK A   0       7.511  -4.669  23.461  0.00  0.00    -0.331 N 
ATOM     35  H   UNK A   0       7.405  -3.996  22.702  0.00  0.00    +0.147 HD
ATOM     36  C   UNK A   0       8.071  -4.118  24.725  0.00  0.00    +0.105 C 
ATOM     37  C   UNK A   0       8.067  -5.254  25.786  0.00  0.00    +0.126 C 
ATOM     38  N   UNK A   0       6.703  -5.777  25.912  0.00  0.00    -0.326 N 
ATOM     39  H   UNK A   0       6.516  -6.477  26.622  0.00  0.00    +0.148 HD
ATOM     40  C   UNK A   0       5.910  -5.971  24.778  0.00  0.00    +0.149 A 
ATOM     41  N   UNK A   0       4.741  -6.669  24.914  0.00  0.00    -0.199 NA
ENDBRANCH  24  36
ENDBRANCH  22  24
ENDBRANCH   1  22
TORSDOF 11
ENDMDL
MODEL 7
REMARK VINA RESULT:      -7.8      1.901      3.345
REMARK  Name = 
REMARK  11 active torsions:
REMARK  status: ('A' for Active; 'I' for Inactive)
REMARK    1  A    between atoms: C_7  and  C_9
REMARK    2  A    between atoms: C_9  and  N_10
REMARK    3  A    between atoms: N_10  and  C_11
REMARK    4  A    between atoms: C_14  and  C_17
REMARK    5  A    between atoms: N_19  and  CA_20
REMARK    6  A    between atoms: CA_20  and  CB_22
REMARK    7  A    between atoms: CA_20  and  C_27
REMARK    8  A    between atoms: CB_22  and  CG_23
REMARK    9  A    between atoms: CG_23  and  CD_24
REMARK   10  A    between atoms: CD_24  and  OE1_25
REMARK   11  A    between atoms: C_27  and  O_28
REMARK                            x       y       z     vdW  Elec       q    Type
REMARK                         _______ _______ _______ _____ _____    ______ ____
ROOT
ATOM      1  C   UNK A   0       9.920  -0.594  22.877  0.00  0.00    +0.027 A 
ATOM      2  C   UNK A   0      10.302  -0.053  24.110  0.00  0.00    +0.023 A 
ATOM      3  C   UNK A   0      10.547   1.316  24.276  0.00  0.00    +0.015 A 
ATOM      4  C   UNK A   0      10.378   2.191  23.199  0.00  0.00    +0.037 A 
ATOM      5  C   UNK A   0      10.045   1.653  21.947  0.00  0.00    +0.015 A 
ATOM      6  C   UNK A   0       9.814   0.274  21.790  0.00  0.00    +0.023 A 
ENDROOT
BRANCH   4   7
ATOM      7  C   UNK A   0      10.374   3.682  23.366  0.00  0.00    +0.245 C 
ATOM      8  N   GLU A   1       9.146   4.319  23.405  0.00  0.00    -0.298 N 
ATOM      9  H   GLU A   1       8.332   3.802  23.717  0.00  0.00    +0.150 HD
ATOM     10  O   UNK A   0      11.430   4.306  23.406  0.00  0.00    -0.270 OA
BRANCH   8  11
ATOM     11  CA  GLU A   1       9.006   5.789  23.325  0.00  0.00    +0.182 C 
BRANCH  11  12
ATOM     12  C   GLU A   1       7.629   6.106  22.710  0.00  0.00    +0.325 C 
ATOM     13  OXT GLU A   1       6.613   6.360  23.338  0.00  0.00    -0.249 OA
BRANCH  12  14
ATOM     14  O   GLU A   1       7.670   6.164  21.351  0.00  0.00    -0.479 OA
ATOM     15  H   GLU A   1       7.298   5.341  20.973  0.00  0.00    +0.295 HD
ENDBRANCH  12  14
ENDBRANCH  11  12
BRANCH  11  16
ATOM     16  CB  GLU A   1       9.171   6.487  24.678  0.00  0.00    +0.045 C 
BRANCH  16  17
ATOM     17  CG  GLU A   1       8.771   5.591  25.847  0.00  0.00    +0.123 C 
BRANCH  17  18
ATOM     18  CD  GLU A   1       7.928   6.310  26.871  0.00  0.00    +0.305 C 
ATOM     19  OE2 GLU A   1       8.203   6.439  28.052  0.00  0.00    -0.251 OA
BRANCH  18  20
ATOM     20  OE1 GLU A   1       6.810   6.835  26.317  0.00  0.00    -0.481 OA
ATOM     21  HE1 GLU A   1       6.601   7.732  26.639  0.00  0.00    +0.295 HD
ENDBRANCH  18  20
ENDBRANCH  17  18
ENDBRANCH  16  17
ENDBRANCH  11  16
ENDBRANCH   8  11
ENDBRANCH   4   7
BRANCH   1  22
ATOM     22  N   UNK A   0       9.535  -1.938  22.862  0.00  0.00    -0.342 N 
ATOM     23  H   UNK A   0       9.943  -2.392  22.043  0.00  0.00    +0.146 HD
BRANCH  22  24
ATOM     24  C   UNK A   0       9.723  -2.785  24.051  0.00  0.00    +0.125 C 
BRANCH  24  36
ATOM     25  N   UNK A   0       3.808  -7.550  25.763  0.00  0.00    -0.329 N 
ATOM     26  H   UNK A   0       3.348  -7.635  26.659  0.00  0.00    +0.145 HD
ATOM     27  H   UNK A   0       3.161  -7.458  24.986  0.00  0.00    +0.145 HD
ATOM     28  C   UNK A   0       4.847  -6.681  25.675  0.00  0.00    +0.195 A 
ATOM     29  N   UNK A   0       5.624  -6.544  26.776  0.00  0.00    -0.294 N 
ATOM     30  H   UNK A   0       5.460  -7.107  27.595  0.00  0.00    +0.172 HD
ATOM     31  C   UNK A   0       6.728  -5.749  26.795  0.00  0.00    +0.276 A 
ATOM     32  O   UNK A   0       7.477  -5.684  27.769  0.00  0.00    -0.266 OA
ATOM     33  C   UNK A   0       6.999  -4.987  25.540  0.00  0.00    +0.133 A 
ATOM     34  N   UNK A   0       8.144  -4.162  25.461  0.00  0.00    -0.331 N 
ATOM     35  H   UNK A   0       8.858  -4.496  26.108  0.00  0.00    +0.147 HD
ATOM     36  C   UNK A   0       8.623  -3.866  24.084  0.00  0.00    +0.105 C 
ATOM     37  C   UNK A   0       7.391  -3.469  23.223  0.00  0.00    +0.126 C 
ATOM     38  N   UNK A   0       6.399  -4.546  23.293  0.00  0.00    -0.326 N 
ATOM     39  H   UNK A   0       5.564  -4.475  22.724  0.00  0.00    +0.148 HD
ATOM     40  C   UNK A   0       6.139  -5.193  24.505  0.00  0.00    +0.149 A 
ATOM     41  N   UNK A   0       5.056  -6.025  24.578  0.00  0.00    -0.199 NA
ENDBRANCH  24  36
ENDBRANCH  22  24
ENDBRANCH   1  22
TORSDOF 11
ENDMDL
MODEL 8
REMARK VINA RESULT:      -7.8      1.801      2.584
REMARK  Name = 
REMARK  11 active torsions:
REMARK  status: ('A' for Active; 'I' for Inactive)
REMARK    1  A    between atoms: C_7  and  C_9
REMARK    2  A    between atoms: C_9  and  N_10
REMARK    3  A    between atoms: N_10  and  C_11
REMARK    4  A    between atoms: C_14  and  C_17
REMARK    5  A    between atoms: N_19  and  CA_20
REMARK    6  A    between atoms: CA_20  and  CB_22
REMARK    7  A    between atoms: CA_20  and  C_27
REMARK    8  A    between atoms: CB_22  and  CG_23
REMARK    9  A    between atoms: CG_23  and  CD_24
REMARK   10  A    between atoms: CD_24  and  OE1_25
REMARK   11  A    between atoms: C_27  and  O_28
REMARK                            x       y       z     vdW  Elec       q    Type
REMARK                         _______ _______ _______ _____ _____    ______ ____
ROOT
ATOM      1  C   UNK A   0       9.423  -2.239  24.426  0.00  0.00    +0.027 A 
ATOM      2  C   UNK A   0       9.263  -1.161  25.306  0.00  0.00    +0.023 A 
ATOM      3  C   UNK A   0       9.495   0.162  24.908  0.00  0.00    +0.015 A 
ATOM      4  C   UNK A   0       9.863   0.440  23.589  0.00  0.00    +0.037 A 
ATOM      5  C   UNK A   0      10.076  -0.635  22.713  0.00  0.00    +0.015 A 
ATOM      6  C   UNK A   0       9.853  -1.961  23.128  0.00  0.00    +0.023 A 
ENDROOT
BRANCH   4   7
ATOM      7  C   UNK A   0       9.878   1.834  23.034  0.00  0.00    +0.245 C 
ATOM      8  N   GLU A   1       9.378   2.846  23.834  0.00  0.00    -0.298 N 
ATOM      9  H   GLU A   1       9.396   2.734  24.842  0.00  0.00    +0.150 HD
ATOM     10  O   UNK A   0      10.267   2.044  21.889  0.00  0.00    -0.270 OA
BRANCH   8  11
ATOM     11  CA  GLU A   1       9.115   4.210  23.325  0.00  0.00    +0.182 C 
BRANCH  11  12
ATOM     12  C   GLU A   1       7.613   4.318  22.998  0.00  0.00    +0.325 C 
ATOM     13  OXT GLU A   1       6.700   4.014  23.750  0.00  0.00    -0.249 OA
BRANCH  12  14
ATOM     14  O   GLU A   1       7.387   4.884  21.782  0.00  0.00    -0.479 OA
ATOM     15  H   GLU A   1       6.944   5.749  21.895  0.00  0.00    +0.295 HD
ENDBRANCH  12  14
ENDBRANCH  11  12
BRANCH  11  16
ATOM     16  CB  GLU A   1       9.540   5.312  24.300  0.00  0.00    +0.045 C 
BRANCH  16  17
ATOM     17  CG  GLU A   1      10.675   6.171  23.748  0.00  0.00    +0.123 C 
BRANCH  17  18
ATOM     18  CD  GLU A   1      12.018   5.490  23.835  0.00  0.00    +0.305 C 
ATOM     19  OE2 GLU A   1      12.295   4.405  23.354  0.00  0.00    -0.251 OA
BRANCH  18  20
ATOM     20  OE1 GLU A   1      12.919   6.248  24.502  0.00  0.00    -0.481 OA
ATOM     21  HE1 GLU A   1      13.493   6.777  23.916  0.00  0.00    +0.295 HD
ENDBRANCH  18  20
ENDBRANCH  17  18
ENDBRANCH  16  17
ENDBRANCH  11  16
ENDBRANCH   8  11
ENDBRANCH   4   7
BRANCH   1  22
ATOM     22  N   UNK A   0       9.003  -3.494  24.874  0.00  0.00    -0.342 N 
ATOM     23  H   UNK A   0       9.780  -4.153  24.797  0.00  0.00    +0.146 HD
BRANCH  22  24
ATOM     24  C   UNK A   0       8.347  -3.643  26.182  0.00  0.00    +0.125 C 
BRANCH  24  36
ATOM     25  N   UNK A   0       2.328  -7.944  23.752  0.00  0.00    -0.329 N 
ATOM     26  H   UNK A   0       2.197  -8.319  22.823  0.00  0.00    +0.145 HD
ATOM     27  H   UNK A   0       2.179  -8.628  24.486  0.00  0.00    +0.145 HD
ATOM     28  C   UNK A   0       3.433  -7.187  23.969  0.00  0.00    +0.195 A 
ATOM     29  N   UNK A   0       3.864  -6.424  22.936  0.00  0.00    -0.294 N 
ATOM     30  H   UNK A   0       3.347  -6.388  22.073  0.00  0.00    +0.172 HD
ATOM     31  C   UNK A   0       4.925  -5.579  23.047  0.00  0.00    +0.276 A 
ATOM     32  O   UNK A   0       5.268  -4.829  22.134  0.00  0.00    -0.266 OA
ATOM     33  C   UNK A   0       5.625  -5.588  24.365  0.00  0.00    +0.133 A 
ATOM     34  N   UNK A   0       6.718  -4.716  24.578  0.00  0.00    -0.331 N 
ATOM     35  H   UNK A   0       6.642  -3.908  23.961  0.00  0.00    +0.147 HD
ATOM     36  C   UNK A   0       7.017  -4.404  26.001  0.00  0.00    +0.105 C 
ATOM     37  C   UNK A   0       6.996  -5.738  26.799  0.00  0.00    +0.126 C 
ATOM     38  N   UNK A   0       5.702  -6.394  26.589  0.00  0.00    -0.326 N 
ATOM     39  H   UNK A   0       5.500  -7.244  27.103  0.00  0.00    +0.148 HD
ATOM     40  C   UNK A   0       5.111  -6.408  25.322  0.00  0.00    +0.149 A 
ATOM     41  N   UNK A   0       4.029  -7.219  25.119  0.00  0.00    -0.199 NA
ENDBRANCH  24  36
ENDBRANCH  22  24
ENDBRANCH   1  22
TORSDOF 11
ENDMDL
MODEL 9
REMARK VINA RESULT:      -7.8      2.194      3.507
REMARK  Name = 
REMARK  11 active torsions:
REMARK  status: ('A' for Active; 'I' for Inactive)
REMARK    1  A    between atoms: C_7  and  C_9
REMARK    2  A    between atoms: C_9  and  N_10
REMARK    3  A    between atoms: N_10  and  C_11
REMARK    4  A    between atoms: C_14  and  C_17
REMARK    5  A    between atoms: N_19  and  CA_20
REMARK    6  A    between atoms: CA_20  and  CB_22
REMARK    7  A    between atoms: CA_20  and  C_27
REMARK    8  A    between atoms: CB_22  and  CG_23
REMARK    9  A    between atoms: CG_23  and  CD_24
REMARK   10  A    between atoms: CD_24  and  OE1_25
REMARK   11  A    between atoms: C_27  and  O_28
REMARK                            x       y       z     vdW  Elec       q    Type
REMARK                         _______ _______ _______ _____ _____    ______ ____
ROOT
ATOM      1  C   UNK A   0      10.042  -0.612  22.839  0.00  0.00    +0.027 A 
ATOM      2  C   UNK A   0      10.480  -0.063  24.050  0.00  0.00    +0.023 A 
ATOM      3  C   UNK A   0      10.618   1.320  24.231  0.00  0.00    +0.015 A 
ATOM      4  C   UNK A   0      10.279   2.196  23.197  0.00  0.00    +0.037 A 
ATOM      5  C   UNK A   0       9.889   1.655  21.962  0.00  0.00    +0.015 A 
ATOM      6  C   UNK A   0       9.767   0.264  21.789  0.00  0.00    +0.023 A 
ENDROOT
BRANCH   4   7
ATOM      7  C   UNK A   0      10.159   3.678  23.403  0.00  0.00    +0.245 C 
ATOM      8  N   GLU A   1       8.892   4.231  23.344  0.00  0.00    -0.298 N 
ATOM      9  H   GLU A   1       8.090   3.652  23.564  0.00  0.00    +0.150 HD
ATOM     10  O   UNK A   0      11.162   4.367  23.560  0.00  0.00    -0.270 OA
BRANCH   8  11
ATOM     11  CA  GLU A   1       8.661   5.691  23.291  0.00  0.00    +0.182 C 
BRANCH  11  12
ATOM     12  C   GLU A   1       7.509   5.958  22.303  0.00  0.00    +0.325 C 
ATOM     13  OXT GLU A   1       7.121   7.060  21.947  0.00  0.00    -0.249 OA
BRANCH  12  14
ATOM     14  O   GLU A   1       7.000   4.811  21.779  0.00  0.00    -0.479 OA
ATOM     15  H   GLU A   1       7.357   4.038  22.262  0.00  0.00    +0.295 HD
ENDBRANCH  12  14
ENDBRANCH  11  12
BRANCH  11  16
ATOM     16  CB  GLU A   1       8.356   6.305  24.661  0.00  0.00    +0.045 C 
BRANCH  16  17
ATOM     17  CG  GLU A   1       7.178   5.625  25.353  0.00  0.00    +0.123 C 
BRANCH  17  18
ATOM     18  CD  GLU A   1       7.600   4.779  26.528  0.00  0.00    +0.305 C 
ATOM     19  OE2 GLU A   1       7.589   5.130  27.695  0.00  0.00    -0.251 OA
BRANCH  18  20
ATOM     20  OE1 GLU A   1       7.980   3.539  26.139  0.00  0.00    -0.481 OA
ATOM     21  HE1 GLU A   1       7.350   3.112  25.528  0.00  0.00    +0.295 HD
ENDBRANCH  18  20
ENDBRANCH  17  18
ENDBRANCH  16  17
ENDBRANCH  11  16
ENDBRANCH   8  11
ENDBRANCH   4   7
BRANCH   1  22
ATOM     22  N   UNK A   0       9.778  -1.985  22.820  0.00  0.00    -0.342 N 
ATOM     23  H   UNK A   0      10.381  -2.431  22.127  0.00  0.00    +0.146 HD
BRANCH  22  24
ATOM     24  C   UNK A   0       9.781  -2.766  24.067  0.00  0.00    +0.125 C 
BRANCH  24  36
ATOM     25  N   UNK A   0       3.422  -7.259  23.966  0.00  0.00    -0.329 N 
ATOM     26  H   UNK A   0       3.245  -8.032  23.339  0.00  0.00    +0.145 HD
ATOM     27  H   UNK A   0       3.241  -7.482  24.939  0.00  0.00    +0.145 HD
ATOM     28  C   UNK A   0       4.583  -6.575  23.801  0.00  0.00    +0.195 A 
ATOM     29  N   UNK A   0       5.044  -6.450  22.534  0.00  0.00    -0.294 N 
ATOM     30  H   UNK A   0       4.513  -6.806  21.755  0.00  0.00    +0.172 HD
ATOM     31  C   UNK A   0       6.164  -5.739  22.232  0.00  0.00    +0.276 A 
ATOM     32  O   UNK A   0       6.539  -5.561  21.074  0.00  0.00    -0.266 OA
ATOM     33  C   UNK A   0       6.890  -5.150  23.395  0.00  0.00    +0.133 A 
ATOM     34  N   UNK A   0       8.046  -4.368  23.170  0.00  0.00    -0.331 N 
ATOM     35  H   UNK A   0       8.014  -3.963  22.235  0.00  0.00    +0.147 HD
ATOM     36  C   UNK A   0       8.397  -3.420  24.262  0.00  0.00    +0.105 C 
ATOM     37  C   UNK A   0       8.299  -4.185  25.612  0.00  0.00    +0.126 C 
ATOM     38  N   UNK A   0       6.958  -4.764  25.730  0.00  0.00    -0.326 N 
ATOM     39  H   UNK A   0       6.708  -5.236  26.592  0.00  0.00    +0.148 HD
ATOM     40  C   UNK A   0       6.341  -5.355  24.624  0.00  0.00    +0.149 A 
ATOM     41  N   UNK A   0       5.199  -6.081  24.828  0.00  0.00    -0.199 NA
ENDBRANCH  24  36
ENDBRANCH  22  24
ENDBRANCH   1  22
TORSDOF 11
ENDMDL
