MODEL 1
REMARK VINA RESULT:      -6.2      0.000      0.000
REMARK  Name = 
REMARK  7 active torsions:
REMARK  status: ('A' for Active; 'I' for Inactive)
REMARK    1  A    between atoms: C_2  and  N_3
REMARK    2  A    between atoms: C_2  and  C_12
REMARK    3  A    between atoms: C_2  and  C_15
REMARK    4  A    between atoms: C_4  and  C_6
REMARK    5  A    between atoms: C_12  and  C_13
REMARK    6  A    between atoms: C_12  and  C_14
REMARK    7  A    between atoms: N_17  and  C_18
REMARK                            x       y       z     vdW  Elec       q    Type
REMARK                         _______ _______ _______ _____ _____    ______ ____
ROOT
ATOM      1  C   UNL     1       8.018  -4.148  23.815  0.00  0.00    +0.162 C 
ENDROOT
BRANCH   1   2
ATOM      2  N   UNL     1       7.205  -3.980  25.027  0.00  0.00    -0.304 N 
ATOM      3  H   UNL     1       6.821  -3.062  25.216  0.00  0.00    +0.149 HD
ATOM      4  C   UNL     1       7.311  -4.829  26.116  0.00  0.00    +0.217 C 
ATOM      5  O   UNL     1       8.093  -5.773  26.146  0.00  0.00    -0.275 OA
BRANCH   4   6
ATOM      6  C   UNL     1       6.361  -4.462  27.258  0.00  0.00    +0.075 C 
ATOM      7  C   UNL     1       6.098  -5.642  28.204  0.00  0.00    +0.013 C 
ATOM      8  C   UNL     1       5.148  -6.684  27.619  0.00  0.00    +0.001 C 
ATOM      9  C   UNL     1       3.845  -6.055  27.142  0.00  0.00    +0.000 C 
ATOM     10  C   UNL     1       4.096  -4.920  26.157  0.00  0.00    +0.001 C 
ATOM     11  C   UNL     1       5.044  -3.867  26.732  0.00  0.00    +0.013 C 
ENDBRANCH   4   6
ENDBRANCH   1   2
BRANCH   1  12
ATOM     12  C   UNL     1       8.969  -2.929  23.768  0.00  0.00    +0.238 C 
ATOM     13  N   UNL     1       8.322  -1.735  23.449  0.00  0.00    -0.284 N 
ATOM     14  H   UNL     1       7.451  -1.830  22.940  0.00  0.00    +0.155 HD
ATOM     15  O   UNL     1      10.187  -3.050  23.869  0.00  0.00    -0.273 OA
BRANCH  13  16
ATOM     16  C   UNL     1       8.981  -0.493  23.362  0.00  0.00    +0.036 A 
ATOM     17  C   UNL     1       9.364   0.232  24.486  0.00  0.00    +0.043 A 
ATOM     18  C   UNL     1      10.031   1.430  24.293  0.00  0.00    +0.112 A 
ATOM     19  N   UNL     1      10.344   1.928  23.078  0.00  0.00    -0.263 NA
ATOM     20  C   UNL     1       9.955   1.206  22.008  0.00  0.00    +0.112 A 
ATOM     21  C   UNL     1       9.249   0.019  22.095  0.00  0.00    +0.043 A 
ENDBRANCH  13  16
ENDBRANCH   1  12
BRANCH   1  22
ATOM     22  C   UNL     1       7.131  -4.243  22.544  0.00  0.00    +0.012 C 
ATOM     23  C   UNL     1       5.658  -3.930  22.838  0.00  0.00    +0.009 C 
ATOM     24  C   UNL     1       7.202  -5.629  21.892  0.00  0.00    +0.009 C 
ENDBRANCH   1  22
TORSDOF 5
ENDMDL
MODEL 2
REMARK VINA RESULT:      -6.1      2.206      3.662
REMARK  Name = 
REMARK  7 active torsions:
REMARK  status: ('A' for Active; 'I' for Inactive)
REMARK    1  A    between atoms: C_2  and  N_3
REMARK    2  A    between atoms: C_2  and  C_12
REMARK    3  A    between atoms: C_2  and  C_15
REMARK    4  A    between atoms: C_4  and  C_6
REMARK    5  A    between atoms: C_12  and  C_13
REMARK    6  A    between atoms: C_12  and  C_14
REMARK    7  A    between atoms: N_17  and  C_18
REMARK                            x       y       z     vdW  Elec       q    Type
REMARK                         _______ _______ _______ _____ _____    ______ ____
ROOT
ATOM      1  C   UNL     1       7.692  -2.834  26.154  0.00  0.00    +0.162 C 
ENDROOT
BRANCH   1   2
ATOM      2  N   UNL     1       7.008  -2.954  24.859  0.00  0.00    -0.304 N 
ATOM      3  H   UNL     1       7.351  -2.393  24.089  0.00  0.00    +0.149 HD
ATOM      4  C   UNL     1       5.704  -3.404  24.747  0.00  0.00    +0.217 C 
ATOM      5  O   UNL     1       5.028  -3.728  25.719  0.00  0.00    -0.275 OA
BRANCH   4   6
ATOM      6  C   UNL     1       5.207  -3.450  23.301  0.00  0.00    +0.075 C 
ATOM      7  C   UNL     1       4.245  -4.621  23.047  0.00  0.00    +0.013 C 
ATOM      8  C   UNL     1       4.951  -5.971  22.950  0.00  0.00    +0.001 C 
ATOM      9  C   UNL     1       6.077  -5.947  21.925  0.00  0.00    +0.000 C 
ATOM     10  C   UNL     1       7.068  -4.823  22.203  0.00  0.00    +0.001 C 
ATOM     11  C   UNL     1       6.374  -3.465  22.299  0.00  0.00    +0.013 C 
ENDBRANCH   4   6
ENDBRANCH   1   2
BRANCH   1  12
ATOM     12  C   UNL     1       8.414  -1.467  26.130  0.00  0.00    +0.238 C 
ATOM     13  N   UNL     1       8.411  -0.862  24.873  0.00  0.00    -0.284 N 
ATOM     14  H   UNL     1       8.297  -1.488  24.085  0.00  0.00    +0.155 HD
ATOM     15  O   UNL     1       9.038  -1.045  27.100  0.00  0.00    -0.273 OA
BRANCH  13  16
ATOM     16  C   UNL     1       8.996   0.393  24.613  0.00  0.00    +0.036 A 
ATOM     17  C   UNL     1      10.305   0.528  24.162  0.00  0.00    +0.043 A 
ATOM     18  C   UNL     1      10.779   1.805  23.910  0.00  0.00    +0.112 A 
ATOM     19  N   UNL     1      10.040   2.924  24.064  0.00  0.00    -0.263 NA
ATOM     20  C   UNL     1       8.778   2.761  24.509  0.00  0.00    +0.112 A 
ATOM     21  C   UNL     1       8.226   1.532  24.827  0.00  0.00    +0.043 A 
ENDBRANCH  13  16
ENDBRANCH   1  12
BRANCH   1  22
ATOM     22  C   UNL     1       8.680  -4.010  26.386  0.00  0.00    +0.012 C 
ATOM     23  C   UNL     1       9.430  -4.400  25.106  0.00  0.00    +0.009 C 
ATOM     24  C   UNL     1       7.974  -5.260  26.924  0.00  0.00    +0.009 C 
ENDBRANCH   1  22
TORSDOF 5
ENDMDL
MODEL 3
REMARK VINA RESULT:      -6.1      2.380      7.210
REMARK  Name = 
REMARK  7 active torsions:
REMARK  status: ('A' for Active; 'I' for Inactive)
REMARK    1  A    between atoms: C_2  and  N_3
REMARK    2  A    between atoms: C_2  and  C_12
REMARK    3  A    between atoms: C_2  and  C_15
REMARK    4  A    between atoms: C_4  and  C_6
REMARK    5  A    between atoms: C_12  and  C_13
REMARK    6  A    between atoms: C_12  and  C_14
REMARK    7  A    between atoms: N_17  and  C_18
REMARK                            x       y       z     vdW  Elec       q    Type
REMARK                         _______ _______ _______ _____ _____    ______ ____
ROOT
ATOM      1  C   UNL     1       8.145  -3.673  23.854  0.00  0.00    +0.162 C 
ENDROOT
BRANCH   1   2
ATOM      2  N   UNL     1       7.841  -2.241  23.736  0.00  0.00    -0.304 N 
ATOM      3  H   UNL     1       6.998  -1.898  24.180  0.00  0.00    +0.149 HD
ATOM      4  C   UNL     1       8.350  -1.456  22.716  0.00  0.00    +0.217 C 
ATOM      5  O   UNL     1       9.085  -1.901  21.839  0.00  0.00    -0.275 OA
BRANCH   4   6
ATOM      6  C   UNL     1       7.901   0.005  22.801  0.00  0.00    +0.075 C 
ATOM      7  C   UNL     1       8.618   0.900  21.780  0.00  0.00    +0.013 C 
ATOM      8  C   UNL     1      10.060   1.219  22.165  0.00  0.00    +0.001 C 
ATOM      9  C   UNL     1      10.154   1.798  23.571  0.00  0.00    +0.000 C 
ATOM     10  C   UNL     1       9.495   0.886  24.600  0.00  0.00    +0.001 C 
ATOM     11  C   UNL     1       8.049   0.562  24.227  0.00  0.00    +0.013 C 
ENDBRANCH   4   6
ENDBRANCH   1   2
BRANCH   1  12
ATOM     12  C   UNL     1       6.894  -4.419  23.336  0.00  0.00    +0.238 C 
ATOM     13  N   UNL     1       5.972  -4.716  24.340  0.00  0.00    -0.284 N 
ATOM     14  H   UNL     1       6.347  -4.766  25.280  0.00  0.00    +0.155 HD
ATOM     15  O   UNL     1       6.808  -4.819  22.178  0.00  0.00    -0.273 OA
BRANCH  13  16
ATOM     16  C   UNL     1       4.752  -5.379  24.103  0.00  0.00    +0.036 A 
ATOM     17  C   UNL     1       4.547  -6.713  24.442  0.00  0.00    +0.043 A 
ATOM     18  C   UNL     1       3.301  -7.265  24.192  0.00  0.00    +0.112 A 
ATOM     19  N   UNL     1       2.271  -6.580  23.652  0.00  0.00    -0.263 NA
ATOM     20  C   UNL     1       2.502  -5.292  23.329  0.00  0.00    +0.112 A 
ATOM     21  C   UNL     1       3.722  -4.661  23.502  0.00  0.00    +0.043 A 
ENDBRANCH  13  16
ENDBRANCH   1  12
BRANCH   1  22
ATOM     22  C   UNL     1       8.490  -4.062  25.317  0.00  0.00    +0.012 C 
ATOM     23  C   UNL     1       8.649  -2.834  26.223  0.00  0.00    +0.009 C 
ATOM     24  C   UNL     1       9.777  -4.890  25.407  0.00  0.00    +0.009 C 
ENDBRANCH   1  22
TORSDOF 5
ENDMDL
MODEL 4
REMARK VINA RESULT:      -6.1      2.713      3.949
REMARK  Name = 
REMARK  7 active torsions:
REMARK  status: ('A' for Active; 'I' for Inactive)
REMARK    1  A    between atoms: C_2  and  N_3
REMARK    2  A    between atoms: C_2  and  C_12
REMARK    3  A    between atoms: C_2  and  C_15
REMARK    4  A    between atoms: C_4  and  C_6
REMARK    5  A    between atoms: C_12  and  C_13
REMARK    6  A    between atoms: C_12  and  C_14
REMARK    7  A    between atoms: N_17  and  C_18
REMARK                            x       y       z     vdW  Elec       q    Type
REMARK                         _______ _______ _______ _____ _____    ______ ____
ROOT
ATOM      1  C   UNL     1       8.236  -1.385  24.313  0.00  0.00    +0.162 C 
ENDROOT
BRANCH   1   2
ATOM      2  N   UNL     1       7.252  -2.031  23.434  0.00  0.00    -0.304 N 
ATOM      3  H   UNL     1       7.188  -1.706  22.477  0.00  0.00    +0.149 HD
ATOM      4  C   UNL     1       6.141  -2.694  23.924  0.00  0.00    +0.217 C 
ATOM      5  O   UNL     1       5.898  -2.784  25.124  0.00  0.00    -0.275 OA
BRANCH   4   6
ATOM      6  C   UNL     1       5.264  -3.292  22.823  0.00  0.00    +0.075 C 
ATOM      7  C   UNL     1       4.396  -4.455  23.327  0.00  0.00    +0.013 C 
ATOM      8  C   UNL     1       5.182  -5.747  23.537  0.00  0.00    +0.001 C 
ATOM      9  C   UNL     1       5.964  -6.139  22.291  0.00  0.00    +0.000 C 
ATOM     10  C   UNL     1       6.871  -5.011  21.816  0.00  0.00    +0.001 C 
ATOM     11  C   UNL     1       6.095  -3.712  21.599  0.00  0.00    +0.013 C 
ENDBRANCH   4   6
ENDBRANCH   1   2
BRANCH   1  12
ATOM     12  C   UNL     1       8.362   0.073  23.813  0.00  0.00    +0.238 C 
ATOM     13  N   UNL     1       9.135   0.880  24.648  0.00  0.00    -0.284 N 
ATOM     14  H   UNL     1       9.206   0.574  25.611  0.00  0.00    +0.155 HD
ATOM     15  O   UNL     1       7.723   0.487  22.849  0.00  0.00    -0.273 OA
BRANCH  13  16
ATOM     16  C   UNL     1       9.400   2.239  24.388  0.00  0.00    +0.036 A 
ATOM     17  C   UNL     1       8.569   3.262  24.834  0.00  0.00    +0.043 A 
ATOM     18  C   UNL     1       8.932   4.568  24.549  0.00  0.00    +0.112 A 
ATOM     19  N   UNL     1      10.053   4.905  23.876  0.00  0.00    -0.263 NA
ATOM     20  C   UNL     1      10.834   3.892  23.451  0.00  0.00    +0.112 A 
ATOM     21  C   UNL     1      10.538   2.555  23.651  0.00  0.00    +0.043 A 
ENDBRANCH  13  16
ENDBRANCH   1  12
BRANCH   1  22
ATOM     22  C   UNL     1       9.599  -2.129  24.286  0.00  0.00    +0.012 C 
ATOM     23  C   UNL     1      10.342  -1.930  22.958  0.00  0.00    +0.009 C 
ATOM     24  C   UNL     1       9.439  -3.635  24.521  0.00  0.00    +0.009 C 
ENDBRANCH   1  22
TORSDOF 5
ENDMDL
MODEL 5
REMARK VINA RESULT:      -6.1      2.379      7.165
REMARK  Name = 
REMARK  7 active torsions:
REMARK  status: ('A' for Active; 'I' for Inactive)
REMARK    1  A    between atoms: C_2  and  N_3
REMARK    2  A    between atoms: C_2  and  C_12
REMARK    3  A    between atoms: C_2  and  C_15
REMARK    4  A    between atoms: C_4  and  C_6
REMARK    5  A    between atoms: C_12  and  C_13
REMARK    6  A    between atoms: C_12  and  C_14
REMARK    7  A    between atoms: N_17  and  C_18
REMARK                            x       y       z     vdW  Elec       q    Type
REMARK                         _______ _______ _______ _____ _____    ______ ____
ROOT
ATOM      1  C   UNL     1       9.163  -1.586  24.825  0.00  0.00    +0.162 C 
ENDROOT
BRANCH   1   2
ATOM      2  N   UNL     1       9.322  -0.650  23.704  0.00  0.00    -0.304 N 
ATOM      3  H   UNL     1       9.000  -0.946  22.791  0.00  0.00    +0.149 HD
ATOM      4  C   UNL     1      10.260   0.368  23.715  0.00  0.00    +0.217 C 
ATOM      5  O   UNL     1      11.025   0.555  24.656  0.00  0.00    -0.275 OA
BRANCH   4   6
ATOM      6  C   UNL     1      10.239   1.217  22.443  0.00  0.00    +0.075 C 
ATOM      7  C   UNL     1      10.324   2.722  22.739  0.00  0.00    +0.013 C 
ATOM      8  C   UNL     1       9.017   3.307  23.269  0.00  0.00    +0.001 C 
ATOM      9  C   UNL     1       7.844   2.989  22.351  0.00  0.00    +0.000 C 
ATOM     10  C   UNL     1       7.717   1.491  22.098  0.00  0.00    +0.001 C 
ATOM     11  C   UNL     1       9.019   0.894  21.564  0.00  0.00    +0.013 C 
ENDBRANCH   4   6
ENDBRANCH   1   2
BRANCH   1  12
ATOM     12  C   UNL     1       8.754  -2.939  24.197  0.00  0.00    +0.238 C 
ATOM     13  N   UNL     1       7.428  -2.970  23.764  0.00  0.00    -0.284 N 
ATOM     14  H   UNL     1       6.804  -2.311  24.215  0.00  0.00    +0.155 HD
ATOM     15  O   UNL     1       9.500  -3.914  24.214  0.00  0.00    -0.273 OA
BRANCH  13  16
ATOM     16  C   UNL     1       6.838  -4.091  23.149  0.00  0.00    +0.036 A 
ATOM     17  C   UNL     1       7.012  -4.381  21.799  0.00  0.00    +0.043 A 
ATOM     18  C   UNL     1       6.411  -5.523  21.295  0.00  0.00    +0.112 A 
ATOM     19  N   UNL     1       5.678  -6.377  22.041  0.00  0.00    -0.263 NA
ATOM     20  C   UNL     1       5.523  -6.066  23.342  0.00  0.00    +0.112 A 
ATOM     21  C   UNL     1       6.049  -4.929  23.931  0.00  0.00    +0.043 A 
ENDBRANCH  13  16
ENDBRANCH   1  12
BRANCH   1  22
ATOM     22  C   UNL     1       8.107  -1.077  25.845  0.00  0.00    +0.012 C 
ATOM     23  C   UNL     1       7.322   0.130  25.314  0.00  0.00    +0.009 C 
ATOM     24  C   UNL     1       8.742  -0.680  27.183  0.00  0.00    +0.009 C 
ENDBRANCH   1  22
TORSDOF 5
ENDMDL
MODEL 6
REMARK VINA RESULT:      -5.9      2.853      7.295
REMARK  Name = 
REMARK  7 active torsions:
REMARK  status: ('A' for Active; 'I' for Inactive)
REMARK    1  A    between atoms: C_2  and  N_3
REMARK    2  A    between atoms: C_2  and  C_12
REMARK    3  A    between atoms: C_2  and  C_15
REMARK    4  A    between atoms: C_4  and  C_6
REMARK    5  A    between atoms: C_12  and  C_13
REMARK    6  A    between atoms: C_12  and  C_14
REMARK    7  A    between atoms: N_17  and  C_18
REMARK                            x       y       z     vdW  Elec       q    Type
REMARK                         _______ _______ _______ _____ _____    ______ ____
ROOT
ATOM      1  C   UNL     1       9.205  -0.776  23.248  0.00  0.00    +0.162 C 
ENDROOT
BRANCH   1   2
ATOM      2  N   UNL     1       8.110   0.196  23.134  0.00  0.00    -0.304 N 
ATOM      3  H   UNL     1       7.184  -0.098  23.419  0.00  0.00    +0.149 HD
ATOM      4  C   UNL     1       8.163   1.276  22.269  0.00  0.00    +0.217 C 
ATOM      5  O   UNL     1       9.122   1.491  21.535  0.00  0.00    -0.275 OA
BRANCH   4   6
ATOM      6  C   UNL     1       6.911   2.153  22.327  0.00  0.00    +0.075 C 
ATOM      7  C   UNL     1       7.207   3.621  21.986  0.00  0.00    +0.013 C 
ATOM      8  C   UNL     1       7.906   4.374  23.116  0.00  0.00    +0.001 C 
ATOM      9  C   UNL     1       7.145   4.253  24.430  0.00  0.00    +0.000 C 
ATOM     10  C   UNL     1       6.898   2.796  24.805  0.00  0.00    +0.001 C 
ATOM     11  C   UNL     1       6.195   2.033  23.683  0.00  0.00    +0.013 C 
ENDBRANCH   4   6
ENDBRANCH   1   2
BRANCH   1  12
ATOM     12  C   UNL     1       8.542  -2.173  23.204  0.00  0.00    +0.238 C 
ATOM     13  N   UNL     1       7.236  -2.150  22.713  0.00  0.00    -0.284 N 
ATOM     14  H   UNL     1       6.752  -1.264  22.796  0.00  0.00    +0.155 HD
ATOM     15  O   UNL     1       9.082  -3.164  23.687  0.00  0.00    -0.273 OA
BRANCH  13  16
ATOM     16  C   UNL     1       6.440  -3.303  22.569  0.00  0.00    +0.036 A 
ATOM     17  C   UNL     1       6.826  -4.385  21.785  0.00  0.00    +0.043 A 
ATOM     18  C   UNL     1       5.984  -5.484  21.730  0.00  0.00    +0.112 A 
ATOM     19  N   UNL     1       4.817  -5.569  22.405  0.00  0.00    -0.263 NA
ATOM     20  C   UNL     1       4.468  -4.503  23.151  0.00  0.00    +0.112 A 
ATOM     21  C   UNL     1       5.221  -3.344  23.239  0.00  0.00    +0.043 A 
ENDBRANCH  13  16
ENDBRANCH   1  12
BRANCH   1  22
ATOM     22  C   UNL     1      10.023  -0.562  24.551  0.00  0.00    +0.012 C 
ATOM     23  C   UNL     1       9.121  -0.359  25.776  0.00  0.00    +0.009 C 
ATOM     24  C   UNL     1      10.965   0.642  24.450  0.00  0.00    +0.009 C 
ENDBRANCH   1  22
TORSDOF 5
ENDMDL
MODEL 7
REMARK VINA RESULT:      -5.9      1.566      2.037
REMARK  Name = 
REMARK  7 active torsions:
REMARK  status: ('A' for Active; 'I' for Inactive)
REMARK    1  A    between atoms: C_2  and  N_3
REMARK    2  A    between atoms: C_2  and  C_12
REMARK    3  A    between atoms: C_2  and  C_15
REMARK    4  A    between atoms: C_4  and  C_6
REMARK    5  A    between atoms: C_12  and  C_13
REMARK    6  A    between atoms: C_12  and  C_14
REMARK    7  A    between atoms: N_17  and  C_18
REMARK                            x       y       z     vdW  Elec       q    Type
REMARK                         _______ _______ _______ _____ _____    ______ ____
ROOT
ATOM      1  C   UNL     1       8.429  -3.070  25.775  0.00  0.00    +0.162 C 
ENDROOT
BRANCH   1   2
ATOM      2  N   UNL     1       6.994  -3.366  25.882  0.00  0.00    -0.304 N 
ATOM      3  H   UNL     1       6.343  -2.713  25.463  0.00  0.00    +0.149 HD
ATOM      4  C   UNL     1       6.476  -4.185  26.871  0.00  0.00    +0.217 C 
ATOM      5  O   UNL     1       7.178  -4.715  27.727  0.00  0.00    -0.275 OA
BRANCH   4   6
ATOM      6  C   UNL     1       4.958  -4.352  26.779  0.00  0.00    +0.075 C 
ATOM      7  C   UNL     1       4.440  -5.507  27.649  0.00  0.00    +0.013 C 
ATOM      8  C   UNL     1       4.726  -6.884  27.055  0.00  0.00    +0.001 C 
ATOM      9  C   UNL     1       4.217  -6.997  25.623  0.00  0.00    +0.000 C 
ATOM     10  C   UNL     1       4.772  -5.887  24.739  0.00  0.00    +0.001 C 
ATOM     11  C   UNL     1       4.490  -4.502  25.322  0.00  0.00    +0.013 C 
ENDBRANCH   4   6
ENDBRANCH   1   2
BRANCH   1  12
ATOM     12  C   UNL     1       8.527  -1.598  25.311  0.00  0.00    +0.238 C 
ATOM     13  N   UNL     1       9.543  -1.377  24.382  0.00  0.00    -0.284 N 
ATOM     14  H   UNL     1      10.302  -2.049  24.394  0.00  0.00    +0.155 HD
ATOM     15  O   UNL     1       7.856  -0.708  25.827  0.00  0.00    -0.273 OA
BRANCH  13  16
ATOM     16  C   UNL     1       9.812  -0.119  23.808  0.00  0.00    +0.036 A 
ATOM     17  C   UNL     1      10.428   0.909  24.515  0.00  0.00    +0.043 A 
ATOM     18  C   UNL     1      10.673   2.100  23.852  0.00  0.00    +0.112 A 
ATOM     19  N   UNL     1      10.361   2.316  22.556  0.00  0.00    -0.263 NA
ATOM     20  C   UNL     1       9.760   1.304  21.900  0.00  0.00    +0.112 A 
ATOM     21  C   UNL     1       9.437   0.091  22.484  0.00  0.00    +0.043 A 
ENDBRANCH  13  16
ENDBRANCH   1  12
BRANCH   1  22
ATOM     22  C   UNL     1       9.137  -4.038  24.789  0.00  0.00    +0.012 C 
ATOM     23  C   UNL     1       8.151  -4.707  23.822  0.00  0.00    +0.009 C 
ATOM     24  C   UNL     1       9.909  -5.143  25.520  0.00  0.00    +0.009 C 
ENDBRANCH   1  22
TORSDOF 5
ENDMDL
MODEL 8
REMARK VINA RESULT:      -5.8      3.370      8.246
REMARK  Name = 
REMARK  7 active torsions:
REMARK  status: ('A' for Active; 'I' for Inactive)
REMARK    1  A    between atoms: C_2  and  N_3
REMARK    2  A    between atoms: C_2  and  C_12
REMARK    3  A    between atoms: C_2  and  C_15
REMARK    4  A    between atoms: C_4  and  C_6
REMARK    5  A    between atoms: C_12  and  C_13
REMARK    6  A    between atoms: C_12  and  C_14
REMARK    7  A    between atoms: N_17  and  C_18
REMARK                            x       y       z     vdW  Elec       q    Type
REMARK                         _______ _______ _______ _____ _____    ______ ____
ROOT
ATOM      1  C   UNL     1       7.652   1.034  22.472  0.00  0.00    +0.162 C 
ENDROOT
BRANCH   1   2
ATOM      2  N   UNL     1       7.710   2.183  23.386  0.00  0.00    -0.304 N 
ATOM      3  H   UNL     1       7.857   1.997  24.370  0.00  0.00    +0.149 HD
ATOM      4  C   UNL     1       7.137   3.405  23.079  0.00  0.00    +0.217 C 
ATOM      5  O   UNL     1       6.538   3.612  22.028  0.00  0.00    -0.275 OA
BRANCH   4   6
ATOM      6  C   UNL     1       7.328   4.451  24.179  0.00  0.00    +0.075 C 
ATOM      7  C   UNL     1       7.032   5.877  23.691  0.00  0.00    +0.013 C 
ATOM      8  C   UNL     1       8.138   6.456  22.813  0.00  0.00    +0.001 C 
ATOM      9  C   UNL     1       9.499   6.374  23.493  0.00  0.00    +0.000 C 
ATOM     10  C   UNL     1       9.826   4.951  23.928  0.00  0.00    +0.001 C 
ATOM     11  C   UNL     1       8.727   4.361  24.812  0.00  0.00    +0.013 C 
ENDBRANCH   4   6
ENDBRANCH   1   2
BRANCH   1  12
ATOM     12  C   UNL     1       7.503  -0.217  23.368  0.00  0.00    +0.238 C 
ATOM     13  N   UNL     1       6.486  -1.077  22.953  0.00  0.00    -0.284 N 
ATOM     14  H   UNL     1       5.753  -0.653  22.397  0.00  0.00    +0.155 HD
ATOM     15  O   UNL     1       8.136  -0.347  24.413  0.00  0.00    -0.273 OA
BRANCH  13  16
ATOM     16  C   UNL     1       6.175  -2.285  23.607  0.00  0.00    +0.036 A 
ATOM     17  C   UNL     1       5.210  -2.368  24.606  0.00  0.00    +0.043 A 
ATOM     18  C   UNL     1       4.959  -3.609  25.169  0.00  0.00    +0.112 A 
ATOM     19  N   UNL     1       5.586  -4.744  24.794  0.00  0.00    -0.263 NA
ATOM     20  C   UNL     1       6.520  -4.630  23.829  0.00  0.00    +0.112 A 
ATOM     21  C   UNL     1       6.871  -3.431  23.233  0.00  0.00    +0.043 A 
ENDBRANCH  13  16
ENDBRANCH   1  12
BRANCH   1  22
ATOM     22  C   UNL     1       8.918   0.958  21.574  0.00  0.00    +0.012 C 
ATOM     23  C   UNL     1       9.408  -0.483  21.382  0.00  0.00    +0.009 C 
ATOM     24  C   UNL     1      10.078   1.784  22.141  0.00  0.00    +0.009 C 
ENDBRANCH   1  22
TORSDOF 5
ENDMDL
MODEL 9
REMARK VINA RESULT:      -5.8      1.862      7.123
REMARK  Name = 
REMARK  7 active torsions:
REMARK  status: ('A' for Active; 'I' for Inactive)
REMARK    1  A    between atoms: C_2  and  N_3
REMARK    2  A    between atoms: C_2  and  C_12
REMARK    3  A    between atoms: C_2  and  C_15
REMARK    4  A    between atoms: C_4  and  C_6
REMARK    5  A    between atoms: C_12  and  C_13
REMARK    6  A    between atoms: C_12  and  C_14
REMARK    7  A    between atoms: N_17  and  C_18
REMARK                            x       y       z     vdW  Elec       q    Type
REMARK                         _______ _______ _______ _____ _____    ______ ____
ROOT
ATOM      1  C   UNL     1       6.689  -3.210  24.270  0.00  0.00    +0.162 C 
ENDROOT
BRANCH   1   2
ATOM      2  N   UNL     1       8.042  -2.701  24.008  0.00  0.00    -0.304 N 
ATOM      3  H   UNL     1       8.787  -3.377  23.888  0.00  0.00    +0.149 HD
ATOM      4  C   UNL     1       8.435  -1.422  24.362  0.00  0.00    +0.217 C 
ATOM      5  O   UNL     1       7.686  -0.629  24.922  0.00  0.00    -0.275 OA
BRANCH   4   6
ATOM      6  C   UNL     1       9.885  -1.114  23.984  0.00  0.00    +0.075 C 
ATOM      7  C   UNL     1      10.323   0.289  24.429  0.00  0.00    +0.013 C 
ATOM      8  C   UNL     1       9.756   1.404  23.555  0.00  0.00    +0.001 C 
ATOM      9  C   UNL     1      10.057   1.172  22.080  0.00  0.00    +0.000 C 
ATOM     10  C   UNL     1       9.573  -0.196  21.615  0.00  0.00    +0.001 C 
ATOM     11  C   UNL     1      10.138  -1.322  22.481  0.00  0.00    +0.013 C 
ENDBRANCH   4   6
ENDBRANCH   1   2
BRANCH   1  12
ATOM     12  C   UNL     1       6.791  -4.042  25.570  0.00  0.00    +0.238 C 
ATOM     13  N   UNL     1       5.553  -4.311  26.154  0.00  0.00    -0.284 N 
ATOM     14  H   UNL     1       4.808  -3.667  25.917  0.00  0.00    +0.155 HD
ATOM     15  O   UNL     1       7.872  -4.309  26.087  0.00  0.00    -0.273 OA
BRANCH  13  16
ATOM     16  C   UNL     1       5.398  -5.063  27.334  0.00  0.00    +0.036 A 
ATOM     17  C   UNL     1       5.405  -4.481  28.598  0.00  0.00    +0.043 A 
ATOM     18  C   UNL     1       5.217  -5.304  29.696  0.00  0.00    +0.112 A 
ATOM     19  N   UNL     1       5.013  -6.636  29.610  0.00  0.00    -0.263 NA
ATOM     20  C   UNL     1       5.018  -7.171  28.373  0.00  0.00    +0.112 A 
ATOM     21  C   UNL     1       5.237  -6.440  27.218  0.00  0.00    +0.043 A 
ENDBRANCH  13  16
ENDBRANCH   1  12
BRANCH   1  22
ATOM     22  C   UNL     1       6.159  -4.055  23.080  0.00  0.00    +0.012 C 
ATOM     23  C   UNL     1       7.170  -5.115  22.624  0.00  0.00    +0.009 C 
ATOM     24  C   UNL     1       5.802  -3.185  21.868  0.00  0.00    +0.009 C 
ENDBRANCH   1  22
TORSDOF 5
ENDMDL
