MODEL 1
REMARK VINA RESULT:      -8.1      0.000      0.000
REMARK  Name = 
REMARK  10 active torsions:
REMARK  status: ('A' for Active; 'I' for Inactive)
REMARK    1  A    between atoms: C_5  and  C_6
REMARK    2  A    between atoms: C_6  and  S_7
REMARK    3  A    between atoms: S_7  and  C_8
REMARK    4  A    between atoms: N_12  and  C_13
REMARK    5  A    between atoms: CA_14  and  C_32
REMARK    6  A    between atoms: CA_18  and  N_20
REMARK    7  A    between atoms: C_21  and  C_23
REMARK    8  A    between atoms: C_23  and  O_25
REMARK    9  A    between atoms: C_23  and  C_26
REMARK   10  A    between atoms: C_32  and  O_33
REMARK                            x       y       z     vdW  Elec       q    Type
REMARK                         _______ _______ _______ _____ _____    ______ ____
ROOT
ATOM      1  C   UNL     1       8.137  -1.507  25.569  0.00  0.00    +0.169 C 
ATOM      2  CA  UNL     1       9.455  -0.858  25.033  0.00  0.00    +0.191 C 
ATOM      3  C   UNL     1       9.538  -2.160  24.169  0.00  0.00    +0.244 C 
ATOM      4  O   UNL     1      10.293  -2.712  23.402  0.00  0.00    -0.273 OA
ATOM      5  N   UNL     1       8.280  -2.503  24.522  0.00  0.00    -0.249 N 
ATOM      6  CA  UNL     1       7.307  -3.381  24.119  0.00  0.00    +0.123 C 
ATOM      7  C   UNL     1       6.023  -3.204  24.553  0.00  0.00    -0.021 C 
ATOM      8  C   UNL     1       5.562  -2.007  25.378  0.00  0.00    +0.104 C 
ATOM      9  S   UNL     1       6.629  -0.557  25.264  0.00  0.00    -0.131 S 
ENDROOT
BRANCH   2  10
ATOM     10  N   UNL     1       9.277   0.399  24.267  0.00  0.00    -0.299 N 
ATOM     11  H   UNL     1       8.358   0.646  23.896  0.00  0.00    +0.150 HD
ATOM     12  C   UNL     1      10.280   1.295  23.979  0.00  0.00    +0.247 C 
ATOM     13  O   UNL     1      11.428   1.182  24.398  0.00  0.00    -0.273 OA
BRANCH  12  14
ATOM     14  C   UNL     1       9.804   2.440  23.057  0.00  0.00    +0.230 C 
BRANCH  14  15
ATOM     15  C   UNL     1      10.337   3.784  23.502  0.00  0.00    -0.010 A 
ATOM     16  C   UNL     1      11.665   4.169  23.252  0.00  0.00    +0.006 A 
ATOM     17  C   UNL     1      12.138   5.416  23.668  0.00  0.00    +0.000 A 
ATOM     18  C   UNL     1      11.292   6.290  24.344  0.00  0.00    +0.000 A 
ATOM     19  C   UNL     1       9.977   5.914  24.617  0.00  0.00    +0.000 A 
ATOM     20  C   UNL     1       9.503   4.668  24.203  0.00  0.00    +0.006 A 
ENDBRANCH  14  15
BRANCH  14  21
ATOM     21  O   UNL     1      10.222   2.185  21.707  0.00  0.00    -0.378 OA
ATOM     22  H   UNL     1       9.886   2.931  21.180  0.00  0.00    +0.211 HD
ENDBRANCH  14  21
ENDBRANCH  12  14
ENDBRANCH   2  10
BRANCH   6  23
ATOM     23  C   UNL     1       7.635  -4.491  23.137  0.00  0.00    +0.351 C 
ATOM     24  OXT UNL     1       7.274  -4.494  21.968  0.00  0.00    -0.244 OA
BRANCH  23  25
ATOM     25  O   UNL     1       8.311  -5.551  23.622  0.00  0.00    -0.476 OA
ATOM     26  H   UNL     1       8.096  -5.821  24.544  0.00  0.00    +0.295 HD
ENDBRANCH  23  25
ENDBRANCH   6  23
BRANCH   7  27
ATOM     27  C   UNL     1       4.819  -4.069  24.173  0.00  0.00    +0.111 C 
BRANCH  27  28
ATOM     28  S   UNL     1       4.725  -5.693  24.964  0.00  0.00    -0.080 S 
BRANCH  28  29
ATOM     29  C   UNL     1       5.756  -5.571  26.330  0.00  0.00    +0.209 A 
ATOM     30  N   UNL     1       5.355  -5.039  27.521  0.00  0.00    -0.223 N 
ATOM     31  C   UNL     1       4.098  -4.452  27.890  0.00  0.00    +0.177 C 
ATOM     32  N   UNL     1       6.362  -5.123  28.408  0.00  0.00    -0.043 NA
ATOM     33  N   UNL     1       7.363  -5.689  27.744  0.00  0.00    -0.022 NA
ATOM     34  N   UNL     1       7.001  -5.965  26.446  0.00  0.00    -0.102 NA
ENDBRANCH  28  29
ENDBRANCH  27  28
ENDBRANCH   7  27
TORSDOF 9
ENDMDL
MODEL 2
REMARK VINA RESULT:      -8.1      2.282      3.479
REMARK  Name = 
REMARK  10 active torsions:
REMARK  status: ('A' for Active; 'I' for Inactive)
REMARK    1  A    between atoms: C_5  and  C_6
REMARK    2  A    between atoms: C_6  and  S_7
REMARK    3  A    between atoms: S_7  and  C_8
REMARK    4  A    between atoms: N_12  and  C_13
REMARK    5  A    between atoms: CA_14  and  C_32
REMARK    6  A    between atoms: CA_18  and  N_20
REMARK    7  A    between atoms: C_21  and  C_23
REMARK    8  A    between atoms: C_23  and  O_25
REMARK    9  A    between atoms: C_23  and  C_26
REMARK   10  A    between atoms: C_32  and  O_33
REMARK                            x       y       z     vdW  Elec       q    Type
REMARK                         _______ _______ _______ _____ _____    ______ ____
ROOT
ATOM      1  C   UNL     1       7.501  -4.321  25.267  0.00  0.00    +0.169 C 
ATOM      2  CA  UNL     1       8.341  -4.195  23.954  0.00  0.00    +0.191 C 
ATOM      3  C   UNL     1       7.369  -5.305  23.432  0.00  0.00    +0.244 C 
ATOM      4  O   UNL     1       7.213  -6.014  22.465  0.00  0.00    -0.273 OA
ATOM      5  N   UNL     1       6.578  -5.155  24.517  0.00  0.00    -0.249 N 
ATOM      6  CA  UNL     1       5.318  -5.513  24.922  0.00  0.00    +0.123 C 
ATOM      7  C   UNL     1       4.760  -4.891  26.003  0.00  0.00    -0.021 C 
ATOM      8  C   UNL     1       5.406  -3.721  26.738  0.00  0.00    +0.104 C 
ATOM      9  S   UNL     1       6.638  -2.818  25.780  0.00  0.00    -0.131 S 
ENDROOT
BRANCH   2  10
ATOM     10  N   UNL     1       8.241  -2.888  23.260  0.00  0.00    -0.299 N 
ATOM     11  H   UNL     1       7.323  -2.491  23.048  0.00  0.00    +0.150 HD
ATOM     12  C   UNL     1       9.312  -2.135  22.838  0.00  0.00    +0.247 C 
ATOM     13  O   UNL     1      10.479  -2.436  23.065  0.00  0.00    -0.273 OA
BRANCH  12  14
ATOM     14  C   UNL     1       8.878  -0.888  22.035  0.00  0.00    +0.230 C 
BRANCH  14  15
ATOM     15  C   UNL     1       9.201   0.396  22.767  0.00  0.00    -0.010 A 
ATOM     16  C   UNL     1       8.709   0.653  24.058  0.00  0.00    +0.006 A 
ATOM     17  C   UNL     1       9.022   1.844  24.718  0.00  0.00    +0.000 A 
ATOM     18  C   UNL     1       9.822   2.796  24.093  0.00  0.00    +0.000 A 
ATOM     19  C   UNL     1      10.301   2.565  22.804  0.00  0.00    +0.000 A 
ATOM     20  C   UNL     1       9.990   1.375  22.143  0.00  0.00    +0.006 A 
ENDBRANCH  14  15
BRANCH  14  21
ATOM     21  O   UNL     1       9.528  -0.882  20.754  0.00  0.00    -0.378 OA
ATOM     22  H   UNL     1       8.881  -0.509  20.131  0.00  0.00    +0.211 HD
ENDBRANCH  14  21
ENDBRANCH  12  14
ENDBRANCH   2  10
BRANCH   6  23
ATOM     23  C   UNL     1       4.519  -6.532  24.130  0.00  0.00    +0.351 C 
ATOM     24  OXT UNL     1       4.284  -7.666  24.521  0.00  0.00    -0.244 OA
BRANCH  23  25
ATOM     25  O   UNL     1       4.108  -6.159  22.901  0.00  0.00    -0.476 OA
ATOM     26  H   UNL     1       4.204  -6.830  22.187  0.00  0.00    +0.295 HD
ENDBRANCH  23  25
ENDBRANCH   6  23
BRANCH   7  27
ATOM     27  C   UNL     1       3.359  -5.147  26.563  0.00  0.00    +0.111 C 
BRANCH  27  28
ATOM     28  S   UNL     1       3.197  -6.553  27.691  0.00  0.00    -0.080 S 
BRANCH  28  29
ATOM     29  C   UNL     1       4.694  -6.612  28.527  0.00  0.00    +0.209 A 
ATOM     30  N   UNL     1       4.994  -5.791  29.575  0.00  0.00    -0.223 N 
ATOM     31  C   UNL     1       4.226  -4.729  30.162  0.00  0.00    +0.177 C 
ATOM     32  N   UNL     1       6.211  -6.104  30.052  0.00  0.00    -0.043 NA
ATOM     33  N   UNL     1       6.641  -7.097  29.283  0.00  0.00    -0.022 NA
ATOM     34  N   UNL     1       5.708  -7.417  28.323  0.00  0.00    -0.102 NA
ENDBRANCH  28  29
ENDBRANCH  27  28
ENDBRANCH   7  27
TORSDOF 9
ENDMDL
MODEL 3
REMARK VINA RESULT:      -7.6      2.347      3.276
REMARK  Name = 
REMARK  10 active torsions:
REMARK  status: ('A' for Active; 'I' for Inactive)
REMARK    1  A    between atoms: C_5  and  C_6
REMARK    2  A    between atoms: C_6  and  S_7
REMARK    3  A    between atoms: S_7  and  C_8
REMARK    4  A    between atoms: N_12  and  C_13
REMARK    5  A    between atoms: CA_14  and  C_32
REMARK    6  A    between atoms: CA_18  and  N_20
REMARK    7  A    between atoms: C_21  and  C_23
REMARK    8  A    between atoms: C_23  and  O_25
REMARK    9  A    between atoms: C_23  and  C_26
REMARK   10  A    between atoms: C_32  and  O_33
REMARK                            x       y       z     vdW  Elec       q    Type
REMARK                         _______ _______ _______ _____ _____    ______ ____
ROOT
ATOM      1  C   UNL     1       8.408  -1.278  25.995  0.00  0.00    +0.169 C 
ATOM      2  CA  UNL     1       9.573  -1.003  24.988  0.00  0.00    +0.191 C 
ATOM      3  C   UNL     1       9.489  -2.545  24.739  0.00  0.00    +0.244 C 
ATOM      4  O   UNL     1      10.070  -3.415  24.132  0.00  0.00    -0.273 OA
ATOM      5  N   UNL     1       8.339  -2.620  25.444  0.00  0.00    -0.249 N 
ATOM      6  CA  UNL     1       7.315  -3.510  25.640  0.00  0.00    +0.123 C 
ATOM      7  C   UNL     1       6.151  -3.076  26.210  0.00  0.00    -0.021 C 
ATOM      8  C   UNL     1       5.859  -1.617  26.544  0.00  0.00    +0.104 C 
ATOM      9  S   UNL     1       6.857  -0.422  25.634  0.00  0.00    -0.131 S 
ENDROOT
BRANCH   2  10
ATOM     10  N   UNL     1       9.220  -0.153  23.826  0.00  0.00    -0.299 N 
ATOM     11  H   UNL     1       8.451  -0.424  23.209  0.00  0.00    +0.150 HD
ATOM     12  C   UNL     1       9.869   1.007  23.470  0.00  0.00    +0.247 C 
ATOM     13  O   UNL     1      10.773   1.505  24.134  0.00  0.00    -0.273 OA
BRANCH  12  14
ATOM     14  C   UNL     1       9.346   1.593  22.140  0.00  0.00    +0.230 C 
BRANCH  14  15
ATOM     15  C   UNL     1       8.154   2.501  22.351  0.00  0.00    -0.010 A 
ATOM     16  C   UNL     1       8.310   3.873  22.610  0.00  0.00    +0.006 A 
ATOM     17  C   UNL     1       7.197   4.696  22.798  0.00  0.00    +0.000 A 
ATOM     18  C   UNL     1       5.915   4.156  22.738  0.00  0.00    +0.000 A 
ATOM     19  C   UNL     1       5.745   2.792  22.501  0.00  0.00    +0.000 A 
ATOM     20  C   UNL     1       6.857   1.968  22.313  0.00  0.00    +0.006 A 
ENDBRANCH  14  15
BRANCH  14  21
ATOM     21  O   UNL     1      10.393   2.327  21.485  0.00  0.00    -0.378 OA
ATOM     22  H   UNL     1      10.461   1.950  20.590  0.00  0.00    +0.211 HD
ENDBRANCH  14  21
ENDBRANCH  12  14
ENDBRANCH   2  10
BRANCH   6  23
ATOM     23  C   UNL     1       7.442  -4.943  25.157  0.00  0.00    +0.351 C 
ATOM     24  OXT UNL     1       7.506  -5.910  25.904  0.00  0.00    -0.244 OA
BRANCH  23  25
ATOM     25  O   UNL     1       7.550  -5.128  23.827  0.00  0.00    -0.476 OA
ATOM     26  H   UNL     1       7.701  -6.053  23.525  0.00  0.00    +0.295 HD
ENDBRANCH  23  25
ENDBRANCH   6  23
BRANCH   7  27
ATOM     27  C   UNL     1       4.906  -3.928  26.468  0.00  0.00    +0.111 C 
BRANCH  27  28
ATOM     28  S   UNL     1       3.589  -3.808  25.233  0.00  0.00    -0.080 S 
BRANCH  28  29
ATOM     29  C   UNL     1       4.329  -4.291  23.762  0.00  0.00    +0.209 A 
ATOM     30  N   UNL     1       4.332  -5.582  23.320  0.00  0.00    -0.223 N 
ATOM     31  C   UNL     1       3.811  -6.769  23.937  0.00  0.00    +0.177 C 
ATOM     32  N   UNL     1       4.942  -5.641  22.123  0.00  0.00    -0.043 NA
ATOM     33  N   UNL     1       5.313  -4.393  21.860  0.00  0.00    -0.022 NA
ATOM     34  N   UNL     1       4.943  -3.544  22.878  0.00  0.00    -0.102 NA
ENDBRANCH  28  29
ENDBRANCH  27  28
ENDBRANCH   7  27
TORSDOF 9
ENDMDL
MODEL 4
REMARK VINA RESULT:      -7.5      2.381      3.427
REMARK  Name = 
REMARK  10 active torsions:
REMARK  status: ('A' for Active; 'I' for Inactive)
REMARK    1  A    between atoms: C_5  and  C_6
REMARK    2  A    between atoms: C_6  and  S_7
REMARK    3  A    between atoms: S_7  and  C_8
REMARK    4  A    between atoms: N_12  and  C_13
REMARK    5  A    between atoms: CA_14  and  C_32
REMARK    6  A    between atoms: CA_18  and  N_20
REMARK    7  A    between atoms: C_21  and  C_23
REMARK    8  A    between atoms: C_23  and  O_25
REMARK    9  A    between atoms: C_23  and  C_26
REMARK   10  A    between atoms: C_32  and  O_33
REMARK                            x       y       z     vdW  Elec       q    Type
REMARK                         _______ _______ _______ _____ _____    ______ ____
ROOT
ATOM      1  C   UNL     1       8.901  -4.225  24.682  0.00  0.00    +0.169 C 
ATOM      2  CA  UNL     1       9.272  -2.990  23.798  0.00  0.00    +0.191 C 
ATOM      3  C   UNL     1       7.949  -3.351  23.045  0.00  0.00    +0.244 C 
ATOM      4  O   UNL     1       7.323  -3.014  22.067  0.00  0.00    -0.273 OA
ATOM      5  N   UNL     1       7.614  -4.235  24.009  0.00  0.00    -0.249 N 
ATOM      6  CA  UNL     1       6.507  -4.936  24.415  0.00  0.00    +0.123 C 
ATOM      7  C   UNL     1       6.496  -5.510  25.656  0.00  0.00    -0.021 C 
ATOM      8  C   UNL     1       7.604  -5.327  26.687  0.00  0.00    +0.104 C 
ATOM      9  S   UNL     1       8.635  -3.869  26.435  0.00  0.00    -0.131 S 
ENDROOT
BRANCH   2  10
ATOM     10  N   UNL     1       9.265  -1.683  24.499  0.00  0.00    -0.299 N 
ATOM     11  H   UNL     1       8.755  -1.577  25.378  0.00  0.00    +0.150 HD
ATOM     12  C   UNL     1       9.891  -0.544  24.049  0.00  0.00    +0.247 C 
ATOM     13  O   UNL     1      10.595  -0.512  23.045  0.00  0.00    -0.273 OA
BRANCH  12  14
ATOM     14  C   UNL     1       9.592   0.684  24.937  0.00  0.00    +0.230 C 
BRANCH  14  15
ATOM     15  C   UNL     1       8.897   1.785  24.165  0.00  0.00    -0.010 A 
ATOM     16  C   UNL     1       9.343   3.116  24.216  0.00  0.00    +0.006 A 
ATOM     17  C   UNL     1       8.690   4.117  23.493  0.00  0.00    +0.000 A 
ATOM     18  C   UNL     1       7.578   3.802  22.718  0.00  0.00    +0.000 A 
ATOM     19  C   UNL     1       7.111   2.489  22.673  0.00  0.00    +0.000 A 
ATOM     20  C   UNL     1       7.762   1.487  23.395  0.00  0.00    +0.006 A 
ENDBRANCH  14  15
BRANCH  14  21
ATOM     21  O   UNL     1       8.772   0.294  26.050  0.00  0.00    -0.378 OA
ATOM     22  H   UNL     1       9.382   0.174  26.799  0.00  0.00    +0.211 HD
ENDBRANCH  14  21
ENDBRANCH  12  14
ENDBRANCH   2  10
BRANCH   6  23
ATOM     23  C   UNL     1       5.276  -5.005  23.531  0.00  0.00    +0.351 C 
ATOM     24  OXT UNL     1       4.965  -5.987  22.872  0.00  0.00    -0.244 OA
BRANCH  23  25
ATOM     25  O   UNL     1       4.533  -3.884  23.436  0.00  0.00    -0.476 OA
ATOM     26  H   UNL     1       4.409  -3.518  22.531  0.00  0.00    +0.295 HD
ENDBRANCH  23  25
ENDBRANCH   6  23
BRANCH   7  27
ATOM     27  C   UNL     1       5.335  -6.293  26.272  0.00  0.00    +0.111 C 
BRANCH  27  28
ATOM     28  S   UNL     1       4.360  -5.420  27.521  0.00  0.00    -0.080 S 
BRANCH  28  29
ATOM     29  C   UNL     1       3.610  -4.136  26.665  0.00  0.00    +0.209 A 
ATOM     30  N   UNL     1       4.104  -2.864  26.648  0.00  0.00    -0.223 N 
ATOM     31  C   UNL     1       5.244  -2.310  27.321  0.00  0.00    +0.177 C 
ATOM     32  N   UNL     1       3.332  -2.097  25.859  0.00  0.00    -0.043 NA
ATOM     33  N   UNL     1       2.374  -2.905  25.419  0.00  0.00    -0.022 NA
ATOM     34  N   UNL     1       2.532  -4.177  25.921  0.00  0.00    -0.102 NA
ENDBRANCH  28  29
ENDBRANCH  27  28
ENDBRANCH   7  27
TORSDOF 9
ENDMDL
MODEL 5
REMARK VINA RESULT:      -7.2      2.437      2.909
REMARK  Name = 
REMARK  10 active torsions:
REMARK  status: ('A' for Active; 'I' for Inactive)
REMARK    1  A    between atoms: C_5  and  C_6
REMARK    2  A    between atoms: C_6  and  S_7
REMARK    3  A    between atoms: S_7  and  C_8
REMARK    4  A    between atoms: N_12  and  C_13
REMARK    5  A    between atoms: CA_14  and  C_32
REMARK    6  A    between atoms: CA_18  and  N_20
REMARK    7  A    between atoms: C_21  and  C_23
REMARK    8  A    between atoms: C_23  and  O_25
REMARK    9  A    between atoms: C_23  and  C_26
REMARK   10  A    between atoms: C_32  and  O_33
REMARK                            x       y       z     vdW  Elec       q    Type
REMARK                         _______ _______ _______ _____ _____    ______ ____
ROOT
ATOM      1  C   UNL     1       8.149  -1.797  25.856  0.00  0.00    +0.169 C 
ATOM      2  CA  UNL     1       9.166  -0.934  25.040  0.00  0.00    +0.191 C 
ATOM      3  C   UNL     1       9.542  -2.307  24.391  0.00  0.00    +0.244 C 
ATOM      4  O   UNL     1      10.349  -2.773  23.620  0.00  0.00    -0.273 OA
ATOM      5  N   UNL     1       8.476  -2.900  24.970  0.00  0.00    -0.249 N 
ATOM      6  CA  UNL     1       7.767  -4.068  24.856  0.00  0.00    +0.123 C 
ATOM      7  C   UNL     1       6.533  -4.162  25.437  0.00  0.00    -0.021 C 
ATOM      8  C   UNL     1       5.824  -2.997  26.120  0.00  0.00    +0.104 C 
ATOM      9  S   UNL     1       6.409  -1.365  25.625  0.00  0.00    -0.131 S 
ENDROOT
BRANCH   2  10
ATOM     10  N   UNL     1       8.560   0.058  24.118  0.00  0.00    -0.299 N 
ATOM     11  H   UNL     1       7.574   0.308  24.214  0.00  0.00    +0.150 HD
ATOM     12  C   UNL     1       9.223   0.685  23.089  0.00  0.00    +0.247 C 
ATOM     13  O   UNL     1      10.422   0.543  22.873  0.00  0.00    -0.273 OA
BRANCH  12  14
ATOM     14  C   UNL     1       8.286   1.565  22.232  0.00  0.00    +0.230 C 
BRANCH  14  15
ATOM     15  C   UNL     1       8.323   3.016  22.660  0.00  0.00    -0.010 A 
ATOM     16  C   UNL     1       9.311   3.501  23.534  0.00  0.00    +0.006 A 
ATOM     17  C   UNL     1       9.330   4.845  23.915  0.00  0.00    +0.000 A 
ATOM     18  C   UNL     1       8.359   5.718  23.434  0.00  0.00    +0.000 A 
ATOM     19  C   UNL     1       7.360   5.247  22.582  0.00  0.00    +0.000 A 
ATOM     20  C   UNL     1       7.339   3.904  22.201  0.00  0.00    +0.006 A 
ENDBRANCH  14  15
BRANCH  14  21
ATOM     21  O   UNL     1       8.656   1.468  20.848  0.00  0.00    -0.378 OA
ATOM     22  H   UNL     1       9.624   1.373  20.838  0.00  0.00    +0.211 HD
ENDBRANCH  14  21
ENDBRANCH  12  14
ENDBRANCH   2  10
BRANCH   6  23
ATOM     23  C   UNL     1       8.309  -5.216  24.025  0.00  0.00    +0.351 C 
ATOM     24  OXT UNL     1       7.759  -5.651  23.023  0.00  0.00    -0.244 OA
BRANCH  23  25
ATOM     25  O   UNL     1       9.430  -5.814  24.474  0.00  0.00    -0.476 OA
ATOM     26  H   UNL     1       9.469  -6.794  24.385  0.00  0.00    +0.295 HD
ENDBRANCH  23  25
ENDBRANCH   6  23
BRANCH   7  27
ATOM     27  C   UNL     1       5.602  -5.375  25.376  0.00  0.00    +0.111 C 
BRANCH  27  28
ATOM     28  S   UNL     1       3.870  -5.030  24.985  0.00  0.00    -0.080 S 
BRANCH  28  29
ATOM     29  C   UNL     1       3.190  -6.567  24.639  0.00  0.00    +0.209 A 
ATOM     30  N   UNL     1       2.199  -6.753  23.720  0.00  0.00    -0.223 N 
ATOM     31  C   UNL     1       1.496  -5.794  22.915  0.00  0.00    +0.177 C 
ATOM     32  N   UNL     1       1.909  -8.064  23.636  0.00  0.00    -0.043 NA
ATOM     33  N   UNL     1       2.715  -8.654  24.511  0.00  0.00    -0.022 NA
ATOM     34  N   UNL     1       3.512  -7.731  25.149  0.00  0.00    -0.102 NA
ENDBRANCH  28  29
ENDBRANCH  27  28
ENDBRANCH   7  27
TORSDOF 9
ENDMDL
MODEL 6
REMARK VINA RESULT:      -7.1      1.736      2.162
REMARK  Name = 
REMARK  10 active torsions:
REMARK  status: ('A' for Active; 'I' for Inactive)
REMARK    1  A    between atoms: C_5  and  C_6
REMARK    2  A    between atoms: C_6  and  S_7
REMARK    3  A    between atoms: S_7  and  C_8
REMARK    4  A    between atoms: N_12  and  C_13
REMARK    5  A    between atoms: CA_14  and  C_32
REMARK    6  A    between atoms: CA_18  and  N_20
REMARK    7  A    between atoms: C_21  and  C_23
REMARK    8  A    between atoms: C_23  and  O_25
REMARK    9  A    between atoms: C_23  and  C_26
REMARK   10  A    between atoms: C_32  and  O_33
REMARK                            x       y       z     vdW  Elec       q    Type
REMARK                         _______ _______ _______ _____ _____    ______ ____
ROOT
ATOM      1  C   UNL     1       9.412  -1.785  24.745  0.00  0.00    +0.169 C 
ATOM      2  CA  UNL     1       9.672  -0.671  23.679  0.00  0.00    +0.191 C 
ATOM      3  C   UNL     1       9.180  -1.764  22.673  0.00  0.00    +0.244 C 
ATOM      4  O   UNL     1       9.068  -1.938  21.481  0.00  0.00    -0.273 OA
ATOM      5  N   UNL     1       8.771  -2.551  23.691  0.00  0.00    -0.249 N 
ATOM      6  CA  UNL     1       7.984  -3.659  23.876  0.00  0.00    +0.123 C 
ATOM      7  C   UNL     1       7.564  -3.979  25.137  0.00  0.00    -0.021 C 
ATOM      8  C   UNL     1       7.817  -3.109  26.364  0.00  0.00    +0.104 C 
ATOM      9  S   UNL     1       8.175  -1.379  26.000  0.00  0.00    -0.131 S 
ENDROOT
BRANCH   2  10
ATOM     10  N   UNL     1       8.804   0.526  23.787  0.00  0.00    -0.299 N 
ATOM     11  H   UNL     1       8.224   0.663  24.617  0.00  0.00    +0.150 HD
ATOM     12  C   UNL     1       8.683   1.503  22.826  0.00  0.00    +0.247 C 
ATOM     13  O   UNL     1       9.351   1.522  21.797  0.00  0.00    -0.273 OA
BRANCH  12  14
ATOM     14  C   UNL     1       7.605   2.551  23.180  0.00  0.00    +0.230 C 
BRANCH  14  15
ATOM     15  C   UNL     1       8.183   3.946  23.280  0.00  0.00    -0.010 A 
ATOM     16  C   UNL     1       9.333   4.214  24.042  0.00  0.00    +0.006 A 
ATOM     17  C   UNL     1       9.853   5.508  24.119  0.00  0.00    +0.000 A 
ATOM     18  C   UNL     1       9.226   6.551  23.443  0.00  0.00    +0.000 A 
ATOM     19  C   UNL     1       8.073   6.304  22.699  0.00  0.00    +0.000 A 
ATOM     20  C   UNL     1       7.552   5.011  22.621  0.00  0.00    +0.006 A 
ENDBRANCH  14  15
BRANCH  14  21
ATOM     21  O   UNL     1       6.567   2.537  22.188  0.00  0.00    -0.378 OA
ATOM     22  H   UNL     1       6.193   1.639  22.208  0.00  0.00    +0.211 HD
ENDBRANCH  14  21
ENDBRANCH  12  14
ENDBRANCH   2  10
BRANCH   6  23
ATOM     23  C   UNL     1       7.517  -4.476  22.685  0.00  0.00    +0.351 C 
ATOM     24  OXT UNL     1       7.951  -5.585  22.408  0.00  0.00    -0.244 OA
BRANCH  23  25
ATOM     25  O   UNL     1       6.616  -3.896  21.868  0.00  0.00    -0.476 OA
ATOM     26  H   UNL     1       5.766  -4.376  21.743  0.00  0.00    +0.295 HD
ENDBRANCH  23  25
ENDBRANCH   6  23
BRANCH   7  27
ATOM     27  C   UNL     1       6.660  -5.155  25.511  0.00  0.00    +0.111 C 
BRANCH  27  28
ATOM     28  S   UNL     1       5.361  -4.808  26.722  0.00  0.00    -0.080 S 
BRANCH  28  29
ATOM     29  C   UNL     1       5.785  -5.748  28.093  0.00  0.00    +0.209 A 
ATOM     30  N   UNL     1       4.904  -6.048  29.091  0.00  0.00    -0.223 N 
ATOM     31  C   UNL     1       3.536  -5.649  29.263  0.00  0.00    +0.177 C 
ATOM     32  N   UNL     1       5.510  -6.834  29.998  0.00  0.00    -0.043 NA
ATOM     33  N   UNL     1       6.750  -6.989  29.550  0.00  0.00    -0.022 NA
ATOM     34  N   UNL     1       6.937  -6.311  28.367  0.00  0.00    -0.102 NA
ENDBRANCH  28  29
ENDBRANCH  27  28
ENDBRANCH   7  27
TORSDOF 9
ENDMDL
MODEL 7
REMARK VINA RESULT:      -7.0      3.053      9.151
REMARK  Name = 
REMARK  10 active torsions:
REMARK  status: ('A' for Active; 'I' for Inactive)
REMARK    1  A    between atoms: C_5  and  C_6
REMARK    2  A    between atoms: C_6  and  S_7
REMARK    3  A    between atoms: S_7  and  C_8
REMARK    4  A    between atoms: N_12  and  C_13
REMARK    5  A    between atoms: CA_14  and  C_32
REMARK    6  A    between atoms: CA_18  and  N_20
REMARK    7  A    between atoms: C_21  and  C_23
REMARK    8  A    between atoms: C_23  and  O_25
REMARK    9  A    between atoms: C_23  and  C_26
REMARK   10  A    between atoms: C_32  and  O_33
REMARK                            x       y       z     vdW  Elec       q    Type
REMARK                         _______ _______ _______ _____ _____    ______ ____
ROOT
ATOM      1  C   UNL     1       9.294  -2.953  24.037  0.00  0.00    +0.169 C 
ATOM      2  CA  UNL     1       8.423  -4.194  24.421  0.00  0.00    +0.191 C 
ATOM      3  C   UNL     1       8.221  -3.416  25.764  0.00  0.00    +0.244 C 
ATOM      4  O   UNL     1       7.719  -3.572  26.853  0.00  0.00    -0.273 OA
ATOM      5  N   UNL     1       8.787  -2.310  25.236  0.00  0.00    -0.249 N 
ATOM      6  CA  UNL     1       8.892  -0.974  25.530  0.00  0.00    +0.123 C 
ATOM      7  C   UNL     1       9.304  -0.106  24.559  0.00  0.00    -0.021 C 
ATOM      8  C   UNL     1       9.549  -0.506  23.108  0.00  0.00    +0.104 C 
ATOM      9  S   UNL     1       8.722  -2.024  22.595  0.00  0.00    -0.131 S 
ENDROOT
BRANCH   2  10
ATOM     10  N   UNL     1       7.198  -4.385  23.609  0.00  0.00    -0.299 N 
ATOM     11  H   UNL     1       6.400  -3.759  23.733  0.00  0.00    +0.150 HD
ATOM     12  C   UNL     1       7.016  -5.381  22.677  0.00  0.00    +0.247 C 
ATOM     13  O   UNL     1       7.894  -6.179  22.364  0.00  0.00    -0.273 OA
BRANCH  12  14
ATOM     14  C   UNL     1       5.587  -5.390  22.092  0.00  0.00    +0.230 C 
BRANCH  14  15
ATOM     15  C   UNL     1       4.564  -5.860  23.103  0.00  0.00    -0.010 A 
ATOM     16  C   UNL     1       4.895  -6.778  24.114  0.00  0.00    +0.006 A 
ATOM     17  C   UNL     1       3.937  -7.198  25.040  0.00  0.00    +0.000 A 
ATOM     18  C   UNL     1       2.636  -6.712  24.962  0.00  0.00    +0.000 A 
ATOM     19  C   UNL     1       2.286  -5.816  23.953  0.00  0.00    +0.000 A 
ATOM     20  C   UNL     1       3.243  -5.395  23.026  0.00  0.00    +0.006 A 
ENDBRANCH  14  15
BRANCH  14  21
ATOM     21  O   UNL     1       5.237  -4.072  21.639  0.00  0.00    -0.378 OA
ATOM     22  H   UNL     1       5.615  -3.458  22.292  0.00  0.00    +0.211 HD
ENDBRANCH  14  21
ENDBRANCH  12  14
ENDBRANCH   2  10
BRANCH   6  23
ATOM     23  C   UNL     1       8.479  -0.455  26.895  0.00  0.00    +0.351 C 
ATOM     24  OXT UNL     1       7.368  -0.009  27.145  0.00  0.00    -0.244 OA
BRANCH  23  25
ATOM     25  O   UNL     1       9.428  -0.438  27.851  0.00  0.00    -0.476 OA
ATOM     26  H   UNL     1       9.436  -1.201  28.473  0.00  0.00    +0.295 HD
ENDBRANCH  23  25
ENDBRANCH   6  23
BRANCH   7  27
ATOM     27  C   UNL     1       9.443   1.411  24.711  0.00  0.00    +0.111 C 
BRANCH  27  28
ATOM     28  S   UNL     1       9.264   2.383  23.195  0.00  0.00    -0.080 S 
BRANCH  28  29
ATOM     29  C   UNL     1      10.242   3.769  23.452  0.00  0.00    +0.209 A 
ATOM     30  N   UNL     1       9.748   4.952  23.918  0.00  0.00    -0.223 N 
ATOM     31  C   UNL     1       8.399   5.326  24.236  0.00  0.00    +0.177 C 
ATOM     32  N   UNL     1      10.757   5.830  24.061  0.00  0.00    -0.043 NA
ATOM     33  N   UNL     1      11.844   5.177  23.668  0.00  0.00    -0.022 NA
ATOM     34  N   UNL     1      11.536   3.894  23.279  0.00  0.00    -0.102 NA
ENDBRANCH  28  29
ENDBRANCH  27  28
ENDBRANCH   7  27
TORSDOF 9
ENDMDL
MODEL 8
REMARK VINA RESULT:      -7.0      3.063      8.822
REMARK  Name = 
REMARK  10 active torsions:
REMARK  status: ('A' for Active; 'I' for Inactive)
REMARK    1  A    between atoms: C_5  and  C_6
REMARK    2  A    between atoms: C_6  and  S_7
REMARK    3  A    between atoms: S_7  and  C_8
REMARK    4  A    between atoms: N_12  and  C_13
REMARK    5  A    between atoms: CA_14  and  C_32
REMARK    6  A    between atoms: CA_18  and  N_20
REMARK    7  A    between atoms: C_21  and  C_23
REMARK    8  A    between atoms: C_23  and  O_25
REMARK    9  A    between atoms: C_23  and  C_26
REMARK   10  A    between atoms: C_32  and  O_33
REMARK                            x       y       z     vdW  Elec       q    Type
REMARK                         _______ _______ _______ _____ _____    ______ ____
ROOT
ATOM      1  C   UNL     1       9.319  -2.972  24.053  0.00  0.00    +0.169 C 
ATOM      2  CA  UNL     1       8.467  -4.233  24.414  0.00  0.00    +0.191 C 
ATOM      3  C   UNL     1       8.236  -3.475  25.763  0.00  0.00    +0.244 C 
ATOM      4  O   UNL     1       7.725  -3.652  26.845  0.00  0.00    -0.273 OA
ATOM      5  N   UNL     1       8.787  -2.352  25.254  0.00  0.00    -0.249 N 
ATOM      6  CA  UNL     1       8.865  -1.018  25.564  0.00  0.00    +0.123 C 
ATOM      7  C   UNL     1       9.271  -0.131  24.607  0.00  0.00    -0.021 C 
ATOM      8  C   UNL     1       9.539  -0.510  23.155  0.00  0.00    +0.104 C 
ATOM      9  S   UNL     1       8.745  -2.037  22.616  0.00  0.00    -0.131 S 
ENDROOT
BRANCH   2  10
ATOM     10  N   UNL     1       7.254  -4.437  23.586  0.00  0.00    -0.299 N 
ATOM     11  H   UNL     1       6.452  -3.812  23.692  0.00  0.00    +0.150 HD
ATOM     12  C   UNL     1       7.089  -5.443  22.662  0.00  0.00    +0.247 C 
ATOM     13  O   UNL     1       7.974  -6.241  22.370  0.00  0.00    -0.273 OA
BRANCH  12  14
ATOM     14  C   UNL     1       5.668  -5.463  22.057  0.00  0.00    +0.230 C 
BRANCH  14  15
ATOM     15  C   UNL     1       4.612  -5.754  23.101  0.00  0.00    -0.010 A 
ATOM     16  C   UNL     1       3.480  -4.935  23.252  0.00  0.00    +0.006 A 
ATOM     17  C   UNL     1       2.515  -5.223  24.220  0.00  0.00    +0.000 A 
ATOM     18  C   UNL     1       2.672  -6.327  25.052  0.00  0.00    +0.000 A 
ATOM     19  C   UNL     1       3.799  -7.138  24.927  0.00  0.00    +0.000 A 
ATOM     20  C   UNL     1       4.766  -6.852  23.961  0.00  0.00    +0.006 A 
ENDBRANCH  14  15
BRANCH  14  21
ATOM     21  O   UNL     1       5.385  -4.200  21.434  0.00  0.00    -0.378 OA
ATOM     22  H   UNL     1       5.995  -4.135  20.678  0.00  0.00    +0.211 HD
ENDBRANCH  14  21
ENDBRANCH  12  14
ENDBRANCH   2  10
BRANCH   6  23
ATOM     23  C   UNL     1       8.428  -0.522  26.930  0.00  0.00    +0.351 C 
ATOM     24  OXT UNL     1       7.283  -0.184  27.197  0.00  0.00    -0.244 OA
BRANCH  23  25
ATOM     25  O   UNL     1       9.388  -0.397  27.867  0.00  0.00    -0.476 OA
ATOM     26  H   UNL     1       9.173  -0.744  28.763  0.00  0.00    +0.295 HD
ENDBRANCH  23  25
ENDBRANCH   6  23
BRANCH   7  27
ATOM     27  C   UNL     1       9.380   1.386  24.778  0.00  0.00    +0.111 C 
BRANCH  27  28
ATOM     28  S   UNL     1       7.860   2.329  24.507  0.00  0.00    -0.080 S 
BRANCH  28  29
ATOM     29  C   UNL     1       7.977   3.658  25.586  0.00  0.00    +0.209 A 
ATOM     30  N   UNL     1       8.678   4.792  25.297  0.00  0.00    -0.223 N 
ATOM     31  C   UNL     1       9.469   5.118  24.144  0.00  0.00    +0.177 C 
ATOM     32  N   UNL     1       8.547   5.668  26.309  0.00  0.00    -0.043 NA
ATOM     33  N   UNL     1       7.782   5.052  27.203  0.00  0.00    -0.022 NA
ATOM     34  N   UNL     1       7.427   3.795  26.768  0.00  0.00    -0.102 NA
ENDBRANCH  28  29
ENDBRANCH  27  28
ENDBRANCH   7  27
TORSDOF 9
ENDMDL
MODEL 9
REMARK VINA RESULT:      -6.9      3.213      4.297
REMARK  Name = 
REMARK  10 active torsions:
REMARK  status: ('A' for Active; 'I' for Inactive)
REMARK    1  A    between atoms: C_5  and  C_6
REMARK    2  A    between atoms: C_6  and  S_7
REMARK    3  A    between atoms: S_7  and  C_8
REMARK    4  A    between atoms: N_12  and  C_13
REMARK    5  A    between atoms: CA_14  and  C_32
REMARK    6  A    between atoms: CA_18  and  N_20
REMARK    7  A    between atoms: C_21  and  C_23
REMARK    8  A    between atoms: C_23  and  O_25
REMARK    9  A    between atoms: C_23  and  C_26
REMARK   10  A    between atoms: C_32  and  O_33
REMARK                            x       y       z     vdW  Elec       q    Type
REMARK                         _______ _______ _______ _____ _____    ______ ____
ROOT
ATOM      1  C   UNL     1       8.324   0.480  25.384  0.00  0.00    +0.169 C 
ATOM      2  CA  UNL     1       9.072   1.384  24.349  0.00  0.00    +0.191 C 
ATOM      3  C   UNL     1       9.487   0.015  23.716  0.00  0.00    +0.244 C 
ATOM      4  O   UNL     1      10.194  -0.418  22.836  0.00  0.00    -0.273 OA
ATOM      5  N   UNL     1       8.618  -0.644  24.513  0.00  0.00    -0.249 N 
ATOM      6  CA  UNL     1       8.042  -1.886  24.593  0.00  0.00    +0.123 C 
ATOM      7  C   UNL     1       6.950  -2.068  25.395  0.00  0.00    -0.021 C 
ATOM      8  C   UNL     1       6.241  -0.938  26.134  0.00  0.00    +0.104 C 
ATOM      9  S   UNL     1       6.532   0.707  25.454  0.00  0.00    -0.131 S 
ENDROOT
BRANCH   2  10
ATOM     10  N   UNL     1       8.200   2.235  23.504  0.00  0.00    -0.299 N 
ATOM     11  H   UNL     1       7.398   1.825  23.023  0.00  0.00    +0.150 HD
ATOM     12  C   UNL     1       8.389   3.579  23.279  0.00  0.00    +0.247 C 
ATOM     13  O   UNL     1       9.268   4.237  23.826  0.00  0.00    -0.273 OA
BRANCH  12  14
ATOM     14  C   UNL     1       7.388   4.153  22.253  0.00  0.00    +0.230 C 
BRANCH  14  15
ATOM     15  C   UNL     1       5.982   4.220  22.809  0.00  0.00    -0.010 A 
ATOM     16  C   UNL     1       4.993   3.299  22.425  0.00  0.00    +0.006 A 
ATOM     17  C   UNL     1       3.702   3.375  22.952  0.00  0.00    +0.000 A 
ATOM     18  C   UNL     1       3.381   4.377  23.863  0.00  0.00    +0.000 A 
ATOM     19  C   UNL     1       4.346   5.311  24.239  0.00  0.00    +0.000 A 
ATOM     20  C   UNL     1       5.637   5.236  23.713  0.00  0.00    +0.006 A 
ENDBRANCH  14  15
BRANCH  14  21
ATOM     21  O   UNL     1       7.802   5.468  21.849  0.00  0.00    -0.378 OA
ATOM     22  H   UNL     1       8.542   5.704  22.435  0.00  0.00    +0.211 HD
ENDBRANCH  14  21
ENDBRANCH  12  14
ENDBRANCH   2  10
BRANCH   6  23
ATOM     23  C   UNL     1       8.560  -3.028  23.738  0.00  0.00    +0.351 C 
ATOM     24  OXT UNL     1       9.274  -3.926  24.162  0.00  0.00    -0.244 OA
BRANCH  23  25
ATOM     25  O   UNL     1       8.253  -2.993  22.427  0.00  0.00    -0.476 OA
ATOM     26  H   UNL     1       7.323  -2.760  22.202  0.00  0.00    +0.295 HD
ENDBRANCH  23  25
ENDBRANCH   6  23
BRANCH   7  27
ATOM     27  C   UNL     1       6.173  -3.374  25.571  0.00  0.00    +0.111 C 
BRANCH  27  28
ATOM     28  S   UNL     1       4.646  -3.528  24.612  0.00  0.00    -0.080 S 
BRANCH  28  29
ATOM     29  C   UNL     1       5.171  -3.886  23.018  0.00  0.00    +0.209 A 
ATOM     30  N   UNL     1       5.462  -5.151  22.596  0.00  0.00    -0.223 N 
ATOM     31  C   UNL     1       5.456  -6.389  23.324  0.00  0.00    +0.177 C 
ATOM     32  N   UNL     1       5.798  -5.121  21.295  0.00  0.00    -0.043 NA
ATOM     33  N   UNL     1       5.720  -3.842  20.946  0.00  0.00    -0.022 NA
ATOM     34  N   UNL     1       5.339  -3.061  22.013  0.00  0.00    -0.102 NA
ENDBRANCH  28  29
ENDBRANCH  27  28
ENDBRANCH   7  27
TORSDOF 9
ENDMDL
