MODEL 1
REMARK VINA RESULT:      -6.9      0.000      0.000
REMARK  Name = 
REMARK  6 active torsions:
REMARK  status: ('A' for Active; 'I' for Inactive)
REMARK    1  A    between atoms: C_2  and  C_3
REMARK    2  A    between atoms: N_5  and  C_6
REMARK    3  A    between atoms: C_12  and  C_13
REMARK    4  A    between atoms: C_13  and  O_14
REMARK    5  A    between atoms: C_15  and  C_18
REMARK    6  A    between atoms: N_16  and  C_17
REMARK                            x       y       z     vdW  Elec       q    Type
REMARK                         _______ _______ _______ _____ _____    ______ ____
ROOT
ATOM      1  C   UNL     1       9.168  -1.982  24.799  0.00  0.00    +0.082 C 
ATOM      2  C   UNL     1       9.679  -0.927  23.815  0.00  0.00    +0.210 C 
ATOM      3  O   UNL     1      10.422  -1.199  22.881  0.00  0.00    -0.285 OA
ATOM      4  C   UNL     1       9.192   0.424  24.069  0.00  0.00    +0.058 A 
ATOM      5  C   UNL     1       9.275   1.619  23.278  0.00  0.00    +0.015 A 
ATOM      6  C   UNL     1       8.582   2.633  23.963  0.00  0.00    +0.055 A 
ATOM      7  N   UNL     1       8.166   2.080  25.175  0.00  0.00    -0.340 N 
ATOM      8  C   UNL     1       7.433   2.722  26.251  0.00  0.00    +0.149 C 
ATOM      9  C   UNL     1       8.522   0.749  25.232  0.00  0.00    +0.101 A 
ATOM     10  C   UNL     1       8.248  -0.202  26.276  0.00  0.00    +0.205 C 
ATOM     11  O   UNL     1       7.753   0.055  27.367  0.00  0.00    -0.286 OA
ATOM     12  C   UNL     1       8.547  -1.612  25.935  0.00  0.00    +0.080 C 
ENDROOT
BRANCH   6  13
ATOM     13  C   UNL     1       8.337   4.047  23.561  0.00  0.00    -0.001 A 
ATOM     14  C   UNL     1       7.269   4.380  22.716  0.00  0.00    +0.010 A 
ATOM     15  C   UNL     1       7.047   5.699  22.301  0.00  0.00    +0.001 A 
ATOM     16  C   UNL     1       7.918   6.709  22.689  0.00  0.00    +0.000 A 
ATOM     17  C   UNL     1       8.977   6.409  23.539  0.00  0.00    +0.001 A 
ATOM     18  C   UNL     1       9.157   5.097  24.004  0.00  0.00    +0.010 A 
ENDBRANCH   6  13
BRANCH   1  20
ATOM     19  C   UNL     1       8.454  -4.334  25.108  0.00  0.00    +0.088 C 
ATOM     20  N   UNL     1       9.180  -3.309  24.379  0.00  0.00    -0.321 N 
ATOM     21  C   UNL     1       8.040  -3.912  23.708  0.00  0.00    +0.127 C 
ATOM     22  C   UNL     1       9.176  -5.611  25.372  0.00  0.00    +0.029 C 
ENDBRANCH   1  20
BRANCH   5  23
ATOM     23  C   UNL     1       9.965   1.705  21.945  0.00  0.00    +0.194 C 
BRANCH  23  24
ATOM     24  O   UNL     1       9.240   1.036  20.924  0.00  0.00    -0.390 OA
ATOM     25  H   UNL     1       8.893   0.226  21.334  0.00  0.00    +0.210 HD
ENDBRANCH  23  24
ENDBRANCH   5  23
TORSDOF 4
ENDMDL
MODEL 2
REMARK VINA RESULT:      -6.9      1.303      3.052
REMARK  Name = 
REMARK  6 active torsions:
REMARK  status: ('A' for Active; 'I' for Inactive)
REMARK    1  A    between atoms: C_2  and  C_3
REMARK    2  A    between atoms: N_5  and  C_6
REMARK    3  A    between atoms: C_12  and  C_13
REMARK    4  A    between atoms: C_13  and  O_14
REMARK    5  A    between atoms: C_15  and  C_18
REMARK    6  A    between atoms: N_16  and  C_17
REMARK                            x       y       z     vdW  Elec       q    Type
REMARK                         _______ _______ _______ _____ _____    ______ ____
ROOT
ATOM      1  C   UNL     1       8.748  -2.680  25.076  0.00  0.00    +0.082 C 
ATOM      2  C   UNL     1       7.924  -1.442  25.436  0.00  0.00    +0.210 C 
ATOM      3  O   UNL     1       7.075  -1.446  26.318  0.00  0.00    -0.285 OA
ATOM      4  C   UNL     1       8.245  -0.252  24.656  0.00  0.00    +0.058 A 
ATOM      5  C   UNL     1       7.851   1.118  24.822  0.00  0.00    +0.015 A 
ATOM      6  C   UNL     1       8.498   1.872  23.827  0.00  0.00    +0.055 A 
ATOM      7  N   UNL     1       9.197   0.963  23.032  0.00  0.00    -0.340 N 
ATOM      8  C   UNL     1      10.007   1.233  21.857  0.00  0.00    +0.149 C 
ATOM      9  C   UNL     1       9.054  -0.312  23.538  0.00  0.00    +0.101 A 
ATOM     10  C   UNL     1       9.644  -1.532  23.056  0.00  0.00    +0.205 C 
ATOM     11  O   UNL     1      10.281  -1.658  22.017  0.00  0.00    -0.286 OA
ATOM     12  C   UNL     1       9.499  -2.699  23.958  0.00  0.00    +0.080 C 
ENDROOT
BRANCH   6  13
ATOM     13  C   UNL     1       8.459   3.342  23.581  0.00  0.00    -0.001 A 
ATOM     14  C   UNL     1       7.473   3.908  22.762  0.00  0.00    +0.010 A 
ATOM     15  C   UNL     1       7.445   5.283  22.492  0.00  0.00    +0.001 A 
ATOM     16  C   UNL     1       8.433   6.114  23.003  0.00  0.00    +0.000 A 
ATOM     17  C   UNL     1       9.414   5.581  23.832  0.00  0.00    +0.001 A 
ATOM     18  C   UNL     1       9.400   4.214  24.150  0.00  0.00    +0.010 A 
ENDBRANCH   6  13
BRANCH   1  20
ATOM     19  C   UNL     1       8.070  -4.897  25.949  0.00  0.00    +0.088 C 
ATOM     20  N   UNL     1       8.856  -3.680  26.038  0.00  0.00    -0.321 N 
ATOM     21  C   UNL     1       9.581  -4.914  25.784  0.00  0.00    +0.127 C 
ATOM     22  C   UNL     1       7.402  -5.360  27.197  0.00  0.00    +0.029 C 
ENDBRANCH   1  20
BRANCH   5  23
ATOM     23  C   UNL     1       6.931   1.608  25.906  0.00  0.00    +0.194 C 
BRANCH  23  24
ATOM     24  O   UNL     1       7.528   1.522  27.191  0.00  0.00    -0.390 OA
ATOM     25  H   UNL     1       7.343   2.371  27.627  0.00  0.00    +0.210 HD
ENDBRANCH  23  24
ENDBRANCH   5  23
TORSDOF 4
ENDMDL
MODEL 3
REMARK VINA RESULT:      -6.7      4.333      6.563
REMARK  Name = 
REMARK  6 active torsions:
REMARK  status: ('A' for Active; 'I' for Inactive)
REMARK    1  A    between atoms: C_2  and  C_3
REMARK    2  A    between atoms: N_5  and  C_6
REMARK    3  A    between atoms: C_12  and  C_13
REMARK    4  A    between atoms: C_13  and  O_14
REMARK    5  A    between atoms: C_15  and  C_18
REMARK    6  A    between atoms: N_16  and  C_17
REMARK                            x       y       z     vdW  Elec       q    Type
REMARK                         _______ _______ _______ _____ _____    ______ ____
ROOT
ATOM      1  C   UNL     1       4.119  -6.283  24.873  0.00  0.00    +0.082 C 
ATOM      2  C   UNL     1       4.537  -5.406  23.691  0.00  0.00    +0.210 C 
ATOM      3  O   UNL     1       3.923  -5.388  22.632  0.00  0.00    -0.285 OA
ATOM      4  C   UNL     1       5.712  -4.578  23.936  0.00  0.00    +0.058 A 
ATOM      5  C   UNL     1       6.283  -3.503  23.176  0.00  0.00    +0.015 A 
ATOM      6  C   UNL     1       7.382  -3.005  23.899  0.00  0.00    +0.055 A 
ATOM      7  N   UNL     1       7.516  -3.816  25.025  0.00  0.00    -0.340 N 
ATOM      8  C   UNL     1       8.513  -3.736  26.078  0.00  0.00    +0.149 C 
ATOM      9  C   UNL     1       6.505  -4.754  25.054  0.00  0.00    +0.101 A 
ATOM     10  C   UNL     1       6.243  -5.750  26.058  0.00  0.00    +0.205 C 
ATOM     11  O   UNL     1       6.967  -6.017  27.009  0.00  0.00    -0.286 OA
ATOM     12  C   UNL     1       4.941  -6.446  25.927  0.00  0.00    +0.080 C 
ENDROOT
BRANCH   6  13
ATOM     13  C   UNL     1       8.292  -1.871  23.571  0.00  0.00    -0.001 A 
ATOM     14  C   UNL     1       9.308  -2.017  22.617  0.00  0.00    +0.010 A 
ATOM     15  C   UNL     1      10.193  -0.971  22.324  0.00  0.00    +0.001 A 
ATOM     16  C   UNL     1      10.107   0.231  23.014  0.00  0.00    +0.000 A 
ATOM     17  C   UNL     1       9.098   0.407  23.955  0.00  0.00    +0.001 A 
ATOM     18  C   UNL     1       8.174  -0.620  24.198  0.00  0.00    +0.010 A 
ENDBRANCH   6  13
BRANCH   1  20
ATOM     19  C   UNL     1       2.454  -8.101  24.623  0.00  0.00    +0.088 C 
ATOM     20  N   UNL     1       2.798  -6.720  24.911  0.00  0.00    -0.321 N 
ATOM     21  C   UNL     1       2.284  -7.514  26.015  0.00  0.00    +0.127 C 
ATOM     22  C   UNL     1       1.299  -8.331  23.710  0.00  0.00    +0.029 C 
ENDBRANCH   1  20
BRANCH   5  23
ATOM     23  C   UNL     1       5.741  -3.017  21.860  0.00  0.00    +0.194 C 
BRANCH  23  24
ATOM     24  O   UNL     1       5.720  -4.044  20.880  0.00  0.00    -0.390 OA
ATOM     25  H   UNL     1       4.986  -4.631  21.127  0.00  0.00    +0.210 HD
ENDBRANCH  23  24
ENDBRANCH   5  23
TORSDOF 4
ENDMDL
MODEL 4
REMARK VINA RESULT:      -6.6      2.108      3.230
REMARK  Name = 
REMARK  6 active torsions:
REMARK  status: ('A' for Active; 'I' for Inactive)
REMARK    1  A    between atoms: C_2  and  C_3
REMARK    2  A    between atoms: N_5  and  C_6
REMARK    3  A    between atoms: C_12  and  C_13
REMARK    4  A    between atoms: C_13  and  O_14
REMARK    5  A    between atoms: C_15  and  C_18
REMARK    6  A    between atoms: N_16  and  C_17
REMARK                            x       y       z     vdW  Elec       q    Type
REMARK                         _______ _______ _______ _____ _____    ______ ____
ROOT
ATOM      1  C   UNL     1       7.217  -2.480  24.029  0.00  0.00    +0.082 C 
ATOM      2  C   UNL     1       6.456  -1.171  24.252  0.00  0.00    +0.210 C 
ATOM      3  O   UNL     1       5.367  -1.127  24.811  0.00  0.00    -0.285 OA
ATOM      4  C   UNL     1       7.141   0.019  23.763  0.00  0.00    +0.058 A 
ATOM      5  C   UNL     1       6.861   1.414  23.956  0.00  0.00    +0.015 A 
ATOM      6  C   UNL     1       7.877   2.146  23.316  0.00  0.00    +0.055 A 
ATOM      7  N   UNL     1       8.700   1.213  22.684  0.00  0.00    -0.340 N 
ATOM      8  C   UNL     1       9.877   1.458  21.869  0.00  0.00    +0.149 C 
ATOM      9  C   UNL     1       8.264  -0.065  22.963  0.00  0.00    +0.101 A 
ATOM     10  C   UNL     1       8.847  -1.315  22.553  0.00  0.00    +0.205 C 
ATOM     11  O   UNL     1       9.776  -1.447  21.764  0.00  0.00    -0.286 OA
ATOM     12  C   UNL     1       8.289  -2.516  23.215  0.00  0.00    +0.080 C 
ENDROOT
BRANCH   6  13
ATOM     13  C   UNL     1       8.078   3.621  23.247  0.00  0.00    -0.001 A 
ATOM     14  C   UNL     1       7.327   4.408  22.363  0.00  0.00    +0.010 A 
ATOM     15  C   UNL     1       7.529   5.791  22.261  0.00  0.00    +0.001 A 
ATOM     16  C   UNL     1       8.521   6.409  23.012  0.00  0.00    +0.000 A 
ATOM     17  C   UNL     1       9.270   5.653  23.908  0.00  0.00    +0.001 A 
ATOM     18  C   UNL     1       9.020   4.280  24.053  0.00  0.00    +0.010 A 
ENDBRANCH   6  13
BRANCH   1  20
ATOM     19  C   UNL     1       6.199  -4.719  24.326  0.00  0.00    +0.088 C 
ATOM     20  N   UNL     1       6.894  -3.557  24.850  0.00  0.00    -0.321 N 
ATOM     21  C   UNL     1       7.638  -4.805  24.807  0.00  0.00    +0.127 C 
ATOM     22  C   UNL     1       5.059  -5.242  25.132  0.00  0.00    +0.029 C 
ENDBRANCH   1  20
BRANCH   5  23
ATOM     23  C   UNL     1       5.691   1.941  24.740  0.00  0.00    +0.194 C 
BRANCH  23  24
ATOM     24  O   UNL     1       4.477   1.856  24.008  0.00  0.00    -0.390 OA
ATOM     25  H   UNL     1       4.617   1.162  23.343  0.00  0.00    +0.210 HD
ENDBRANCH  23  24
ENDBRANCH   5  23
TORSDOF 4
ENDMDL
MODEL 5
REMARK VINA RESULT:      -6.5      2.163      2.557
REMARK  Name = 
REMARK  6 active torsions:
REMARK  status: ('A' for Active; 'I' for Inactive)
REMARK    1  A    between atoms: C_2  and  C_3
REMARK    2  A    between atoms: N_5  and  C_6
REMARK    3  A    between atoms: C_12  and  C_13
REMARK    4  A    between atoms: C_13  and  O_14
REMARK    5  A    between atoms: C_15  and  C_18
REMARK    6  A    between atoms: N_16  and  C_17
REMARK                            x       y       z     vdW  Elec       q    Type
REMARK                         _______ _______ _______ _____ _____    ______ ____
ROOT
ATOM      1  C   UNL     1       6.349  -2.671  23.274  0.00  0.00    +0.082 C 
ATOM      2  C   UNL     1       7.433  -1.760  22.691  0.00  0.00    +0.210 C 
ATOM      3  O   UNL     1       8.307  -2.171  21.940  0.00  0.00    -0.285 OA
ATOM      4  C   UNL     1       7.327  -0.362  23.089  0.00  0.00    +0.058 A 
ATOM      5  C   UNL     1       8.008   0.808  22.610  0.00  0.00    +0.015 A 
ATOM      6  C   UNL     1       7.480   1.919  23.293  0.00  0.00    +0.055 A 
ATOM      7  N   UNL     1       6.564   1.417  24.218  0.00  0.00    -0.340 N 
ATOM      8  C   UNL     1       5.767   2.152  25.184  0.00  0.00    +0.149 C 
ATOM      9  C   UNL     1       6.464   0.048  24.087  0.00  0.00    +0.101 A 
ATOM     10  C   UNL     1       5.606  -0.855  24.807  0.00  0.00    +0.205 C 
ATOM     11  O   UNL     1       4.902  -0.563  25.765  0.00  0.00    -0.286 OA
ATOM     12  C   UNL     1       5.552  -2.234  24.267  0.00  0.00    +0.080 C 
ENDROOT
BRANCH   6  13
ATOM     13  C   UNL     1       7.813   3.364  23.144  0.00  0.00    -0.001 A 
ATOM     14  C   UNL     1       8.846   3.945  23.892  0.00  0.00    +0.010 A 
ATOM     15  C   UNL     1       9.147   5.309  23.789  0.00  0.00    +0.001 A 
ATOM     16  C   UNL     1       8.389   6.131  22.967  0.00  0.00    +0.000 A 
ATOM     17  C   UNL     1       7.367   5.578  22.202  0.00  0.00    +0.001 A 
ATOM     18  C   UNL     1       7.112   4.199  22.260  0.00  0.00    +0.010 A 
ENDBRANCH   6  13
BRANCH   1  20
ATOM     19  C   UNL     1       6.652  -5.120  23.057  0.00  0.00    +0.088 C 
ATOM     20  N   UNL     1       6.085  -3.863  22.604  0.00  0.00    -0.321 N 
ATOM     21  C   UNL     1       5.158  -4.850  23.131  0.00  0.00    +0.127 C 
ATOM     22  C   UNL     1       7.249  -6.003  22.016  0.00  0.00    +0.029 C 
ENDBRANCH   1  20
BRANCH   5  23
ATOM     23  C   UNL     1       9.067   0.793  21.543  0.00  0.00    +0.194 C 
BRANCH  23  24
ATOM     24  O   UNL     1      10.217   0.064  21.944  0.00  0.00    -0.390 OA
ATOM     25  H   UNL     1      10.049  -0.858  21.689  0.00  0.00    +0.210 HD
ENDBRANCH  23  24
ENDBRANCH   5  23
TORSDOF 4
ENDMDL
MODEL 6
REMARK VINA RESULT:      -6.5      1.964      7.132
REMARK  Name = 
REMARK  6 active torsions:
REMARK  status: ('A' for Active; 'I' for Inactive)
REMARK    1  A    between atoms: C_2  and  C_3
REMARK    2  A    between atoms: N_5  and  C_6
REMARK    3  A    between atoms: C_12  and  C_13
REMARK    4  A    between atoms: C_13  and  O_14
REMARK    5  A    between atoms: C_15  and  C_18
REMARK    6  A    between atoms: N_16  and  C_17
REMARK                            x       y       z     vdW  Elec       q    Type
REMARK                         _______ _______ _______ _____ _____    ______ ____
ROOT
ATOM      1  C   UNL     1       7.411   3.044  22.817  0.00  0.00    +0.082 C 
ATOM      2  C   UNL     1       8.285   1.832  22.490  0.00  0.00    +0.210 C 
ATOM      3  O   UNL     1       9.219   1.885  21.700  0.00  0.00    -0.285 OA
ATOM      4  C   UNL     1       7.928   0.615  23.210  0.00  0.00    +0.058 A 
ATOM      5  C   UNL     1       8.609  -0.643  23.331  0.00  0.00    +0.015 A 
ATOM      6  C   UNL     1       7.857  -1.454  24.199  0.00  0.00    +0.055 A 
ATOM      7  N   UNL     1       6.710  -0.729  24.525  0.00  0.00    -0.340 N 
ATOM      8  C   UNL     1       5.602  -1.133  25.371  0.00  0.00    +0.149 C 
ATOM      9  C   UNL     1       6.759   0.518  23.940  0.00  0.00    +0.101 A 
ATOM     10  C   UNL     1       5.809   1.593  24.054  0.00  0.00    +0.205 C 
ATOM     11  O   UNL     1       4.715   1.527  24.599  0.00  0.00    -0.286 OA
ATOM     12  C   UNL     1       6.264   2.893  23.506  0.00  0.00    +0.080 C 
ENDROOT
BRANCH   6  13
ATOM     13  C   UNL     1       8.141  -2.834  24.685  0.00  0.00    -0.001 A 
ATOM     14  C   UNL     1       8.598  -3.057  25.991  0.00  0.00    +0.010 A 
ATOM     15  C   UNL     1       8.903  -4.344  26.452  0.00  0.00    +0.001 A 
ATOM     16  C   UNL     1       8.799  -5.434  25.597  0.00  0.00    +0.000 A 
ATOM     17  C   UNL     1       8.333  -5.243  24.300  0.00  0.00    +0.001 A 
ATOM     18  C   UNL     1       7.968  -3.960  23.865  0.00  0.00    +0.010 A 
ENDBRANCH   6  13
BRANCH   1  20
ATOM     19  C   UNL     1       7.204   5.512  22.890  0.00  0.00    +0.088 C 
ATOM     20  N   UNL     1       7.944   4.306  22.567  0.00  0.00    -0.321 N 
ATOM     21  C   UNL     1       8.476   5.139  23.632  0.00  0.00    +0.127 C 
ATOM     22  C   UNL     1       7.173   6.581  21.852  0.00  0.00    +0.029 C 
ENDBRANCH   1  20
BRANCH   5  23
ATOM     23  C   UNL     1       9.910  -0.968  22.651  0.00  0.00    +0.194 C 
BRANCH  23  24
ATOM     24  O   UNL     1       9.766  -1.067  21.242  0.00  0.00    -0.390 OA
ATOM     25  H   UNL     1       9.113  -1.771  21.091  0.00  0.00    +0.210 HD
ENDBRANCH  23  24
ENDBRANCH   5  23
TORSDOF 4
ENDMDL
MODEL 7
REMARK VINA RESULT:      -6.4      2.036      6.918
REMARK  Name = 
REMARK  6 active torsions:
REMARK  status: ('A' for Active; 'I' for Inactive)
REMARK    1  A    between atoms: C_2  and  C_3
REMARK    2  A    between atoms: N_5  and  C_6
REMARK    3  A    between atoms: C_12  and  C_13
REMARK    4  A    between atoms: C_13  and  O_14
REMARK    5  A    between atoms: C_15  and  C_18
REMARK    6  A    between atoms: N_16  and  C_17
REMARK                            x       y       z     vdW  Elec       q    Type
REMARK                         _______ _______ _______ _____ _____    ______ ____
ROOT
ATOM      1  C   UNL     1       8.198   2.933  24.317  0.00  0.00    +0.082 C 
ATOM      2  C   UNL     1       8.595   1.945  23.217  0.00  0.00    +0.210 C 
ATOM      3  O   UNL     1       9.389   2.229  22.329  0.00  0.00    -0.285 OA
ATOM      4  C   UNL     1       7.967   0.634  23.325  0.00  0.00    +0.058 A 
ATOM      5  C   UNL     1       8.226  -0.595  22.629  0.00  0.00    +0.015 A 
ATOM      6  C   UNL     1       7.374  -1.577  23.165  0.00  0.00    +0.055 A 
ATOM      7  N   UNL     1       6.566  -0.932  24.102  0.00  0.00    -0.340 N 
ATOM      8  C   UNL     1       5.505  -1.498  24.916  0.00  0.00    +0.149 C 
ATOM      9  C   UNL     1       6.931   0.393  24.207  0.00  0.00    +0.101 A 
ATOM     10  C   UNL     1       6.393   1.399  25.083  0.00  0.00    +0.205 C 
ATOM     11  O   UNL     1       5.413   1.269  25.806  0.00  0.00    -0.286 OA
ATOM     12  C   UNL     1       7.161   2.665  25.132  0.00  0.00    +0.080 C 
ENDROOT
BRANCH   6  13
ATOM     13  C   UNL     1       7.267  -3.024  22.823  0.00  0.00    -0.001 A 
ATOM     14  C   UNL     1       6.427  -3.458  21.789  0.00  0.00    +0.010 A 
ATOM     15  C   UNL     1       6.289  -4.817  21.479  0.00  0.00    +0.001 A 
ATOM     16  C   UNL     1       6.958  -5.776  22.229  0.00  0.00    +0.000 A 
ATOM     17  C   UNL     1       7.811  -5.371  23.250  0.00  0.00    +0.001 A 
ATOM     18  C   UNL     1       7.994  -4.005  23.515  0.00  0.00    +0.010 A 
ENDBRANCH   6  13
BRANCH   1  20
ATOM     19  C   UNL     1       8.865   5.292  23.961  0.00  0.00    +0.088 C 
ATOM     20  N   UNL     1       9.066   3.991  24.572  0.00  0.00    -0.321 N 
ATOM     21  C   UNL     1       8.704   5.084  25.458  0.00  0.00    +0.127 C 
ATOM     22  C   UNL     1      10.064   5.954  23.375  0.00  0.00    +0.029 C 
ENDBRANCH   1  20
BRANCH   5  23
ATOM     23  C   UNL     1       9.259  -0.753  21.548  0.00  0.00    +0.194 C 
BRANCH  23  24
ATOM     24  O   UNL     1      10.322  -1.606  21.947  0.00  0.00    -0.390 OA
ATOM     25  H   UNL     1      10.998  -1.024  22.332  0.00  0.00    +0.210 HD
ENDBRANCH  23  24
ENDBRANCH   5  23
TORSDOF 4
ENDMDL
MODEL 8
REMARK VINA RESULT:      -6.3      3.026      5.019
REMARK  Name = 
REMARK  6 active torsions:
REMARK  status: ('A' for Active; 'I' for Inactive)
REMARK    1  A    between atoms: C_2  and  C_3
REMARK    2  A    between atoms: N_5  and  C_6
REMARK    3  A    between atoms: C_12  and  C_13
REMARK    4  A    between atoms: C_13  and  O_14
REMARK    5  A    between atoms: C_15  and  C_18
REMARK    6  A    between atoms: N_16  and  C_17
REMARK                            x       y       z     vdW  Elec       q    Type
REMARK                         _______ _______ _______ _____ _____    ______ ____
ROOT
ATOM      1  C   UNL     1       6.548  -4.568  27.083  0.00  0.00    +0.082 C 
ATOM      2  C   UNL     1       6.168  -3.153  26.639  0.00  0.00    +0.210 C 
ATOM      3  O   UNL     1       5.138  -2.600  27.003  0.00  0.00    -0.285 OA
ATOM      4  C   UNL     1       7.142  -2.511  25.764  0.00  0.00    +0.058 A 
ATOM      5  C   UNL     1       7.248  -1.154  25.308  0.00  0.00    +0.015 A 
ATOM      6  C   UNL     1       8.416  -1.055  24.531  0.00  0.00    +0.055 A 
ATOM      7  N   UNL     1       8.951  -2.341  24.454  0.00  0.00    -0.340 N 
ATOM      8  C   UNL     1      10.141  -2.779  23.746  0.00  0.00    +0.149 C 
ATOM      9  C   UNL     1       8.192  -3.214  25.204  0.00  0.00    +0.101 A 
ATOM     10  C   UNL     1       8.414  -4.616  25.436  0.00  0.00    +0.205 C 
ATOM     11  O   UNL     1       9.264  -5.307  24.887  0.00  0.00    -0.286 OA
ATOM     12  C   UNL     1       7.562  -5.222  26.486  0.00  0.00    +0.080 C 
ENDROOT
BRANCH   6  13
ATOM     13  C   UNL     1       9.004   0.137  23.857  0.00  0.00    -0.001 A 
ATOM     14  C   UNL     1       8.682   0.445  22.528  0.00  0.00    +0.010 A 
ATOM     15  C   UNL     1       9.253   1.542  21.871  0.00  0.00    +0.001 A 
ATOM     16  C   UNL     1      10.196   2.330  22.518  0.00  0.00    +0.000 A 
ATOM     17  C   UNL     1      10.523   2.056  23.842  0.00  0.00    +0.001 A 
ATOM     18  C   UNL     1       9.900   0.995  24.516  0.00  0.00    +0.010 A 
ENDBRANCH   6  13
BRANCH   1  20
ATOM     19  C   UNL     1       4.959  -6.106  28.199  0.00  0.00    +0.088 C 
ATOM     20  N   UNL     1       5.958  -5.054  28.246  0.00  0.00    -0.321 N 
ATOM     21  C   UNL     1       6.328  -6.339  28.815  0.00  0.00    +0.127 C 
ATOM     22  C   UNL     1       3.736  -5.912  29.028  0.00  0.00    +0.029 C 
ENDBRANCH   1  20
BRANCH   5  23
ATOM     23  C   UNL     1       6.272  -0.065  25.658  0.00  0.00    +0.194 C 
BRANCH  23  24
ATOM     24  O   UNL     1       5.052  -0.194  24.943  0.00  0.00    -0.390 OA
ATOM     25  H   UNL     1       5.167   0.323  24.128  0.00  0.00    +0.210 HD
ENDBRANCH  23  24
ENDBRANCH   5  23
TORSDOF 4
ENDMDL
MODEL 9
REMARK VINA RESULT:      -6.3      3.055      4.350
REMARK  Name = 
REMARK  6 active torsions:
REMARK  status: ('A' for Active; 'I' for Inactive)
REMARK    1  A    between atoms: C_2  and  C_3
REMARK    2  A    between atoms: N_5  and  C_6
REMARK    3  A    between atoms: C_12  and  C_13
REMARK    4  A    between atoms: C_13  and  O_14
REMARK    5  A    between atoms: C_15  and  C_18
REMARK    6  A    between atoms: N_16  and  C_17
REMARK                            x       y       z     vdW  Elec       q    Type
REMARK                         _______ _______ _______ _____ _____    ______ ____
ROOT
ATOM      1  C   UNL     1       5.607  -4.700  25.232  0.00  0.00    +0.082 C 
ATOM      2  C   UNL     1       7.066  -4.298  25.001  0.00  0.00    +0.210 C 
ATOM      3  O   UNL     1       7.983  -5.108  25.009  0.00  0.00    -0.285 OA
ATOM      4  C   UNL     1       7.270  -2.876  24.752  0.00  0.00    +0.058 A 
ATOM      5  C   UNL     1       8.428  -2.155  24.303  0.00  0.00    +0.015 A 
ATOM      6  C   UNL     1       8.062  -0.804  24.167  0.00  0.00    +0.055 A 
ATOM      7  N   UNL     1       6.741  -0.704  24.603  0.00  0.00    -0.340 N 
ATOM      8  C   UNL     1       5.908   0.482  24.686  0.00  0.00    +0.149 C 
ATOM      9  C   UNL     1       6.262  -1.952  24.944  0.00  0.00    +0.101 A 
ATOM     10  C   UNL     1       4.943  -2.306  25.395  0.00  0.00    +0.205 C 
ATOM     11  O   UNL     1       4.047  -1.520  25.679  0.00  0.00    -0.286 OA
ATOM     12  C   UNL     1       4.666  -3.761  25.444  0.00  0.00    +0.080 C 
ENDROOT
BRANCH   6  13
ATOM     13  C   UNL     1       8.878   0.352  23.698  0.00  0.00    -0.001 A 
ATOM     14  C   UNL     1       8.886   0.727  22.348  0.00  0.00    +0.010 A 
ATOM     15  C   UNL     1       9.675   1.788  21.886  0.00  0.00    +0.001 A 
ATOM     16  C   UNL     1      10.508   2.471  22.763  0.00  0.00    +0.000 A 
ATOM     17  C   UNL     1      10.508   2.130  24.111  0.00  0.00    +0.001 A 
ATOM     18  C   UNL     1       9.668   1.108  24.579  0.00  0.00    +0.010 A 
ENDBRANCH   6  13
BRANCH   1  20
ATOM     19  C   UNL     1       3.898  -6.413  24.703  0.00  0.00    +0.088 C 
ATOM     20  N   UNL     1       5.265  -6.030  25.006  0.00  0.00    -0.321 N 
ATOM     21  C   UNL     1       5.005  -6.539  23.669  0.00  0.00    +0.127 C 
ATOM     22  C   UNL     1       3.353  -7.594  25.430  0.00  0.00    +0.029 C 
ENDBRANCH   1  20
BRANCH   5  23
ATOM     23  C   UNL     1       9.760  -2.789  24.015  0.00  0.00    +0.194 C 
BRANCH  23  24
ATOM     24  O   UNL     1      10.232  -2.471  22.714  0.00  0.00    -0.390 OA
ATOM     25  H   UNL     1      10.758  -1.660  22.815  0.00  0.00    +0.210 HD
ENDBRANCH  23  24
ENDBRANCH   5  23
TORSDOF 4
ENDMDL
