MODEL 1
REMARK VINA RESULT:      -7.1      0.000      0.000
REMARK  Name = 
REMARK  6 active torsions:
REMARK  status: ('A' for Active; 'I' for Inactive)
REMARK    1  A    between atoms: C_2  and  C_5
REMARK    2  A    between atoms: C_7  and  N_8
REMARK    3  A    between atoms: N_8  and  C_9
REMARK    4  A    between atoms: C_10  and  C_15
REMARK    5  A    between atoms: C_15  and  O_17
REMARK    6  A    between atoms: O_17  and  C_18
REMARK                            x       y       z     vdW  Elec       q    Type
REMARK                         _______ _______ _______ _____ _____    ______ ____
ROOT
ATOM      1  C   UNL     1       6.580  -2.889  24.248  0.00  0.00    +0.137 A 
ATOM      2  N   UNL     1       5.330  -2.993  23.720  0.00  0.00    -0.239 NA
ATOM      3  C   UNL     1       5.120  -3.843  22.694  0.00  0.00    +0.113 A 
ATOM      4  C   UNL     1       6.108  -4.622  22.137  0.00  0.00    +0.021 A 
ATOM      5  C   UNL     1       7.394  -4.509  22.655  0.00  0.00    +0.020 A 
ATOM      6  C   UNL     1       7.648  -3.630  23.724  0.00  0.00    +0.099 A 
ENDROOT
BRANCH   1   7
ATOM      7  N   UNL     1       6.747  -2.036  25.357  0.00  0.00    -0.299 N 
ATOM      8  H   UNL     1       6.278  -2.395  26.180  0.00  0.00    +0.154 HD
BRANCH   7  13
ATOM      9  C   UNL     1       6.706   1.495  24.144  0.00  0.00    +0.057 A 
ATOM     10  C   UNL     1       7.237   2.153  25.260  0.00  0.00    +0.012 A 
ATOM     11  C   UNL     1       7.587   1.432  26.401  0.00  0.00    +0.002 A 
ATOM     12  C   UNL     1       7.416   0.045  26.436  0.00  0.00    +0.023 A 
ATOM     13  C   UNL     1       6.883  -0.636  25.335  0.00  0.00    +0.033 A 
ATOM     14  C   UNL     1       6.539   0.104  24.196  0.00  0.00    +0.035 A 
BRANCH   9  16
ATOM     15  F   UNL     1       6.977   3.456  22.775  0.00  0.00    -0.166 F 
ATOM     16  C   UNL     1       6.324   2.266  22.908  0.00  0.00    +0.417 C 
ATOM     17  F   UNL     1       6.579   1.575  21.763  0.00  0.00    -0.166 F 
ATOM     18  F   UNL     1       4.996   2.570  22.872  0.00  0.00    -0.166 F 
ENDBRANCH   9  16
ENDBRANCH   7  13
ENDBRANCH   1   7
BRANCH   6  19
ATOM     19  C   UNL     1       9.038  -3.434  24.216  0.00  0.00    +0.346 C 
ATOM     20  O   UNL     1       9.794  -4.322  24.564  0.00  0.00    -0.245 OA
BRANCH  19  21
ATOM     21  O   UNL     1       9.324  -2.114  24.232  0.00  0.00    -0.417 OA
BRANCH  21  22
ATOM     22  C   UNL     1      10.262  -1.675  23.253  0.00  0.00    +0.403 C 
ATOM     23  C   UNL     1      10.391  -0.203  23.384  0.00  0.00    +0.047 A 
ATOM     24  C   UNL     1       9.870   0.395  22.258  0.00  0.00    +0.069 A 
ATOM     25  C   UNL     1       9.801   1.768  22.105  0.00  0.00    +0.015 A 
ATOM     26  C   UNL     1      10.291   2.557  23.147  0.00  0.00    +0.001 A 
ATOM     27  C   UNL     1      10.843   1.960  24.293  0.00  0.00    +0.001 A 
ATOM     28  C   UNL     1       9.438  -0.644  21.336  0.00  0.00    +0.343 C 
ATOM     29  O   UNL     1       8.945  -0.475  20.239  0.00  0.00    -0.245 OA
ATOM     30  C   UNL     1      10.897   0.568  24.418  0.00  0.00    +0.012 A 
ATOM     31  O   UNL     1       9.708  -1.841  21.932  0.00  0.00    -0.417 OA
ENDBRANCH  21  22
ENDBRANCH  19  21
ENDBRANCH   6  19
TORSDOF 6
ENDMDL
MODEL 2
REMARK VINA RESULT:      -7.0      3.099      5.924
REMARK  Name = 
REMARK  6 active torsions:
REMARK  status: ('A' for Active; 'I' for Inactive)
REMARK    1  A    between atoms: C_2  and  C_5
REMARK    2  A    between atoms: C_7  and  N_8
REMARK    3  A    between atoms: N_8  and  C_9
REMARK    4  A    between atoms: C_10  and  C_15
REMARK    5  A    between atoms: C_15  and  O_17
REMARK    6  A    between atoms: O_17  and  C_18
REMARK                            x       y       z     vdW  Elec       q    Type
REMARK                         _______ _______ _______ _____ _____    ______ ____
ROOT
ATOM      1  C   UNL     1       6.848  -3.432  23.149  0.00  0.00    +0.137 A 
ATOM      2  N   UNL     1       6.175  -3.269  21.978  0.00  0.00    -0.239 NA
ATOM      3  C   UNL     1       6.083  -4.309  21.123  0.00  0.00    +0.113 A 
ATOM      4  C   UNL     1       6.640  -5.544  21.367  0.00  0.00    +0.021 A 
ATOM      5  C   UNL     1       7.347  -5.716  22.552  0.00  0.00    +0.020 A 
ATOM      6  C   UNL     1       7.463  -4.650  23.463  0.00  0.00    +0.099 A 
ENDROOT
BRANCH   1   7
ATOM      7  N   UNL     1       6.870  -2.341  24.042  0.00  0.00    -0.299 N 
ATOM      8  H   UNL     1       5.935  -2.052  24.304  0.00  0.00    +0.154 HD
BRANCH   7  13
ATOM      9  C   UNL     1       9.011   0.546  23.031  0.00  0.00    +0.057 A 
ATOM     10  C   UNL     1       9.805   0.686  24.176  0.00  0.00    +0.012 A 
ATOM     11  C   UNL     1       9.617  -0.158  25.270  0.00  0.00    +0.002 A 
ATOM     12  C   UNL     1       8.638  -1.155  25.228  0.00  0.00    +0.023 A 
ATOM     13  C   UNL     1       7.828  -1.313  24.097  0.00  0.00    +0.033 A 
ATOM     14  C   UNL     1       8.033  -0.458  23.006  0.00  0.00    +0.035 A 
BRANCH   9  16
ATOM     15  F   UNL     1      10.474   1.946  21.729  0.00  0.00    -0.166 F 
ATOM     16  C   UNL     1       9.207   1.454  21.846  0.00  0.00    +0.417 C 
ATOM     17  F   UNL     1       8.941   0.833  20.664  0.00  0.00    -0.166 F 
ATOM     18  F   UNL     1       8.392   2.546  21.885  0.00  0.00    -0.166 F 
ENDBRANCH   9  16
ENDBRANCH   7  13
ENDBRANCH   1   7
BRANCH   6  19
ATOM     19  C   UNL     1       8.300  -4.800  24.685  0.00  0.00    +0.346 C 
ATOM     20  O   UNL     1       9.495  -5.028  24.697  0.00  0.00    -0.245 OA
BRANCH  19  21
ATOM     21  O   UNL     1       7.520  -4.661  25.779  0.00  0.00    -0.417 OA
BRANCH  21  22
ATOM     22  C   UNL     1       7.182  -5.870  26.453  0.00  0.00    +0.403 C 
ATOM     23  C   UNL     1       5.710  -6.032  26.372  0.00  0.00    +0.047 A 
ATOM     24  C   UNL     1       5.175  -5.905  27.635  0.00  0.00    +0.069 A 
ATOM     25  C   UNL     1       3.814  -5.958  27.879  0.00  0.00    +0.015 A 
ATOM     26  C   UNL     1       2.971  -6.154  26.784  0.00  0.00    +0.001 A 
ATOM     27  C   UNL     1       3.505  -6.305  25.493  0.00  0.00    +0.001 A 
ATOM     28  C   UNL     1       6.261  -5.714  28.584  0.00  0.00    +0.343 C 
ATOM     29  O   UNL     1       6.152  -5.581  29.786  0.00  0.00    -0.245 OA
ATOM     30  C   UNL     1       4.886  -6.246  25.278  0.00  0.00    +0.012 A 
ATOM     31  O   UNL     1       7.421  -5.729  27.868  0.00  0.00    -0.417 OA
ENDBRANCH  21  22
ENDBRANCH  19  21
ENDBRANCH   6  19
TORSDOF 6
ENDMDL
MODEL 3
REMARK VINA RESULT:      -7.0      3.526      6.240
REMARK  Name = 
REMARK  6 active torsions:
REMARK  status: ('A' for Active; 'I' for Inactive)
REMARK    1  A    between atoms: C_2  and  C_5
REMARK    2  A    between atoms: C_7  and  N_8
REMARK    3  A    between atoms: N_8  and  C_9
REMARK    4  A    between atoms: C_10  and  C_15
REMARK    5  A    between atoms: C_15  and  O_17
REMARK    6  A    between atoms: O_17  and  C_18
REMARK                            x       y       z     vdW  Elec       q    Type
REMARK                         _______ _______ _______ _____ _____    ______ ____
ROOT
ATOM      1  C   UNL     1       8.493   0.302  22.634  0.00  0.00    +0.137 A 
ATOM      2  N   UNL     1       7.736   1.059  21.795  0.00  0.00    -0.239 NA
ATOM      3  C   UNL     1       7.693   2.396  21.976  0.00  0.00    +0.113 A 
ATOM      4  C   UNL     1       8.377   3.050  22.976  0.00  0.00    +0.021 A 
ATOM      5  C   UNL     1       9.137   2.282  23.852  0.00  0.00    +0.020 A 
ATOM      6  C   UNL     1       9.201   0.886  23.692  0.00  0.00    +0.099 A 
ENDROOT
BRANCH   1   7
ATOM      7  N   UNL     1       8.560  -1.082  22.374  0.00  0.00    -0.299 N 
ATOM      8  H   UNL     1       9.124  -1.283  21.558  0.00  0.00    +0.154 HD
BRANCH   7  13
ATOM      9  C   UNL     1       6.768  -4.353  22.544  0.00  0.00    +0.057 A 
ATOM     10  C   UNL     1       5.546  -3.945  23.096  0.00  0.00    +0.012 A 
ATOM     11  C   UNL     1       5.333  -2.605  23.418  0.00  0.00    +0.002 A 
ATOM     12  C   UNL     1       6.336  -1.659  23.187  0.00  0.00    +0.023 A 
ATOM     13  C   UNL     1       7.567  -2.042  22.641  0.00  0.00    +0.033 A 
ATOM     14  C   UNL     1       7.763  -3.391  22.321  0.00  0.00    +0.035 A 
BRANCH   9  16
ATOM     15  F   UNL     1       7.038  -6.045  20.854  0.00  0.00    -0.166 F 
ATOM     16  C   UNL     1       7.006  -5.798  22.194  0.00  0.00    +0.417 C 
ATOM     17  F   UNL     1       8.188  -6.265  22.684  0.00  0.00    -0.166 F 
ATOM     18  F   UNL     1       6.044  -6.623  22.697  0.00  0.00    -0.166 F 
ENDBRANCH   9  16
ENDBRANCH   7  13
ENDBRANCH   1   7
BRANCH   6  19
ATOM     19  C   UNL     1       9.934   0.053  24.683  0.00  0.00    +0.346 C 
ATOM     20  O   UNL     1      10.975   0.363  25.232  0.00  0.00    -0.245 OA
BRANCH  19  21
ATOM     21  O   UNL     1       9.271  -1.109  24.866  0.00  0.00    -0.417 OA
BRANCH  21  22
ATOM     22  C   UNL     1       8.985  -1.449  26.220  0.00  0.00    +0.403 C 
ATOM     23  C   UNL     1       8.412  -2.817  26.228  0.00  0.00    +0.047 A 
ATOM     24  C   UNL     1       7.091  -2.748  26.614  0.00  0.00    +0.069 A 
ATOM     25  C   UNL     1       6.270  -3.860  26.671  0.00  0.00    +0.015 A 
ATOM     26  C   UNL     1       6.828  -5.090  26.322  0.00  0.00    +0.001 A 
ATOM     27  C   UNL     1       8.180  -5.178  25.946  0.00  0.00    +0.001 A 
ATOM     28  C   UNL     1       6.768  -1.363  26.923  0.00  0.00    +0.343 C 
ATOM     29  O   UNL     1       5.696  -0.942  27.308  0.00  0.00    -0.245 OA
ATOM     30  C   UNL     1       8.984  -4.034  25.898  0.00  0.00    +0.012 A 
ATOM     31  O   UNL     1       7.901  -0.634  26.713  0.00  0.00    -0.417 OA
ENDBRANCH  21  22
ENDBRANCH  19  21
ENDBRANCH   6  19
TORSDOF 6
ENDMDL
MODEL 4
REMARK VINA RESULT:      -6.9      2.673      4.651
REMARK  Name = 
REMARK  6 active torsions:
REMARK  status: ('A' for Active; 'I' for Inactive)
REMARK    1  A    between atoms: C_2  and  C_5
REMARK    2  A    between atoms: C_7  and  N_8
REMARK    3  A    between atoms: N_8  and  C_9
REMARK    4  A    between atoms: C_10  and  C_15
REMARK    5  A    between atoms: C_15  and  O_17
REMARK    6  A    between atoms: O_17  and  C_18
REMARK                            x       y       z     vdW  Elec       q    Type
REMARK                         _______ _______ _______ _____ _____    ______ ____
ROOT
ATOM      1  C   UNL     1       8.389  -3.714  24.079  0.00  0.00    +0.137 A 
ATOM      2  N   UNL     1       9.478  -4.356  24.582  0.00  0.00    -0.239 NA
ATOM      3  C   UNL     1       9.362  -5.035  25.743  0.00  0.00    +0.113 A 
ATOM      4  C   UNL     1       8.191  -5.116  26.462  0.00  0.00    +0.021 A 
ATOM      5  C   UNL     1       7.077  -4.447  25.966  0.00  0.00    +0.020 A 
ATOM      6  C   UNL     1       7.165  -3.728  24.760  0.00  0.00    +0.099 A 
ENDROOT
BRANCH   1   7
ATOM      7  N   UNL     1       8.535  -3.068  22.835  0.00  0.00    -0.299 N 
ATOM      8  H   UNL     1       8.720  -3.727  22.089  0.00  0.00    +0.154 HD
BRANCH   7  13
ATOM      9  C   UNL     1      10.249   0.200  23.407  0.00  0.00    +0.057 A 
ATOM     10  C   UNL     1      10.007   0.832  22.181  0.00  0.00    +0.012 A 
ATOM     11  C   UNL     1       9.298   0.172  21.177  0.00  0.00    +0.002 A 
ATOM     12  C   UNL     1       8.819  -1.123  21.392  0.00  0.00    +0.023 A 
ATOM     13  C   UNL     1       9.051  -1.779  22.607  0.00  0.00    +0.033 A 
ATOM     14  C   UNL     1       9.762  -1.100  23.605  0.00  0.00    +0.035 A 
BRANCH   9  16
ATOM     15  F   UNL     1      12.349   0.625  24.504  0.00  0.00    -0.166 F 
ATOM     16  C   UNL     1      11.015   0.905  24.496  0.00  0.00    +0.417 C 
ATOM     17  F   UNL     1      10.922   2.261  24.404  0.00  0.00    -0.166 F 
ATOM     18  F   UNL     1      10.565   0.586  25.742  0.00  0.00    -0.166 F 
ENDBRANCH   9  16
ENDBRANCH   7  13
ENDBRANCH   1   7
BRANCH   6  19
ATOM     19  C   UNL     1       6.004  -2.932  24.278  0.00  0.00    +0.346 C 
ATOM     20  O   UNL     1       4.878  -3.361  24.105  0.00  0.00    -0.245 OA
BRANCH  19  21
ATOM     21  O   UNL     1       6.400  -1.661  24.046  0.00  0.00    -0.417 OA
BRANCH  21  22
ATOM     22  C   UNL     1       5.767  -0.664  24.844  0.00  0.00    +0.403 C 
ATOM     23  C   UNL     1       6.364   0.644  24.483  0.00  0.00    +0.047 A 
ATOM     24  C   UNL     1       7.082   1.121  25.558  0.00  0.00    +0.069 A 
ATOM     25  C   UNL     1       7.799   2.303  25.513  0.00  0.00    +0.015 A 
ATOM     26  C   UNL     1       7.775   3.026  24.319  0.00  0.00    +0.001 A 
ATOM     27  C   UNL     1       7.030   2.561  23.222  0.00  0.00    +0.001 A 
ATOM     28  C   UNL     1       6.939   0.187  26.664  0.00  0.00    +0.343 C 
ATOM     29  O   UNL     1       7.427   0.301  27.771  0.00  0.00    -0.245 OA
ATOM     30  C   UNL     1       6.315   1.361  23.298  0.00  0.00    +0.012 A 
ATOM     31  O   UNL     1       6.141  -0.828  26.227  0.00  0.00    -0.417 OA
ENDBRANCH  21  22
ENDBRANCH  19  21
ENDBRANCH   6  19
TORSDOF 6
ENDMDL
MODEL 5
REMARK VINA RESULT:      -6.9      3.116      5.986
REMARK  Name = 
REMARK  6 active torsions:
REMARK  status: ('A' for Active; 'I' for Inactive)
REMARK    1  A    between atoms: C_2  and  C_5
REMARK    2  A    between atoms: C_7  and  N_8
REMARK    3  A    between atoms: N_8  and  C_9
REMARK    4  A    between atoms: C_10  and  C_15
REMARK    5  A    between atoms: C_15  and  O_17
REMARK    6  A    between atoms: O_17  and  C_18
REMARK                            x       y       z     vdW  Elec       q    Type
REMARK                         _______ _______ _______ _____ _____    ______ ____
ROOT
ATOM      1  C   UNL     1       8.209  -0.189  24.055  0.00  0.00    +0.137 A 
ATOM      2  N   UNL     1       7.992   1.149  24.166  0.00  0.00    -0.239 NA
ATOM      3  C   UNL     1       9.051   1.983  24.235  0.00  0.00    +0.113 A 
ATOM      4  C   UNL     1      10.359   1.554  24.202  0.00  0.00    +0.021 A 
ATOM      5  C   UNL     1      10.592   0.186  24.109  0.00  0.00    +0.020 A 
ATOM      6  C   UNL     1       9.509  -0.710  24.037  0.00  0.00    +0.099 A 
ENDROOT
BRANCH   1   7
ATOM      7  N   UNL     1       7.078  -1.020  23.924  0.00  0.00    -0.299 N 
ATOM      8  H   UNL     1       6.615  -0.887  23.033  0.00  0.00    +0.154 HD
BRANCH   7  13
ATOM      9  C   UNL     1       4.221  -2.653  25.689  0.00  0.00    +0.057 A 
ATOM     10  C   UNL     1       4.484  -2.266  27.009  0.00  0.00    +0.012 A 
ATOM     11  C   UNL     1       5.603  -1.488  27.305  0.00  0.00    +0.002 A 
ATOM     12  C   UNL     1       6.466  -1.083  26.283  0.00  0.00    +0.023 A 
ATOM     13  C   UNL     1       6.229  -1.460  24.956  0.00  0.00    +0.033 A 
ATOM     14  C   UNL     1       5.099  -2.240  24.677  0.00  0.00    +0.035 A 
BRANCH   9  16
ATOM     15  F   UNL     1       1.827  -2.849  25.535  0.00  0.00    -0.166 F 
ATOM     16  C   UNL     1       3.016  -3.495  25.362  0.00  0.00    +0.417 C 
ATOM     17  F   UNL     1       3.017  -3.927  24.070  0.00  0.00    -0.166 F 
ATOM     18  F   UNL     1       2.939  -4.618  26.130  0.00  0.00    -0.166 F 
ENDBRANCH   9  16
ENDBRANCH   7  13
ENDBRANCH   1   7
BRANCH   6  19
ATOM     19  C   UNL     1       9.753  -2.178  24.036  0.00  0.00    +0.346 C 
ATOM     20  O   UNL     1      10.456  -2.775  23.242  0.00  0.00    -0.245 OA
BRANCH  19  21
ATOM     21  O   UNL     1       9.057  -2.747  25.044  0.00  0.00    -0.417 OA
BRANCH  21  22
ATOM     22  C   UNL     1       9.141  -4.167  25.126  0.00  0.00    +0.403 C 
ATOM     23  C   UNL     1       7.922  -4.725  24.493  0.00  0.00    +0.047 A 
ATOM     24  C   UNL     1       7.152  -5.332  25.461  0.00  0.00    +0.069 A 
ATOM     25  C   UNL     1       5.922  -5.906  25.187  0.00  0.00    +0.015 A 
ATOM     26  C   UNL     1       5.469  -5.857  23.869  0.00  0.00    +0.001 A 
ATOM     27  C   UNL     1       6.253  -5.258  22.868  0.00  0.00    +0.001 A 
ATOM     28  C   UNL     1       7.851  -5.247  26.733  0.00  0.00    +0.343 C 
ATOM     29  O   UNL     1       7.469  -5.692  27.797  0.00  0.00    -0.245 OA
ATOM     30  C   UNL     1       7.492  -4.686  23.176  0.00  0.00    +0.012 A 
ATOM     31  O   UNL     1       9.023  -4.589  26.500  0.00  0.00    -0.417 OA
ENDBRANCH  21  22
ENDBRANCH  19  21
ENDBRANCH   6  19
TORSDOF 6
ENDMDL
MODEL 6
REMARK VINA RESULT:      -6.6      3.491      5.887
REMARK  Name = 
REMARK  6 active torsions:
REMARK  status: ('A' for Active; 'I' for Inactive)
REMARK    1  A    between atoms: C_2  and  C_5
REMARK    2  A    between atoms: C_7  and  N_8
REMARK    3  A    between atoms: N_8  and  C_9
REMARK    4  A    between atoms: C_10  and  C_15
REMARK    5  A    between atoms: C_15  and  O_17
REMARK    6  A    between atoms: O_17  and  C_18
REMARK                            x       y       z     vdW  Elec       q    Type
REMARK                         _______ _______ _______ _____ _____    ______ ____
ROOT
ATOM      1  C   UNL     1       7.035   0.525  24.960  0.00  0.00    +0.137 A 
ATOM      2  N   UNL     1       5.986   1.322  24.622  0.00  0.00    -0.239 NA
ATOM      3  C   UNL     1       6.059   2.062  23.496  0.00  0.00    +0.113 A 
ATOM      4  C   UNL     1       7.149   2.061  22.656  0.00  0.00    +0.021 A 
ATOM      5  C   UNL     1       8.236   1.265  23.002  0.00  0.00    +0.020 A 
ATOM      6  C   UNL     1       8.192   0.483  24.171  0.00  0.00    +0.099 A 
ENDROOT
BRANCH   1   7
ATOM      7  N   UNL     1       6.895  -0.278  26.110  0.00  0.00    -0.299 N 
ATOM      8  H   UNL     1       7.737  -0.276  26.673  0.00  0.00    +0.154 HD
BRANCH   7  13
ATOM      9  C   UNL     1       5.915  -3.803  26.855  0.00  0.00    +0.057 A 
ATOM     10  C   UNL     1       4.585  -3.795  26.415  0.00  0.00    +0.012 A 
ATOM     11  C   UNL     1       4.024  -2.630  25.893  0.00  0.00    +0.002 A 
ATOM     12  C   UNL     1       4.788  -1.463  25.801  0.00  0.00    +0.023 A 
ATOM     13  C   UNL     1       6.117  -1.443  26.239  0.00  0.00    +0.033 A 
ATOM     14  C   UNL     1       6.666  -2.623  26.757  0.00  0.00    +0.035 A 
BRANCH   9  16
ATOM     15  F   UNL     1       6.215  -5.285  28.728  0.00  0.00    -0.166 F 
ATOM     16  C   UNL     1       6.528  -5.057  27.421  0.00  0.00    +0.417 C 
ATOM     17  F   UNL     1       6.141  -6.175  26.748  0.00  0.00    -0.166 F 
ATOM     18  F   UNL     1       7.890  -5.042  27.366  0.00  0.00    -0.166 F 
ENDBRANCH   9  16
ENDBRANCH   7  13
ENDBRANCH   1   7
BRANCH   6  19
ATOM     19  C   UNL     1       9.388  -0.294  24.596  0.00  0.00    +0.346 C 
ATOM     20  O   UNL     1      10.522   0.141  24.667  0.00  0.00    -0.245 OA
BRANCH  19  21
ATOM     21  O   UNL     1       9.020  -1.564  24.873  0.00  0.00    -0.417 OA
BRANCH  21  22
ATOM     22  C   UNL     1       9.258  -2.514  23.838  0.00  0.00    +0.403 C 
ATOM     23  C   UNL     1       7.944  -3.046  23.405  0.00  0.00    +0.047 A 
ATOM     24  C   UNL     1       7.860  -4.375  23.759  0.00  0.00    +0.069 A 
ATOM     25  C   UNL     1       6.728  -5.139  23.532  0.00  0.00    +0.015 A 
ATOM     26  C   UNL     1       5.643  -4.514  22.916  0.00  0.00    +0.001 A 
ATOM     27  C   UNL     1       5.723  -3.164  22.533  0.00  0.00    +0.001 A 
ATOM     28  C   UNL     1       9.116  -4.773  24.375  0.00  0.00    +0.343 C 
ATOM     29  O   UNL     1       9.395  -5.880  24.792  0.00  0.00    -0.245 OA
ATOM     30  C   UNL     1       6.881  -2.418  22.775  0.00  0.00    +0.012 A 
ATOM     31  O   UNL     1       9.923  -3.674  24.379  0.00  0.00    -0.417 OA
ENDBRANCH  21  22
ENDBRANCH  19  21
ENDBRANCH   6  19
TORSDOF 6
ENDMDL
MODEL 7
REMARK VINA RESULT:      -6.6      3.799      6.855
REMARK  Name = 
REMARK  6 active torsions:
REMARK  status: ('A' for Active; 'I' for Inactive)
REMARK    1  A    between atoms: C_2  and  C_5
REMARK    2  A    between atoms: C_7  and  N_8
REMARK    3  A    between atoms: N_8  and  C_9
REMARK    4  A    between atoms: C_10  and  C_15
REMARK    5  A    between atoms: C_15  and  O_17
REMARK    6  A    between atoms: O_17  and  C_18
REMARK                            x       y       z     vdW  Elec       q    Type
REMARK                         _______ _______ _______ _____ _____    ______ ____
ROOT
ATOM      1  C   UNL     1       7.116   0.097  23.470  0.00  0.00    +0.137 A 
ATOM      2  N   UNL     1       8.097   0.725  22.767  0.00  0.00    -0.239 NA
ATOM      3  C   UNL     1       8.710   1.798  23.310  0.00  0.00    +0.113 A 
ATOM      4  C   UNL     1       8.397   2.305  24.550  0.00  0.00    +0.021 A 
ATOM      5  C   UNL     1       7.381   1.683  25.269  0.00  0.00    +0.020 A 
ATOM      6  C   UNL     1       6.721   0.564  24.730  0.00  0.00    +0.099 A 
ENDROOT
BRANCH   1   7
ATOM      7  N   UNL     1       6.542  -1.055  22.895  0.00  0.00    -0.299 N 
ATOM      8  H   UNL     1       5.538  -0.965  22.799  0.00  0.00    +0.154 HD
BRANCH   7  13
ATOM      9  C   UNL     1       6.790  -4.757  22.480  0.00  0.00    +0.057 A 
ATOM     10  C   UNL     1       7.843  -5.041  23.359  0.00  0.00    +0.012 A 
ATOM     11  C   UNL     1       8.467  -4.013  24.064  0.00  0.00    +0.002 A 
ATOM     12  C   UNL     1       8.041  -2.691  23.903  0.00  0.00    +0.023 A 
ATOM     13  C   UNL     1       6.994  -2.380  23.027  0.00  0.00    +0.033 A 
ATOM     14  C   UNL     1       6.376  -3.426  22.329  0.00  0.00    +0.035 A 
BRANCH   9  16
ATOM     15  F   UNL     1       6.106  -5.676  20.363  0.00  0.00    -0.166 F 
ATOM     16  C   UNL     1       6.111  -5.862  21.714  0.00  0.00    +0.417 C 
ATOM     17  F   UNL     1       6.697  -7.074  21.918  0.00  0.00    -0.166 F 
ATOM     18  F   UNL     1       4.804  -6.016  22.068  0.00  0.00    -0.166 F 
ENDBRANCH   9  16
ENDBRANCH   7  13
ENDBRANCH   1   7
BRANCH   6  19
ATOM     19  C   UNL     1       5.570  -0.043  25.452  0.00  0.00    +0.346 C 
ATOM     20  O   UNL     1       4.518   0.516  25.699  0.00  0.00    -0.245 OA
BRANCH  19  21
ATOM     21  O   UNL     1       5.884  -1.309  25.806  0.00  0.00    -0.417 OA
BRANCH  21  22
ATOM     22  C   UNL     1       4.799  -2.102  26.281  0.00  0.00    +0.403 C 
ATOM     23  C   UNL     1       5.319  -3.467  26.534  0.00  0.00    +0.047 A 
ATOM     24  C   UNL     1       4.751  -4.338  25.630  0.00  0.00    +0.069 A 
ATOM     25  C   UNL     1       5.077  -5.682  25.581  0.00  0.00    +0.015 A 
ATOM     26  C   UNL     1       6.019  -6.150  26.498  0.00  0.00    +0.001 A 
ATOM     27  C   UNL     1       6.591  -5.276  27.438  0.00  0.00    +0.001 A 
ATOM     28  C   UNL     1       3.811  -3.601  24.801  0.00  0.00    +0.343 C 
ATOM     29  O   UNL     1       3.123  -4.058  23.910  0.00  0.00    -0.245 OA
ATOM     30  C   UNL     1       6.241  -3.922  27.463  0.00  0.00    +0.012 A 
ATOM     31  O   UNL     1       3.838  -2.305  25.224  0.00  0.00    -0.417 OA
ENDBRANCH  21  22
ENDBRANCH  19  21
ENDBRANCH   6  19
TORSDOF 6
ENDMDL
MODEL 8
REMARK VINA RESULT:      -6.4      3.831      6.716
REMARK  Name = 
REMARK  6 active torsions:
REMARK  status: ('A' for Active; 'I' for Inactive)
REMARK    1  A    between atoms: C_2  and  C_5
REMARK    2  A    between atoms: C_7  and  N_8
REMARK    3  A    between atoms: N_8  and  C_9
REMARK    4  A    between atoms: C_10  and  C_15
REMARK    5  A    between atoms: C_15  and  O_17
REMARK    6  A    between atoms: O_17  and  C_18
REMARK                            x       y       z     vdW  Elec       q    Type
REMARK                         _______ _______ _______ _____ _____    ______ ____
ROOT
ATOM      1  C   UNL     1       9.161  -0.505  24.989  0.00  0.00    +0.137 A 
ATOM      2  N   UNL     1      10.465  -0.122  25.054  0.00  0.00    -0.239 NA
ATOM      3  C   UNL     1      10.936   0.762  24.150  0.00  0.00    +0.113 A 
ATOM      4  C   UNL     1      10.165   1.306  23.147  0.00  0.00    +0.021 A 
ATOM      5  C   UNL     1       8.836   0.906  23.059  0.00  0.00    +0.020 A 
ATOM      6  C   UNL     1       8.315  -0.016  23.986  0.00  0.00    +0.099 A 
ENDROOT
BRANCH   1   7
ATOM      7  N   UNL     1       8.693  -1.383  25.988  0.00  0.00    -0.299 N 
ATOM      8  H   UNL     1       8.973  -1.082  26.913  0.00  0.00    +0.154 HD
BRANCH   7  13
ATOM      9  C   UNL     1       7.387  -4.826  26.604  0.00  0.00    +0.057 A 
ATOM     10  C   UNL     1       8.154  -5.556  25.688  0.00  0.00    +0.012 A 
ATOM     11  C   UNL     1       9.078  -4.908  24.869  0.00  0.00    +0.002 A 
ATOM     12  C   UNL     1       9.250  -3.524  24.964  0.00  0.00    +0.023 A 
ATOM     13  C   UNL     1       8.492  -2.770  25.868  0.00  0.00    +0.033 A 
ATOM     14  C   UNL     1       7.570  -3.438  26.684  0.00  0.00    +0.035 A 
BRANCH   9  16
ATOM     15  F   UNL     1       5.734  -6.554  26.885  0.00  0.00    -0.166 F 
ATOM     16  C   UNL     1       6.385  -5.519  27.490  0.00  0.00    +0.417 C 
ATOM     17  F   UNL     1       6.956  -6.045  28.609  0.00  0.00    -0.166 F 
ATOM     18  F   UNL     1       5.408  -4.678  27.931  0.00  0.00    -0.166 F 
ENDBRANCH   9  16
ENDBRANCH   7  13
ENDBRANCH   1   7
BRANCH   6  19
ATOM     19  C   UNL     1       6.923  -0.519  23.836  0.00  0.00    +0.346 C 
ATOM     20  O   UNL     1       5.923   0.173  23.804  0.00  0.00    -0.245 OA
BRANCH  19  21
ATOM     21  O   UNL     1       6.942  -1.868  23.759  0.00  0.00    -0.417 OA
BRANCH  21  22
ATOM     22  C   UNL     1       6.064  -2.442  22.794  0.00  0.00    +0.403 C 
ATOM     23  C   UNL     1       5.246  -3.467  23.486  0.00  0.00    +0.047 A 
ATOM     24  C   UNL     1       5.588  -4.712  23.006  0.00  0.00    +0.069 A 
ATOM     25  C   UNL     1       5.031  -5.881  23.495  0.00  0.00    +0.015 A 
ATOM     26  C   UNL     1       4.082  -5.765  24.512  0.00  0.00    +0.001 A 
ATOM     27  C   UNL     1       3.710  -4.500  24.997  0.00  0.00    +0.001 A 
ATOM     28  C   UNL     1       6.585  -4.550  21.959  0.00  0.00    +0.343 C 
ATOM     29  O   UNL     1       7.098  -5.439  21.309  0.00  0.00    -0.245 OA
ATOM     30  C   UNL     1       4.292  -3.336  24.483  0.00  0.00    +0.012 A 
ATOM     31  O   UNL     1       6.820  -3.212  21.837  0.00  0.00    -0.417 OA
ENDBRANCH  21  22
ENDBRANCH  19  21
ENDBRANCH   6  19
TORSDOF 6
ENDMDL
MODEL 9
REMARK VINA RESULT:      -6.4      3.376      6.169
REMARK  Name = 
REMARK  6 active torsions:
REMARK  status: ('A' for Active; 'I' for Inactive)
REMARK    1  A    between atoms: C_2  and  C_5
REMARK    2  A    between atoms: C_7  and  N_8
REMARK    3  A    between atoms: N_8  and  C_9
REMARK    4  A    between atoms: C_10  and  C_15
REMARK    5  A    between atoms: C_15  and  O_17
REMARK    6  A    between atoms: O_17  and  C_18
REMARK                            x       y       z     vdW  Elec       q    Type
REMARK                         _______ _______ _______ _____ _____    ______ ____
ROOT
ATOM      1  C   UNL     1       6.152  -0.728  26.376  0.00  0.00    +0.137 A 
ATOM      2  N   UNL     1       5.487  -0.506  27.542  0.00  0.00    -0.239 NA
ATOM      3  C   UNL     1       4.651   0.550  27.631  0.00  0.00    +0.113 A 
ATOM      4  C   UNL     1       4.428   1.432  26.598  0.00  0.00    +0.021 A 
ATOM      5  C   UNL     1       5.118   1.226  25.408  0.00  0.00    +0.020 A 
ATOM      6  C   UNL     1       5.999   0.136  25.284  0.00  0.00    +0.099 A 
ENDROOT
BRANCH   1   7
ATOM      7  N   UNL     1       6.968  -1.874  26.303  0.00  0.00    -0.299 N 
ATOM      8  H   UNL     1       7.833  -1.688  25.810  0.00  0.00    +0.154 HD
BRANCH   7  13
ATOM      9  C   UNL     1       4.918  -4.889  25.501  0.00  0.00    +0.057 A 
ATOM     10  C   UNL     1       5.643  -5.877  26.179  0.00  0.00    +0.012 A 
ATOM     11  C   UNL     1       6.803  -5.544  26.877  0.00  0.00    +0.002 A 
ATOM     12  C   UNL     1       7.246  -4.218  26.910  0.00  0.00    +0.023 A 
ATOM     13  C   UNL     1       6.542  -3.213  26.237  0.00  0.00    +0.033 A 
ATOM     14  C   UNL     1       5.377  -3.566  25.543  0.00  0.00    +0.035 A 
BRANCH   9  16
ATOM     15  F   UNL     1       3.736  -6.431  24.079  0.00  0.00    -0.166 F 
ATOM     16  C   UNL     1       3.665  -5.242  24.743  0.00  0.00    +0.417 C 
ATOM     17  F   UNL     1       2.575  -5.336  25.554  0.00  0.00    -0.166 F 
ATOM     18  F   UNL     1       3.347  -4.312  23.799  0.00  0.00    -0.166 F 
ENDBRANCH   9  16
ENDBRANCH   7  13
ENDBRANCH   1   7
BRANCH   6  19
ATOM     19  C   UNL     1       6.810  -0.031  24.048  0.00  0.00    +0.346 C 
ATOM     20  O   UNL     1       7.643   0.756  23.639  0.00  0.00    -0.245 OA
BRANCH  19  21
ATOM     21  O   UNL     1       6.465  -1.188  23.441  0.00  0.00    -0.417 OA
BRANCH  21  22
ATOM     22  C   UNL     1       7.491  -1.808  22.670  0.00  0.00    +0.403 C 
ATOM     23  C   UNL     1       7.073  -3.207  22.410  0.00  0.00    +0.047 A 
ATOM     24  C   UNL     1       7.919  -4.060  23.084  0.00  0.00    +0.069 A 
ATOM     25  C   UNL     1       7.755  -5.434  23.078  0.00  0.00    +0.015 A 
ATOM     26  C   UNL     1       6.684  -5.952  22.349  0.00  0.00    +0.001 A 
ATOM     27  C   UNL     1       5.825  -5.094  21.641  0.00  0.00    +0.001 A 
ATOM     28  C   UNL     1       8.940  -3.270  23.754  0.00  0.00    +0.343 C 
ATOM     29  O   UNL     1       9.857  -3.699  24.426  0.00  0.00    -0.245 OA
ATOM     30  C   UNL     1       6.016  -3.708  21.667  0.00  0.00    +0.012 A 
ATOM     31  O   UNL     1       8.682  -1.962  23.468  0.00  0.00    -0.417 OA
ENDBRANCH  21  22
ENDBRANCH  19  21
ENDBRANCH   6  19
TORSDOF 6
ENDMDL
