MODEL 1
REMARK VINA RESULT:      -6.8      0.000      0.000
REMARK  Name = 
REMARK  8 active torsions:
REMARK  status: ('A' for Active; 'I' for Inactive)
REMARK    1  A    between atoms: C_1  and  C_2
REMARK    2  A    between atoms: C_2  and  C_3
REMARK    3  A    between atoms: N_10  and  O_11
REMARK    4  A    between atoms: O_11  and  C_12
REMARK    5  A    between atoms: C_12  and  C_13
REMARK    6  A    between atoms: C_13  and  C_14
REMARK    7  A    between atoms: C_14  and  O_15
REMARK    8  A    between atoms: O_15  and  C_16
REMARK                            x       y       z     vdW  Elec       q    Type
REMARK                         _______ _______ _______ _____ _____    ______ ____
ROOT
ATOM      1  C   UNL     1       4.923  -6.148  24.380  0.00  0.00    +0.101 C 
ATOM      2  C   UNL     1       5.368  -5.462  25.679  0.00  0.00    +0.265 C 
ATOM      3  N   UNL     1       6.793  -5.127  25.577  0.00  0.00    -0.084 N 
ATOM      4  C   UNL     1       7.489  -5.289  26.750  0.00  0.00    +0.415 C 
ATOM      5  N   UNL     1       8.705  -4.679  26.823  0.00  0.00    -0.247 N 
ATOM      6  H   UNL     1       9.180  -4.633  25.933  0.00  0.00    +0.241 HD
ATOM      7  H   UNL     1       9.272  -5.066  27.568  0.00  0.00    +0.241 HD
ATOM      8  N   UNL     1       7.095  -5.996  27.760  0.00  0.00    -0.005 NA
ATOM      9  C   UNL     1       5.893  -6.621  27.657  0.00  0.00    +0.420 C 
ATOM     10  N   UNL     1       5.579  -7.499  28.641  0.00  0.00    -0.247 N 
ATOM     11  H   UNL     1       6.049  -7.292  29.511  0.00  0.00    +0.241 HD
ATOM     12  H   UNL     1       4.579  -7.632  28.724  0.00  0.00    +0.241 HD
ATOM     13  N   UNL     1       5.028  -6.422  26.731  0.00  0.00    -0.066 NA
ATOM     14  C   UNL     1       4.513  -4.212  25.942  0.00  0.00    +0.101 C 
ENDROOT
BRANCH   3  15
ATOM     15  O   UNL     1       7.100  -3.941  24.861  0.00  0.00    -0.213 OA
BRANCH  15  16
ATOM     16  C   UNL     1       7.689  -4.318  23.610  0.00  0.00    +0.213 C 
BRANCH  16  17
ATOM     17  C   UNL     1       8.368  -3.118  22.951  0.00  0.00    +0.073 C 
BRANCH  17  18
ATOM     18  C   UNL     1       9.607  -2.661  23.714  0.00  0.00    +0.231 C 
BRANCH  18  19
ATOM     19  O   UNL     1      10.408  -1.846  22.852  0.00  0.00    -0.492 OA
BRANCH  19  20
ATOM     20  C   UNL     1      10.235  -0.490  22.960  0.00  0.00    +0.121 A 
ATOM     21  C   UNL     1      10.441   0.043  24.238  0.00  0.00    +0.047 A 
ATOM     22  C   UNL     1      10.311   1.416  24.469  0.00  0.00    +0.019 A 
ATOM     23  C   UNL     1       9.971   2.262  23.417  0.00  0.00    +0.018 A 
ATOM     24 BR   UNL     1       9.810   4.122  23.710  0.00  0.00    -0.050 Br
ATOM     25  C   UNL     1       9.752   1.744  22.143  0.00  0.00    +0.019 A 
ATOM     26  C   UNL     1       9.884   0.369  21.915  0.00  0.00    +0.047 A 
ENDBRANCH  19  20
ENDBRANCH  18  19
ENDBRANCH  17  18
ENDBRANCH  16  17
ENDBRANCH  15  16
ENDBRANCH   3  15
TORSDOF 6
ENDMDL
MODEL 2
REMARK VINA RESULT:      -6.8      1.700      2.618
REMARK  Name = 
REMARK  8 active torsions:
REMARK  status: ('A' for Active; 'I' for Inactive)
REMARK    1  A    between atoms: C_1  and  C_2
REMARK    2  A    between atoms: C_2  and  C_3
REMARK    3  A    between atoms: N_10  and  O_11
REMARK    4  A    between atoms: O_11  and  C_12
REMARK    5  A    between atoms: C_12  and  C_13
REMARK    6  A    between atoms: C_13  and  C_14
REMARK    7  A    between atoms: C_14  and  O_15
REMARK    8  A    between atoms: O_15  and  C_16
REMARK                            x       y       z     vdW  Elec       q    Type
REMARK                         _______ _______ _______ _____ _____    ______ ____
ROOT
ATOM      1  C   UNL     1       6.761  -5.013  21.813  0.00  0.00    +0.101 C 
ATOM      2  C   UNL     1       5.757  -4.844  22.962  0.00  0.00    +0.265 C 
ATOM      3  N   UNL     1       6.382  -5.292  24.211  0.00  0.00    -0.084 N 
ATOM      4  C   UNL     1       5.524  -5.951  25.058  0.00  0.00    +0.415 C 
ATOM      5  N   UNL     1       5.930  -6.082  26.351  0.00  0.00    -0.247 N 
ATOM      6  H   UNL     1       6.932  -6.172  26.446  0.00  0.00    +0.241 HD
ATOM      7  H   UNL     1       5.411  -6.805  26.834  0.00  0.00    +0.241 HD
ATOM      8  N   UNL     1       4.393  -6.477  24.712  0.00  0.00    -0.005 NA
ATOM      9  C   UNL     1       4.018  -6.362  23.412  0.00  0.00    +0.420 C 
ATOM     10  N   UNL     1       2.927  -7.070  23.029  0.00  0.00    -0.247 N 
ATOM     11  H   UNL     1       2.298  -7.259  23.796  0.00  0.00    +0.241 HD
ATOM     12  H   UNL     1       2.485  -6.671  22.211  0.00  0.00    +0.241 HD
ATOM     13  N   UNL     1       4.587  -5.617  22.537  0.00  0.00    -0.066 NA
ATOM     14  C   UNL     1       5.296  -3.380  23.055  0.00  0.00    +0.101 C 
ENDROOT
BRANCH   3  15
ATOM     15  O   UNL     1       7.241  -4.357  24.843  0.00  0.00    -0.213 OA
BRANCH  15  16
ATOM     16  C   UNL     1       8.588  -4.823  24.695  0.00  0.00    +0.213 C 
BRANCH  16  17
ATOM     17  C   UNL     1       9.549  -3.648  24.513  0.00  0.00    +0.073 C 
BRANCH  17  18
ATOM     18  C   UNL     1       9.079  -2.678  23.434  0.00  0.00    +0.231 C 
BRANCH  18  19
ATOM     19  O   UNL     1      10.214  -1.974  22.917  0.00  0.00    -0.492 OA
BRANCH  19  20
ATOM     20  C   UNL     1      10.169  -0.605  22.992  0.00  0.00    +0.121 A 
ATOM     21  C   UNL     1      10.428  -0.063  24.256  0.00  0.00    +0.047 A 
ATOM     22  C   UNL     1      10.429   1.322  24.453  0.00  0.00    +0.019 A 
ATOM     23  C   UNL     1      10.165   2.169  23.380  0.00  0.00    +0.018 A 
ATOM     24 BR   UNL     1      10.180   4.043  23.627  0.00  0.00    -0.050 Br
ATOM     25  C   UNL     1       9.894   1.643  22.120  0.00  0.00    +0.019 A 
ATOM     26  C   UNL     1       9.895   0.257  21.927  0.00  0.00    +0.047 A 
ENDBRANCH  19  20
ENDBRANCH  18  19
ENDBRANCH  17  18
ENDBRANCH  16  17
ENDBRANCH  15  16
ENDBRANCH   3  15
TORSDOF 6
ENDMDL
MODEL 3
REMARK VINA RESULT:      -6.8      1.235      2.228
REMARK  Name = 
REMARK  8 active torsions:
REMARK  status: ('A' for Active; 'I' for Inactive)
REMARK    1  A    between atoms: C_1  and  C_2
REMARK    2  A    between atoms: C_2  and  C_3
REMARK    3  A    between atoms: N_10  and  O_11
REMARK    4  A    between atoms: O_11  and  C_12
REMARK    5  A    between atoms: C_12  and  C_13
REMARK    6  A    between atoms: C_13  and  C_14
REMARK    7  A    between atoms: C_14  and  O_15
REMARK    8  A    between atoms: O_15  and  C_16
REMARK                            x       y       z     vdW  Elec       q    Type
REMARK                         _______ _______ _______ _____ _____    ______ ____
ROOT
ATOM      1  C   UNL     1       8.024  -3.088  26.377  0.00  0.00    +0.101 C 
ATOM      2  C   UNL     1       7.764  -4.575  26.093  0.00  0.00    +0.265 C 
ATOM      3  N   UNL     1       6.579  -4.696  25.236  0.00  0.00    -0.084 N 
ATOM      4  C   UNL     1       5.782  -5.773  25.537  0.00  0.00    +0.415 C 
ATOM      5  N   UNL     1       4.880  -6.144  24.587  0.00  0.00    -0.247 N 
ATOM      6  H   UNL     1       4.528  -5.366  24.047  0.00  0.00    +0.241 HD
ATOM      7  H   UNL     1       4.151  -6.733  24.973  0.00  0.00    +0.241 HD
ATOM      8  N   UNL     1       5.803  -6.428  26.654  0.00  0.00    -0.005 NA
ATOM      9  C   UNL     1       6.689  -6.025  27.601  0.00  0.00    +0.420 C 
ATOM     10  N   UNL     1       6.574  -6.599  28.824  0.00  0.00    -0.247 N 
ATOM     11  H   UNL     1       6.148  -7.513  28.785  0.00  0.00    +0.241 HD
ATOM     12  H   UNL     1       7.443  -6.561  29.343  0.00  0.00    +0.241 HD
ATOM     13  N   UNL     1       7.637  -5.180  27.421  0.00  0.00    -0.066 NA
ATOM     14  C   UNL     1       8.999  -5.217  25.442  0.00  0.00    +0.101 C 
ENDROOT
BRANCH   3  15
ATOM     15  O   UNL     1       6.795  -4.483  23.850  0.00  0.00    -0.213 OA
BRANCH  15  16
ATOM     16  C   UNL     1       6.041  -3.330  23.456  0.00  0.00    +0.213 C 
BRANCH  16  17
ATOM     17  C   UNL     1       6.969  -2.152  23.164  0.00  0.00    +0.073 C 
BRANCH  17  18
ATOM     18  C   UNL     1       8.194  -2.567  22.355  0.00  0.00    +0.231 C 
BRANCH  18  19
ATOM     19  O   UNL     1       9.374  -2.195  23.077  0.00  0.00    -0.492 OA
BRANCH  19  20
ATOM     20  C   UNL     1       9.700  -0.863  23.070  0.00  0.00    +0.121 A 
ATOM     21  C   UNL     1      10.142  -0.346  24.293  0.00  0.00    +0.047 A 
ATOM     22  C   UNL     1      10.521   0.996  24.406  0.00  0.00    +0.019 A 
ATOM     23  C   UNL     1      10.454   1.826  23.290  0.00  0.00    +0.018 A 
ATOM     24 BR   UNL     1      10.979   3.637  23.423  0.00  0.00    -0.050 Br
ATOM     25  C   UNL     1      10.004   1.327  22.070  0.00  0.00    +0.019 A 
ATOM     26  C   UNL     1       9.627  -0.016  21.961  0.00  0.00    +0.047 A 
ENDBRANCH  19  20
ENDBRANCH  18  19
ENDBRANCH  17  18
ENDBRANCH  16  17
ENDBRANCH  15  16
ENDBRANCH   3  15
TORSDOF 6
ENDMDL
MODEL 4
REMARK VINA RESULT:      -6.6      1.559      2.342
REMARK  Name = 
REMARK  8 active torsions:
REMARK  status: ('A' for Active; 'I' for Inactive)
REMARK    1  A    between atoms: C_1  and  C_2
REMARK    2  A    between atoms: C_2  and  C_3
REMARK    3  A    between atoms: N_10  and  O_11
REMARK    4  A    between atoms: O_11  and  C_12
REMARK    5  A    between atoms: C_12  and  C_13
REMARK    6  A    between atoms: C_13  and  C_14
REMARK    7  A    between atoms: C_14  and  O_15
REMARK    8  A    between atoms: O_15  and  C_16
REMARK                            x       y       z     vdW  Elec       q    Type
REMARK                         _______ _______ _______ _____ _____    ______ ____
ROOT
ATOM      1  C   UNL     1       5.783  -3.491  25.796  0.00  0.00    +0.101 C 
ATOM      2  C   UNL     1       6.118  -4.918  25.338  0.00  0.00    +0.265 C 
ATOM      3  N   UNL     1       5.957  -5.001  23.882  0.00  0.00    -0.084 N 
ATOM      4  C   UNL     1       5.429  -6.193  23.447  0.00  0.00    +0.415 C 
ATOM      5  N   UNL     1       5.576  -6.473  22.123  0.00  0.00    -0.247 N 
ATOM      6  H   UNL     1       5.562  -5.649  21.538  0.00  0.00    +0.241 HD
ATOM      7  H   UNL     1       4.933  -7.196  21.821  0.00  0.00    +0.241 HD
ATOM      8  N   UNL     1       4.785  -7.037  24.187  0.00  0.00    -0.005 NA
ATOM      9  C   UNL     1       4.623  -6.727  25.499  0.00  0.00    +0.420 C 
ATOM     10  N   UNL     1       3.795  -7.527  26.215  0.00  0.00    -0.247 N 
ATOM     11  H   UNL     1       3.726  -8.458  25.830  0.00  0.00    +0.241 HD
ATOM     12  H   UNL     1       4.002  -7.495  27.206  0.00  0.00    +0.241 HD
ATOM     13  N   UNL     1       5.214  -5.769  26.115  0.00  0.00    -0.066 NA
ATOM     14  C   UNL     1       7.544  -5.295  25.770  0.00  0.00    +0.101 C 
ENDROOT
BRANCH   3  15
ATOM     15  O   UNL     1       7.043  -4.514  23.111  0.00  0.00    -0.213 OA
BRANCH  15  16
ATOM     16  C   UNL     1       6.622  -3.304  22.467  0.00  0.00    +0.213 C 
BRANCH  16  17
ATOM     17  C   UNL     1       7.710  -2.235  22.562  0.00  0.00    +0.073 C 
BRANCH  17  18
ATOM     18  C   UNL     1       8.905  -2.697  23.391  0.00  0.00    +0.231 C 
BRANCH  18  19
ATOM     19  O   UNL     1      10.080  -2.023  22.924  0.00  0.00    -0.492 OA
BRANCH  19  20
ATOM     20  C   UNL     1      10.070  -0.654  23.003  0.00  0.00    +0.121 A 
ATOM     21  C   UNL     1      10.203  -0.125  24.292  0.00  0.00    +0.047 A 
ATOM     22  C   UNL     1      10.226   1.258  24.498  0.00  0.00    +0.019 A 
ATOM     23  C   UNL     1      10.111   2.118  23.409  0.00  0.00    +0.018 A 
ATOM     24 BR   UNL     1      10.158   3.989  23.669  0.00  0.00    -0.050 Br
ATOM     25  C   UNL     1       9.966   1.605  22.122  0.00  0.00    +0.019 A 
ATOM     26  C   UNL     1       9.944   0.220  21.921  0.00  0.00    +0.047 A 
ENDBRANCH  19  20
ENDBRANCH  18  19
ENDBRANCH  17  18
ENDBRANCH  16  17
ENDBRANCH  15  16
ENDBRANCH   3  15
TORSDOF 6
ENDMDL
MODEL 5
REMARK VINA RESULT:      -6.4      2.530      4.039
REMARK  Name = 
REMARK  8 active torsions:
REMARK  status: ('A' for Active; 'I' for Inactive)
REMARK    1  A    between atoms: C_1  and  C_2
REMARK    2  A    between atoms: C_2  and  C_3
REMARK    3  A    between atoms: N_10  and  O_11
REMARK    4  A    between atoms: O_11  and  C_12
REMARK    5  A    between atoms: C_12  and  C_13
REMARK    6  A    between atoms: C_13  and  C_14
REMARK    7  A    between atoms: C_14  and  O_15
REMARK    8  A    between atoms: O_15  and  C_16
REMARK                            x       y       z     vdW  Elec       q    Type
REMARK                         _______ _______ _______ _____ _____    ______ ____
ROOT
ATOM      1  C   UNL     1       7.533  -3.315  22.903  0.00  0.00    +0.101 C 
ATOM      2  C   UNL     1       7.528  -4.687  23.592  0.00  0.00    +0.265 C 
ATOM      3  N   UNL     1       6.475  -4.704  24.613  0.00  0.00    -0.084 N 
ATOM      4  C   UNL     1       6.817  -5.388  25.755  0.00  0.00    +0.415 C 
ATOM      5  N   UNL     1       5.793  -5.739  26.581  0.00  0.00    -0.247 N 
ATOM      6  H   UNL     1       5.033  -5.074  26.577  0.00  0.00    +0.241 HD
ATOM      7  H   UNL     1       6.126  -5.969  27.510  0.00  0.00    +0.241 HD
ATOM      8  N   UNL     1       8.025  -5.687  26.111  0.00  0.00    -0.005 NA
ATOM      9  C   UNL     1       9.036  -5.303  25.289  0.00  0.00    +0.420 C 
ATOM     10  N   UNL     1      10.297  -5.461  25.761  0.00  0.00    -0.247 N 
ATOM     11  H   UNL     1      10.363  -6.193  26.454  0.00  0.00    +0.241 HD
ATOM     12  H   UNL     1      10.976  -5.526  25.013  0.00  0.00    +0.241 HD
ATOM     13  N   UNL     1       8.893  -4.841  24.101  0.00  0.00    -0.066 NA
ATOM     14  C   UNL     1       7.325  -5.803  22.555  0.00  0.00    +0.101 C 
ENDROOT
BRANCH   3  15
ATOM     15  O   UNL     1       5.160  -4.952  24.142  0.00  0.00    -0.213 OA
BRANCH  15  16
ATOM     16  C   UNL     1       4.524  -3.687  23.920  0.00  0.00    +0.213 C 
BRANCH  16  17
ATOM     17  C   UNL     1       3.723  -3.263  25.151  0.00  0.00    +0.073 C 
BRANCH  17  18
ATOM     18  C   UNL     1       4.527  -2.363  26.084  0.00  0.00    +0.231 C 
BRANCH  18  19
ATOM     19  O   UNL     1       4.699  -1.085  25.461  0.00  0.00    -0.492 OA
BRANCH  19  20
ATOM     20  C   UNL     1       5.991  -0.685  25.237  0.00  0.00    +0.121 A 
ATOM     21  C   UNL     1       6.960  -1.306  26.034  0.00  0.00    +0.047 A 
ATOM     22  C   UNL     1       8.315  -0.994  25.885  0.00  0.00    +0.019 A 
ATOM     23  C   UNL     1       8.704  -0.053  24.936  0.00  0.00    +0.018 A 
ATOM     24 BR   UNL     1      10.534   0.366  24.711  0.00  0.00    -0.050 Br
ATOM     25  C   UNL     1       7.750   0.581  24.144  0.00  0.00    +0.019 A 
ATOM     26  C   UNL     1       6.395   0.266  24.296  0.00  0.00    +0.047 A 
ENDBRANCH  19  20
ENDBRANCH  18  19
ENDBRANCH  17  18
ENDBRANCH  16  17
ENDBRANCH  15  16
ENDBRANCH   3  15
TORSDOF 6
ENDMDL
MODEL 6
REMARK VINA RESULT:      -6.3      5.774      9.056
REMARK  Name = 
REMARK  8 active torsions:
REMARK  status: ('A' for Active; 'I' for Inactive)
REMARK    1  A    between atoms: C_1  and  C_2
REMARK    2  A    between atoms: C_2  and  C_3
REMARK    3  A    between atoms: N_10  and  O_11
REMARK    4  A    between atoms: O_11  and  C_12
REMARK    5  A    between atoms: C_12  and  C_13
REMARK    6  A    between atoms: C_13  and  C_14
REMARK    7  A    between atoms: C_14  and  O_15
REMARK    8  A    between atoms: O_15  and  C_16
REMARK                            x       y       z     vdW  Elec       q    Type
REMARK                         _______ _______ _______ _____ _____    ______ ____
ROOT
ATOM      1  C   UNL     1      10.401   5.376  24.085  0.00  0.00    +0.101 C 
ATOM      2  C   UNL     1       8.944   4.911  23.951  0.00  0.00    +0.265 C 
ATOM      3  N   UNL     1       8.925   3.572  23.350  0.00  0.00    -0.084 N 
ATOM      4  C   UNL     1       7.888   3.370  22.472  0.00  0.00    +0.415 C 
ATOM      5  N   UNL     1       7.606   2.076  22.154  0.00  0.00    -0.247 N 
ATOM      6  H   UNL     1       8.423   1.482  22.146  0.00  0.00    +0.241 HD
ATOM      7  H   UNL     1       7.049   2.012  21.310  0.00  0.00    +0.241 HD
ATOM      8  N   UNL     1       7.194   4.307  21.909  0.00  0.00    -0.005 NA
ATOM      9  C   UNL     1       7.509   5.592  22.216  0.00  0.00    +0.420 C 
ATOM     10  N   UNL     1       6.900   6.558  21.486  0.00  0.00    -0.247 N 
ATOM     11  H   UNL     1       6.015   6.256  21.105  0.00  0.00    +0.241 HD
ATOM     12  H   UNL     1       6.867   7.441  21.979  0.00  0.00    +0.241 HD
ATOM     13  N   UNL     1       8.301   5.959  23.156  0.00  0.00    -0.066 NA
ATOM     14  C   UNL     1       8.253   4.923  25.323  0.00  0.00    +0.101 C 
ENDROOT
BRANCH   3  15
ATOM     15  O   UNL     1       9.174   2.493  24.237  0.00  0.00    -0.213 OA
BRANCH  15  16
ATOM     16  C   UNL     1      10.486   1.986  23.962  0.00  0.00    +0.213 C 
BRANCH  16  17
ATOM     17  C   UNL     1      10.647   0.574  24.523  0.00  0.00    +0.073 C 
BRANCH  17  18
ATOM     18  C   UNL     1       9.849  -0.458  23.733  0.00  0.00    +0.231 C 
BRANCH  18  19
ATOM     19  O   UNL     1       9.742  -1.656  24.511  0.00  0.00    -0.492 OA
BRANCH  19  20
ATOM     20  C   UNL     1       8.971  -2.659  23.983  0.00  0.00    +0.121 A 
ATOM     21  C   UNL     1       8.235  -2.316  22.844  0.00  0.00    +0.047 A 
ATOM     22  C   UNL     1       7.424  -3.260  22.205  0.00  0.00    +0.019 A 
ATOM     23  C   UNL     1       7.347  -4.555  22.710  0.00  0.00    +0.018 A 
ATOM     24 BR   UNL     1       6.271  -5.847  21.847  0.00  0.00    -0.050 Br
ATOM     25  C   UNL     1       8.065  -4.907  23.851  0.00  0.00    +0.019 A 
ATOM     26  C   UNL     1       8.875  -3.959  24.486  0.00  0.00    +0.047 A 
ENDBRANCH  19  20
ENDBRANCH  18  19
ENDBRANCH  17  18
ENDBRANCH  16  17
ENDBRANCH  15  16
ENDBRANCH   3  15
TORSDOF 6
ENDMDL
MODEL 7
REMARK VINA RESULT:      -6.3      1.894      3.060
REMARK  Name = 
REMARK  8 active torsions:
REMARK  status: ('A' for Active; 'I' for Inactive)
REMARK    1  A    between atoms: C_1  and  C_2
REMARK    2  A    between atoms: C_2  and  C_3
REMARK    3  A    between atoms: N_10  and  O_11
REMARK    4  A    between atoms: O_11  and  C_12
REMARK    5  A    between atoms: C_12  and  C_13
REMARK    6  A    between atoms: C_13  and  C_14
REMARK    7  A    between atoms: C_14  and  O_15
REMARK    8  A    between atoms: O_15  and  C_16
REMARK                            x       y       z     vdW  Elec       q    Type
REMARK                         _______ _______ _______ _____ _____    ______ ____
ROOT
ATOM      1  C   UNL     1       6.770  -3.412  26.846  0.00  0.00    +0.101 C 
ATOM      2  C   UNL     1       6.814  -4.946  26.789  0.00  0.00    +0.265 C 
ATOM      3  N   UNL     1       5.633  -5.429  26.064  0.00  0.00    -0.084 N 
ATOM      4  C   UNL     1       5.100  -6.587  26.578  0.00  0.00    +0.415 C 
ATOM      5  N   UNL     1       4.241  -7.269  25.770  0.00  0.00    -0.247 N 
ATOM      6  H   UNL     1       3.702  -6.667  25.165  0.00  0.00    +0.241 HD
ATOM      7  H   UNL     1       3.678  -7.927  26.295  0.00  0.00    +0.241 HD
ATOM      8  N   UNL     1       5.325  -7.049  27.766  0.00  0.00    -0.005 NA
ATOM      9  C   UNL     1       6.160  -6.340  28.567  0.00  0.00    +0.420 C 
ATOM     10  N   UNL     1       6.242  -6.735  29.861  0.00  0.00    -0.247 N 
ATOM     11  H   UNL     1       6.017  -7.712  29.984  0.00  0.00    +0.241 HD
ATOM     12  H   UNL     1       7.113  -6.447  30.291  0.00  0.00    +0.241 HD
ATOM     13  N   UNL     1       6.897  -5.359  28.192  0.00  0.00    -0.066 NA
ATOM     14  C   UNL     1       8.116  -5.418  26.122  0.00  0.00    +0.101 C 
ENDROOT
BRANCH   3  15
ATOM     15  O   UNL     1       5.716  -5.388  24.649  0.00  0.00    -0.213 OA
BRANCH  15  16
ATOM     16  C   UNL     1       4.694  -4.503  24.171  0.00  0.00    +0.213 C 
BRANCH  16  17
ATOM     17  C   UNL     1       5.312  -3.247  23.558  0.00  0.00    +0.073 C 
BRANCH  17  18
ATOM     18  C   UNL     1       5.874  -3.500  22.163  0.00  0.00    +0.231 C 
BRANCH  18  19
ATOM     19  O   UNL     1       7.288  -3.704  22.262  0.00  0.00    -0.492 OA
BRANCH  19  20
ATOM     20  C   UNL     1       8.030  -2.636  22.699  0.00  0.00    +0.121 A 
ATOM     21  C   UNL     1       8.944  -2.917  23.721  0.00  0.00    +0.047 A 
ATOM     22  C   UNL     1       9.770  -1.913  24.236  0.00  0.00    +0.019 A 
ATOM     23  C   UNL     1       9.679  -0.619  23.729  0.00  0.00    +0.018 A 
ATOM     24 BR   UNL     1      10.801   0.744  24.403  0.00  0.00    -0.050 Br
ATOM     25  C   UNL     1       8.765  -0.323  22.721  0.00  0.00    +0.019 A 
ATOM     26  C   UNL     1       7.941  -1.331  22.208  0.00  0.00    +0.047 A 
ENDBRANCH  19  20
ENDBRANCH  18  19
ENDBRANCH  17  18
ENDBRANCH  16  17
ENDBRANCH  15  16
ENDBRANCH   3  15
TORSDOF 6
ENDMDL
MODEL 8
REMARK VINA RESULT:      -6.2      4.789      7.973
REMARK  Name = 
REMARK  8 active torsions:
REMARK  status: ('A' for Active; 'I' for Inactive)
REMARK    1  A    between atoms: C_1  and  C_2
REMARK    2  A    between atoms: C_2  and  C_3
REMARK    3  A    between atoms: N_10  and  O_11
REMARK    4  A    between atoms: O_11  and  C_12
REMARK    5  A    between atoms: C_12  and  C_13
REMARK    6  A    between atoms: C_13  and  C_14
REMARK    7  A    between atoms: C_14  and  O_15
REMARK    8  A    between atoms: O_15  and  C_16
REMARK                            x       y       z     vdW  Elec       q    Type
REMARK                         _______ _______ _______ _____ _____    ______ ____
ROOT
ATOM      1  C   UNL     1       9.821   0.779  21.853  0.00  0.00    +0.101 C 
ATOM      2  C   UNL     1       8.932   1.431  22.921  0.00  0.00    +0.265 C 
ATOM      3  N   UNL     1       7.899   0.472  23.331  0.00  0.00    -0.084 N 
ATOM      4  C   UNL     1       6.674   1.044  23.574  0.00  0.00    +0.415 C 
ATOM      5  N   UNL     1       5.783   0.293  24.279  0.00  0.00    -0.247 N 
ATOM      6  H   UNL     1       5.874  -0.698  24.106  0.00  0.00    +0.241 HD
ATOM      7  H   UNL     1       4.837   0.639  24.174  0.00  0.00    +0.241 HD
ATOM      8  N   UNL     1       6.300   2.212  23.159  0.00  0.00    -0.005 NA
ATOM      9  C   UNL     1       7.191   2.935  22.432  0.00  0.00    +0.420 C 
ATOM     10  N   UNL     1       6.725   4.069  21.854  0.00  0.00    -0.247 N 
ATOM     11  H   UNL     1       5.930   4.456  22.343  0.00  0.00    +0.241 HD
ATOM     12  H   UNL     1       7.468   4.731  21.667  0.00  0.00    +0.241 HD
ATOM     13  N   UNL     1       8.432   2.650  22.281  0.00  0.00    -0.066 NA
ATOM     14  C   UNL     1       9.783   1.887  24.116  0.00  0.00    +0.101 C 
ENDROOT
BRANCH   3  15
ATOM     15  O   UNL     1       8.301  -0.502  24.280  0.00  0.00    -0.213 OA
BRANCH  15  16
ATOM     16  C   UNL     1       8.133  -1.795  23.685  0.00  0.00    +0.213 C 
BRANCH  16  17
ATOM     17  C   UNL     1       9.437  -2.590  23.747  0.00  0.00    +0.073 C 
BRANCH  17  18
ATOM     18  C   UNL     1       9.374  -3.729  24.761  0.00  0.00    +0.231 C 
BRANCH  18  19
ATOM     19  O   UNL     1       8.992  -4.932  24.083  0.00  0.00    -0.492 OA
BRANCH  19  20
ATOM     20  C   UNL     1       7.646  -5.164  23.964  0.00  0.00    +0.121 A 
ATOM     21  C   UNL     1       7.208  -5.519  22.683  0.00  0.00    +0.047 A 
ATOM     22  C   UNL     1       5.859  -5.798  22.441  0.00  0.00    +0.019 A 
ATOM     23  C   UNL     1       4.941  -5.719  23.485  0.00  0.00    +0.018 A 
ATOM     24 BR   UNL     1       3.118  -6.111  23.177  0.00  0.00    -0.050 Br
ATOM     25  C   UNL     1       5.361  -5.355  24.762  0.00  0.00    +0.019 A 
ATOM     26  C   UNL     1       6.712  -5.077  25.000  0.00  0.00    +0.047 A 
ENDBRANCH  19  20
ENDBRANCH  18  19
ENDBRANCH  17  18
ENDBRANCH  16  17
ENDBRANCH  15  16
ENDBRANCH   3  15
TORSDOF 6
ENDMDL
MODEL 9
REMARK VINA RESULT:      -6.2      1.839      2.524
REMARK  Name = 
REMARK  8 active torsions:
REMARK  status: ('A' for Active; 'I' for Inactive)
REMARK    1  A    between atoms: C_1  and  C_2
REMARK    2  A    between atoms: C_2  and  C_3
REMARK    3  A    between atoms: N_10  and  O_11
REMARK    4  A    between atoms: O_11  and  C_12
REMARK    5  A    between atoms: C_12  and  C_13
REMARK    6  A    between atoms: C_13  and  C_14
REMARK    7  A    between atoms: C_14  and  O_15
REMARK    8  A    between atoms: O_15  and  C_16
REMARK                            x       y       z     vdW  Elec       q    Type
REMARK                         _______ _______ _______ _____ _____    ______ ____
ROOT
ATOM      1  C   UNL     1       4.487  -6.819  25.244  0.00  0.00    +0.101 C 
ATOM      2  C   UNL     1       5.121  -5.848  26.250  0.00  0.00    +0.265 C 
ATOM      3  N   UNL     1       6.528  -5.640  25.890  0.00  0.00    -0.084 N 
ATOM      4  C   UNL     1       7.370  -5.535  26.970  0.00  0.00    +0.415 C 
ATOM      5  N   UNL     1       8.600  -5.004  26.731  0.00  0.00    -0.247 N 
ATOM      6  H   UNL     1       8.954  -5.220  25.810  0.00  0.00    +0.241 HD
ATOM      7  H   UNL     1       9.251  -5.219  27.477  0.00  0.00    +0.241 HD
ATOM      8  N   UNL     1       7.094  -5.930  28.172  0.00  0.00    -0.005 NA
ATOM      9  C   UNL     1       5.873  -6.484  28.386  0.00  0.00    +0.420 C 
ATOM     10  N   UNL     1       5.669  -7.055  29.598  0.00  0.00    -0.247 N 
ATOM     11  H   UNL     1       6.256  -6.659  30.318  0.00  0.00    +0.241 HD
ATOM     12  H   UNL     1       4.685  -7.100  29.835  0.00  0.00    +0.241 HD
ATOM     13  N   UNL     1       4.897  -6.479  27.553  0.00  0.00    -0.066 NA
ATOM     14  C   UNL     1       4.344  -4.522  26.273  0.00  0.00    +0.101 C 
ENDROOT
BRANCH   3  15
ATOM     15  O   UNL     1       6.769  -4.703  24.853  0.00  0.00    -0.213 OA
BRANCH  15  16
ATOM     16  C   UNL     1       6.971  -5.430  23.635  0.00  0.00    +0.213 C 
BRANCH  16  17
ATOM     17  C   UNL     1       6.020  -4.933  22.546  0.00  0.00    +0.073 C 
BRANCH  17  18
ATOM     18  C   UNL     1       5.425  -3.568  22.876  0.00  0.00    +0.231 C 
BRANCH  18  19
ATOM     19  O   UNL     1       6.094  -2.570  22.095  0.00  0.00    -0.492 OA
BRANCH  19  20
ATOM     20  C   UNL     1       7.062  -1.842  22.737  0.00  0.00    +0.121 A 
ATOM     21  C   UNL     1       8.366  -2.023  22.260  0.00  0.00    +0.047 A 
ATOM     22  C   UNL     1       9.436  -1.320  22.823  0.00  0.00    +0.019 A 
ATOM     23  C   UNL     1       9.202  -0.433  23.870  0.00  0.00    +0.018 A 
ATOM     24 BR   UNL     1      10.637   0.537  24.628  0.00  0.00    -0.050 Br
ATOM     25  C   UNL     1       7.912  -0.252  24.362  0.00  0.00    +0.019 A 
ATOM     26  C   UNL     1       6.844  -0.957  23.796  0.00  0.00    +0.047 A 
ENDBRANCH  19  20
ENDBRANCH  18  19
ENDBRANCH  17  18
ENDBRANCH  16  17
ENDBRANCH  15  16
ENDBRANCH   3  15
TORSDOF 6
ENDMDL
