MODEL 1
REMARK VINA RESULT:      -7.5      0.000      0.000
REMARK  Name = 
REMARK  8 active torsions:
REMARK  status: ('A' for Active; 'I' for Inactive)
REMARK    1  A    between atoms: C_2  and  C_21
REMARK    2  A    between atoms: C_12  and  C_16
REMARK    3  A    between atoms: C_16  and  C_17
REMARK    4  A    between atoms: C_16  and  C_18
REMARK    5  A    between atoms: C_16  and  C_19
REMARK    6  A    between atoms: C_21  and  C_22
REMARK    7  A    between atoms: C_21  and  C_23
REMARK    8  A    between atoms: C_21  and  O_24
REMARK                            x       y       z     vdW  Elec       q    Type
REMARK                         _______ _______ _______ _____ _____    ______ ____
ROOT
ATOM      1  C   UNL     1      10.035   2.430  23.388  0.00  0.00    +0.209 C 
ATOM      2  O   UNL     1      10.947   1.455  24.001  0.00  0.00    -0.485 OA
ATOM      3  C   UNL     1      10.506   0.264  23.456  0.00  0.00    +0.128 A 
ATOM      4  C   UNL     1      10.608  -0.954  24.081  0.00  0.00    +0.093 A 
ATOM      5  C   UNL     1       9.713  -1.930  23.651  0.00  0.00    +0.143 A 
ATOM      6  C   UNL     1       8.798  -1.710  22.614  0.00  0.00    +0.018 A 
ATOM      7  C   UNL     1       8.844  -0.520  21.885  0.00  0.00    +0.019 A 
ATOM      8  C   UNL     1       7.683  -2.633  22.485  0.00  0.00    +0.023 A 
ATOM      9  C   UNL     1       7.553  -3.728  23.265  0.00  0.00    +0.047 A 
ATOM     10  C   UNL     1       8.684  -4.085  24.179  0.00  0.00    +0.341 A 
ATOM     11  O   UNL     1       8.765  -5.157  24.764  0.00  0.00    -0.245 OA
ATOM     12  O   UNL     1       9.679  -3.131  24.374  0.00  0.00    -0.422 OA
ATOM     13  C   UNL     1       9.709   0.461  22.329  0.00  0.00    -0.001 A 
ATOM     14  C   UNL     1       9.778   1.896  21.969  0.00  0.00    +0.086 C 
ENDROOT
BRANCH   1  15
ATOM     15  C   UNL     1       8.726   2.632  24.257  0.00  0.00    +0.097 C 
ATOM     16  C   UNL     1       7.464   2.358  23.432  0.00  0.00    +0.045 C 
ATOM     17  C   UNL     1       8.670   4.045  24.844  0.00  0.00    +0.045 C 
BRANCH  15  18
ATOM     18  O   UNL     1       8.667   1.714  25.362  0.00  0.00    -0.385 OA
ATOM     19  H   UNL     1       8.049   0.996  25.144  0.00  0.00    +0.210 HD
ENDBRANCH  15  18
ENDBRANCH   1  15
BRANCH   9  20
ATOM     20  C   UNL     1       6.246  -4.557  23.248  0.00  0.00    +0.015 C 
ATOM     21  C   UNL     1       5.107  -3.644  22.715  0.00  0.00    +0.020 C 
ATOM     22  C   UNL     1       5.754  -5.087  24.613  0.00  0.00    +0.020 C 
BRANCH  20  23
ATOM     23  C   UNL     1       6.335  -5.785  22.330  0.00  0.00    -0.023 C 
ATOM     24  C   UNL     1       6.341  -5.804  20.992  0.00  0.00    +0.005 C 
ENDBRANCH  20  23
ENDBRANCH   9  20
TORSDOF 4
ENDMDL
MODEL 2
REMARK VINA RESULT:      -6.9      2.495      6.781
REMARK  Name = 
REMARK  8 active torsions:
REMARK  status: ('A' for Active; 'I' for Inactive)
REMARK    1  A    between atoms: C_2  and  C_21
REMARK    2  A    between atoms: C_12  and  C_16
REMARK    3  A    between atoms: C_16  and  C_17
REMARK    4  A    between atoms: C_16  and  C_18
REMARK    5  A    between atoms: C_16  and  C_19
REMARK    6  A    between atoms: C_21  and  C_22
REMARK    7  A    between atoms: C_21  and  C_23
REMARK    8  A    between atoms: C_21  and  O_24
REMARK                            x       y       z     vdW  Elec       q    Type
REMARK                         _______ _______ _______ _____ _____    ______ ____
ROOT
ATOM      1  C   UNL     1       5.873  -5.797  26.902  0.00  0.00    +0.209 C 
ATOM      2  O   UNL     1       7.250  -6.182  26.562  0.00  0.00    -0.485 OA
ATOM      3  C   UNL     1       7.849  -4.955  26.350  0.00  0.00    +0.128 A 
ATOM      4  C   UNL     1       8.904  -4.750  25.497  0.00  0.00    +0.093 A 
ATOM      5  C   UNL     1       9.061  -3.447  25.032  0.00  0.00    +0.143 A 
ATOM      6  C   UNL     1       8.233  -2.395  25.443  0.00  0.00    +0.018 A 
ATOM      7  C   UNL     1       7.284  -2.606  26.445  0.00  0.00    +0.019 A 
ATOM      8  C   UNL     1       8.234  -1.179  24.647  0.00  0.00    +0.023 A 
ATOM      9  C   UNL     1       9.061  -1.003  23.593  0.00  0.00    +0.047 A 
ATOM     10  C   UNL     1      10.121  -2.030  23.345  0.00  0.00    +0.341 A 
ATOM     11  O   UNL     1      11.047  -1.866  22.561  0.00  0.00    -0.245 OA
ATOM     12  O   UNL     1      10.025  -3.234  24.037  0.00  0.00    -0.422 OA
ATOM     13  C   UNL     1       7.106  -3.903  26.885  0.00  0.00    -0.001 A 
ATOM     14  C   UNL     1       6.011  -4.487  27.695  0.00  0.00    +0.086 C 
ENDROOT
BRANCH   1  15
ATOM     15  C   UNL     1       4.962  -5.686  25.611  0.00  0.00    +0.097 C 
ATOM     16  C   UNL     1       4.060  -4.448  25.672  0.00  0.00    +0.045 C 
ATOM     17  C   UNL     1       4.109  -6.945  25.432  0.00  0.00    +0.045 C 
BRANCH  15  18
ATOM     18  O   UNL     1       5.742  -5.532  24.414  0.00  0.00    -0.385 OA
ATOM     19  H   UNL     1       6.632  -5.893  24.567  0.00  0.00    +0.210 HD
ENDBRANCH  15  18
ENDBRANCH   1  15
BRANCH   9  20
ATOM     20  C   UNL     1       8.878   0.205  22.642  0.00  0.00    +0.015 C 
ATOM     21  C   UNL     1       7.406   0.692  22.764  0.00  0.00    +0.020 C 
ATOM     22  C   UNL     1       9.106  -0.067  21.140  0.00  0.00    +0.020 C 
BRANCH  20  23
ATOM     23  C   UNL     1       9.795   1.384  22.998  0.00  0.00    -0.023 C 
ATOM     24  C   UNL     1      10.596   1.503  24.064  0.00  0.00    +0.005 C 
ENDBRANCH  20  23
ENDBRANCH   9  20
TORSDOF 4
ENDMDL
MODEL 3
REMARK VINA RESULT:      -6.9      1.557      2.478
REMARK  Name = 
REMARK  8 active torsions:
REMARK  status: ('A' for Active; 'I' for Inactive)
REMARK    1  A    between atoms: C_2  and  C_21
REMARK    2  A    between atoms: C_12  and  C_16
REMARK    3  A    between atoms: C_16  and  C_17
REMARK    4  A    between atoms: C_16  and  C_18
REMARK    5  A    between atoms: C_16  and  C_19
REMARK    6  A    between atoms: C_21  and  C_22
REMARK    7  A    between atoms: C_21  and  C_23
REMARK    8  A    between atoms: C_21  and  O_24
REMARK                            x       y       z     vdW  Elec       q    Type
REMARK                         _______ _______ _______ _____ _____    ______ ____
ROOT
ATOM      1  C   UNL     1       9.918   0.334  22.424  0.00  0.00    +0.209 C 
ATOM      2  O   UNL     1      10.724  -0.621  23.198  0.00  0.00    -0.485 OA
ATOM      3  C   UNL     1       9.948  -1.763  23.147  0.00  0.00    +0.128 A 
ATOM      4  C   UNL     1       9.932  -2.728  24.122  0.00  0.00    +0.093 A 
ATOM      5  C   UNL     1       8.790  -3.521  24.169  0.00  0.00    +0.143 A 
ATOM      6  C   UNL     1       7.740  -3.386  23.251  0.00  0.00    +0.018 A 
ATOM      7  C   UNL     1       7.869  -2.515  22.168  0.00  0.00    +0.019 A 
ATOM      8  C   UNL     1       6.460  -3.986  23.590  0.00  0.00    +0.023 A 
ATOM      9  C   UNL     1       6.281  -4.734  24.701  0.00  0.00    +0.047 A 
ATOM     10  C   UNL     1       7.483  -5.087  25.519  0.00  0.00    +0.341 A 
ATOM     11  O   UNL     1       7.469  -5.924  26.412  0.00  0.00    -0.245 OA
ATOM     12  O   UNL     1       8.668  -4.408  25.248  0.00  0.00    -0.422 OA
ATOM     13  C   UNL     1       8.988  -1.705  22.138  0.00  0.00    -0.001 A 
ATOM     14  C   UNL     1       9.266  -0.506  21.314  0.00  0.00    +0.086 C 
ENDROOT
BRANCH   1  15
ATOM     15  C   UNL     1       8.890   1.111  23.345  0.00  0.00    +0.097 C 
ATOM     16  C   UNL     1       8.910   2.616  23.052  0.00  0.00    +0.045 C 
ATOM     17  C   UNL     1       9.184   0.863  24.827  0.00  0.00    +0.045 C 
BRANCH  15  18
ATOM     18  O   UNL     1       7.535   0.694  23.109  0.00  0.00    -0.385 OA
ATOM     19  H   UNL     1       7.061   1.405  22.646  0.00  0.00    +0.210 HD
ENDBRANCH  15  18
ENDBRANCH   1  15
BRANCH   9  20
ATOM     20  C   UNL     1       4.860  -5.165  25.139  0.00  0.00    +0.015 C 
ATOM     21  C   UNL     1       4.560  -4.500  26.512  0.00  0.00    +0.020 C 
ATOM     22  C   UNL     1       4.639  -6.679  25.349  0.00  0.00    +0.020 C 
BRANCH  20  23
ATOM     23  C   UNL     1       3.774  -4.717  24.151  0.00  0.00    -0.023 C 
ATOM     24  C   UNL     1       3.063  -5.485  23.316  0.00  0.00    +0.005 C 
ENDBRANCH  20  23
ENDBRANCH   9  20
TORSDOF 4
ENDMDL
MODEL 4
REMARK VINA RESULT:      -6.8      1.603      6.732
REMARK  Name = 
REMARK  8 active torsions:
REMARK  status: ('A' for Active; 'I' for Inactive)
REMARK    1  A    between atoms: C_2  and  C_21
REMARK    2  A    between atoms: C_12  and  C_16
REMARK    3  A    between atoms: C_16  and  C_17
REMARK    4  A    between atoms: C_16  and  C_18
REMARK    5  A    between atoms: C_16  and  C_19
REMARK    6  A    between atoms: C_21  and  C_22
REMARK    7  A    between atoms: C_21  and  C_23
REMARK    8  A    between atoms: C_21  and  O_24
REMARK                            x       y       z     vdW  Elec       q    Type
REMARK                         _______ _______ _______ _____ _____    ______ ____
ROOT
ATOM      1  C   UNL     1       7.962  -4.860  25.104  0.00  0.00    +0.209 C 
ATOM      2  O   UNL     1       9.110  -4.636  24.214  0.00  0.00    -0.485 OA
ATOM      3  C   UNL     1       9.404  -3.307  24.450  0.00  0.00    +0.128 A 
ATOM      4  C   UNL     1       9.972  -2.467  23.526  0.00  0.00    +0.093 A 
ATOM      5  C   UNL     1       9.753  -1.108  23.729  0.00  0.00    +0.143 A 
ATOM      6  C   UNL     1       9.043  -0.615  24.831  0.00  0.00    +0.018 A 
ATOM      7  C   UNL     1       8.633  -1.486  25.842  0.00  0.00    +0.019 A 
ATOM      8  C   UNL     1       8.557   0.753  24.769  0.00  0.00    +0.023 A 
ATOM      9  C   UNL     1       8.840   1.578  23.738  0.00  0.00    +0.047 A 
ATOM     10  C   UNL     1       9.822   1.114  22.709  0.00  0.00    +0.341 A 
ATOM     11  O   UNL     1      10.309   1.851  21.861  0.00  0.00    -0.245 OA
ATOM     12  O   UNL     1      10.179  -0.232  22.720  0.00  0.00    -0.422 OA
ATOM     13  C   UNL     1       8.822  -2.837  25.628  0.00  0.00    -0.001 A 
ATOM     14  C   UNL     1       8.249  -3.999  26.345  0.00  0.00    +0.086 C 
ENDROOT
BRANCH   1  15
ATOM     15  C   UNL     1       6.591  -4.532  24.383  0.00  0.00    +0.097 C 
ATOM     16  C   UNL     1       5.547  -5.622  24.652  0.00  0.00    +0.045 C 
ATOM     17  C   UNL     1       6.791  -4.360  22.875  0.00  0.00    +0.045 C 
BRANCH  15  18
ATOM     18  O   UNL     1       6.005  -3.313  24.871  0.00  0.00    -0.385 OA
ATOM     19  H   UNL     1       5.453  -2.925  24.171  0.00  0.00    +0.210 HD
ENDBRANCH  15  18
ENDBRANCH   1  15
BRANCH   9  20
ATOM     20  C   UNL     1       8.124   2.944  23.602  0.00  0.00    +0.015 C 
ATOM     21  C   UNL     1       7.004   3.007  24.677  0.00  0.00    +0.020 C 
ATOM     22  C   UNL     1       7.426   3.219  22.253  0.00  0.00    +0.020 C 
BRANCH  20  23
ATOM     23  C   UNL     1       9.067   4.134  23.835  0.00  0.00    -0.023 C 
ATOM     24  C   UNL     1       9.010   5.040  24.818  0.00  0.00    +0.005 C 
ENDBRANCH  20  23
ENDBRANCH   9  20
TORSDOF 4
ENDMDL
MODEL 5
REMARK VINA RESULT:      -6.6      2.236      6.983
REMARK  Name = 
REMARK  8 active torsions:
REMARK  status: ('A' for Active; 'I' for Inactive)
REMARK    1  A    between atoms: C_2  and  C_21
REMARK    2  A    between atoms: C_12  and  C_16
REMARK    3  A    between atoms: C_16  and  C_17
REMARK    4  A    between atoms: C_16  and  C_18
REMARK    5  A    between atoms: C_16  and  C_19
REMARK    6  A    between atoms: C_21  and  C_22
REMARK    7  A    between atoms: C_21  and  C_23
REMARK    8  A    between atoms: C_21  and  O_24
REMARK                            x       y       z     vdW  Elec       q    Type
REMARK                         _______ _______ _______ _____ _____    ______ ____
ROOT
ATOM      1  C   UNL     1       4.768  -6.222  24.119  0.00  0.00    +0.209 C 
ATOM      2  O   UNL     1       5.754  -6.303  23.032  0.00  0.00    -0.485 OA
ATOM      3  C   UNL     1       6.676  -5.345  23.407  0.00  0.00    +0.128 A 
ATOM      4  C   UNL     1       7.449  -4.632  22.525  0.00  0.00    +0.093 A 
ATOM      5  C   UNL     1       7.937  -3.416  22.995  0.00  0.00    +0.143 A 
ATOM      6  C   UNL     1       7.703  -2.963  24.300  0.00  0.00    +0.018 A 
ATOM      7  C   UNL     1       7.063  -3.794  25.221  0.00  0.00    +0.019 A 
ATOM      8  C   UNL     1       7.927  -1.555  24.580  0.00  0.00    +0.023 A 
ATOM      9  C   UNL     1       8.432  -0.703  23.660  0.00  0.00    +0.047 A 
ATOM     10  C   UNL     1       8.926  -1.270  22.367  0.00  0.00    +0.341 A 
ATOM     11  O   UNL     1       9.589  -0.630  21.560  0.00  0.00    -0.245 OA
ATOM     12  O   UNL     1       8.593  -2.589  22.073  0.00  0.00    -0.422 OA
ATOM     13  C   UNL     1       6.552  -4.987  24.750  0.00  0.00    -0.001 A 
ATOM     14  C   UNL     1       5.593  -5.922  25.382  0.00  0.00    +0.086 C 
ENDROOT
BRANCH   1  15
ATOM     15  C   UNL     1       3.640  -5.155  23.807  0.00  0.00    +0.097 C 
ATOM     16  C   UNL     1       3.290  -4.336  25.054  0.00  0.00    +0.045 C 
ATOM     17  C   UNL     1       2.381  -5.833  23.257  0.00  0.00    +0.045 C 
BRANCH  15  18
ATOM     18  O   UNL     1       4.064  -4.195  22.825  0.00  0.00    -0.385 OA
ATOM     19  H   UNL     1       3.757  -4.482  21.948  0.00  0.00    +0.210 HD
ENDBRANCH  15  18
ENDBRANCH   1  15
BRANCH   9  20
ATOM     20  C   UNL     1       8.446   0.822  23.924  0.00  0.00    +0.015 C 
ATOM     21  C   UNL     1       7.652   1.090  25.233  0.00  0.00    +0.020 C 
ATOM     22  C   UNL     1       7.787   1.709  22.845  0.00  0.00    +0.020 C 
BRANCH  20  23
ATOM     23  C   UNL     1       9.866   1.378  24.112  0.00  0.00    -0.023 C 
ATOM     24  C   UNL     1      10.920   0.757  24.655  0.00  0.00    +0.005 C 
ENDBRANCH  20  23
ENDBRANCH   9  20
TORSDOF 4
ENDMDL
MODEL 6
REMARK VINA RESULT:      -6.6      2.109      6.632
REMARK  Name = 
REMARK  8 active torsions:
REMARK  status: ('A' for Active; 'I' for Inactive)
REMARK    1  A    between atoms: C_2  and  C_21
REMARK    2  A    between atoms: C_12  and  C_16
REMARK    3  A    between atoms: C_16  and  C_17
REMARK    4  A    between atoms: C_16  and  C_18
REMARK    5  A    between atoms: C_16  and  C_19
REMARK    6  A    between atoms: C_21  and  C_22
REMARK    7  A    between atoms: C_21  and  C_23
REMARK    8  A    between atoms: C_21  and  O_24
REMARK                            x       y       z     vdW  Elec       q    Type
REMARK                         _______ _______ _______ _____ _____    ______ ____
ROOT
ATOM      1  C   UNL     1       4.630  -5.182  25.743  0.00  0.00    +0.209 C 
ATOM      2  O   UNL     1       5.765  -5.847  25.088  0.00  0.00    -0.485 OA
ATOM      3  C   UNL     1       6.785  -4.936  25.283  0.00  0.00    +0.128 A 
ATOM      4  C   UNL     1       7.852  -4.780  24.434  0.00  0.00    +0.093 A 
ATOM      5  C   UNL     1       8.494  -3.547  24.491  0.00  0.00    +0.143 A 
ATOM      6  C   UNL     1       8.118  -2.541  25.390  0.00  0.00    +0.018 A 
ATOM      7  C   UNL     1       7.145  -2.799  26.357  0.00  0.00    +0.019 A 
ATOM      8  C   UNL     1       8.588  -1.190  25.133  0.00  0.00    +0.023 A 
ATOM      9  C   UNL     1       9.436  -0.896  24.123  0.00  0.00    +0.047 A 
ATOM     10  C   UNL     1      10.034  -2.028  23.349  0.00  0.00    +0.341 A 
ATOM     11  O   UNL     1      10.965  -1.891  22.566  0.00  0.00    -0.245 OA
ATOM     12  O   UNL     1       9.482  -3.294  23.529  0.00  0.00    -0.422 OA
ATOM     13  C   UNL     1       6.485  -4.011  26.282  0.00  0.00    -0.001 A 
ATOM     14  C   UNL     1       5.240  -4.453  26.951  0.00  0.00    +0.086 C 
ENDROOT
BRANCH   1  15
ATOM     15  C   UNL     1       3.846  -4.241  24.739  0.00  0.00    +0.097 C 
ATOM     16  C   UNL     1       2.330  -4.405  24.892  0.00  0.00    +0.045 C 
ATOM     17  C   UNL     1       4.258  -4.519  23.291  0.00  0.00    +0.045 C 
BRANCH  15  18
ATOM     18  O   UNL     1       4.108  -2.850  24.991  0.00  0.00    -0.385 OA
ATOM     19  H   UNL     1       3.291  -2.427  25.307  0.00  0.00    +0.210 HD
ENDBRANCH  15  18
ENDBRANCH   1  15
BRANCH   9  20
ATOM     20  C   UNL     1       9.734   0.576  23.748  0.00  0.00    +0.015 C 
ATOM     21  C   UNL     1      11.105   0.961  24.373  0.00  0.00    +0.020 C 
ATOM     22  C   UNL     1       8.730   1.630  24.262  0.00  0.00    +0.020 C 
BRANCH  20  23
ATOM     23  C   UNL     1       9.830   0.794  22.231  0.00  0.00    -0.023 C 
ATOM     24  C   UNL     1       8.883   1.269  21.414  0.00  0.00    +0.005 C 
ENDBRANCH  20  23
ENDBRANCH   9  20
TORSDOF 4
ENDMDL
MODEL 7
REMARK VINA RESULT:      -6.5      1.392      2.195
REMARK  Name = 
REMARK  8 active torsions:
REMARK  status: ('A' for Active; 'I' for Inactive)
REMARK    1  A    between atoms: C_2  and  C_21
REMARK    2  A    between atoms: C_12  and  C_16
REMARK    3  A    between atoms: C_16  and  C_17
REMARK    4  A    between atoms: C_16  and  C_18
REMARK    5  A    between atoms: C_16  and  C_19
REMARK    6  A    between atoms: C_21  and  C_22
REMARK    7  A    between atoms: C_21  and  C_23
REMARK    8  A    between atoms: C_21  and  O_24
REMARK                            x       y       z     vdW  Elec       q    Type
REMARK                         _______ _______ _______ _____ _____    ______ ____
ROOT
ATOM      1  C   UNL     1       8.648   3.989  23.714  0.00  0.00    +0.209 C 
ATOM      2  O   UNL     1       9.949   3.306  23.758  0.00  0.00    -0.485 OA
ATOM      3  C   UNL     1       9.638   2.059  23.251  0.00  0.00    +0.128 A 
ATOM      4  C   UNL     1      10.299   0.904  23.586  0.00  0.00    +0.093 A 
ATOM      5  C   UNL     1       9.587  -0.277  23.396  0.00  0.00    +0.143 A 
ATOM      6  C   UNL     1       8.297  -0.300  22.850  0.00  0.00    +0.018 A 
ATOM      7  C   UNL     1       7.727   0.875  22.358  0.00  0.00    +0.019 A 
ATOM      8  C   UNL     1       7.507  -1.507  23.027  0.00  0.00    +0.023 A 
ATOM      9  C   UNL     1       8.001  -2.619  23.613  0.00  0.00    +0.047 A 
ATOM     10  C   UNL     1       9.461  -2.658  23.940  0.00  0.00    +0.341 A 
ATOM     11  O   UNL     1      10.051  -3.679  24.270  0.00  0.00    -0.245 OA
ATOM     12  O   UNL     1      10.167  -1.460  23.875  0.00  0.00    -0.422 OA
ATOM     13  C   UNL     1       8.419   2.052  22.574  0.00  0.00    -0.001 A 
ATOM     14  C   UNL     1       7.962   3.455  22.446  0.00  0.00    +0.086 C 
ENDROOT
BRANCH   1  15
ATOM     15  C   UNL     1       7.825   3.762  25.048  0.00  0.00    +0.097 C 
ATOM     16  C   UNL     1       6.344   3.502  24.749  0.00  0.00    +0.045 C 
ATOM     17  C   UNL     1       7.965   4.961  25.990  0.00  0.00    +0.045 C 
BRANCH  15  18
ATOM     18  O   UNL     1       8.277   2.604  25.769  0.00  0.00    -0.385 OA
ATOM     19  H   UNL     1       7.612   2.368  26.439  0.00  0.00    +0.210 HD
ENDBRANCH  15  18
ENDBRANCH   1  15
BRANCH   9  20
ATOM     20  C   UNL     1       7.067  -3.797  23.982  0.00  0.00    +0.015 C 
ATOM     21  C   UNL     1       7.486  -5.026  23.127  0.00  0.00    +0.020 C 
ATOM     22  C   UNL     1       5.562  -3.588  23.707  0.00  0.00    +0.020 C 
BRANCH  20  23
ATOM     23  C   UNL     1       7.171  -4.195  25.461  0.00  0.00    -0.023 C 
ATOM     24  C   UNL     1       6.836  -5.366  26.017  0.00  0.00    +0.005 C 
ENDBRANCH  20  23
ENDBRANCH   9  20
TORSDOF 4
ENDMDL
MODEL 8
REMARK VINA RESULT:      -6.5      1.908      6.858
REMARK  Name = 
REMARK  8 active torsions:
REMARK  status: ('A' for Active; 'I' for Inactive)
REMARK    1  A    between atoms: C_2  and  C_21
REMARK    2  A    between atoms: C_12  and  C_16
REMARK    3  A    between atoms: C_16  and  C_17
REMARK    4  A    between atoms: C_16  and  C_18
REMARK    5  A    between atoms: C_16  and  C_19
REMARK    6  A    between atoms: C_21  and  C_22
REMARK    7  A    between atoms: C_21  and  C_23
REMARK    8  A    between atoms: C_21  and  O_24
REMARK                            x       y       z     vdW  Elec       q    Type
REMARK                         _______ _______ _______ _____ _____    ______ ____
ROOT
ATOM      1  C   UNL     1       5.469  -5.306  23.877  0.00  0.00    +0.209 C 
ATOM      2  O   UNL     1       6.609  -5.269  24.804  0.00  0.00    -0.485 OA
ATOM      3  C   UNL     1       6.781  -3.912  24.997  0.00  0.00    +0.128 A 
ATOM      4  C   UNL     1       7.984  -3.321  25.287  0.00  0.00    +0.093 A 
ATOM      5  C   UNL     1       8.087  -1.969  24.969  0.00  0.00    +0.143 A 
ATOM      6  C   UNL     1       7.019  -1.237  24.435  0.00  0.00    +0.018 A 
ATOM      7  C   UNL     1       5.759  -1.828  24.319  0.00  0.00    +0.019 A 
ATOM      8  C   UNL     1       7.317   0.038  23.805  0.00  0.00    +0.023 A 
ATOM      9  C   UNL     1       8.558   0.571  23.799  0.00  0.00    +0.047 A 
ATOM     10  C   UNL     1       9.622  -0.100  24.610  0.00  0.00    +0.341 A 
ATOM     11  O   UNL     1      10.710   0.408  24.846  0.00  0.00    -0.245 OA
ATOM     12  O   UNL     1       9.349  -1.373  25.101  0.00  0.00    -0.422 OA
ATOM     13  C   UNL     1       5.663  -3.176  24.604  0.00  0.00    -0.001 A 
ATOM     14  C   UNL     1       4.572  -4.132  24.303  0.00  0.00    +0.086 C 
ENDROOT
BRANCH   1  15
ATOM     15  C   UNL     1       5.943  -5.253  22.366  0.00  0.00    +0.097 C 
ATOM     16  C   UNL     1       7.421  -5.635  22.235  0.00  0.00    +0.045 C 
ATOM     17  C   UNL     1       5.706  -3.864  21.766  0.00  0.00    +0.045 C 
BRANCH  15  18
ATOM     18  O   UNL     1       5.231  -6.193  21.545  0.00  0.00    -0.385 OA
ATOM     19  H   UNL     1       4.279  -6.001  21.597  0.00  0.00    +0.210 HD
ENDBRANCH  15  18
ENDBRANCH   1  15
BRANCH   9  20
ATOM     20  C   UNL     1       8.877   1.813  22.931  0.00  0.00    +0.015 C 
ATOM     21  C   UNL     1       7.675   2.050  21.974  0.00  0.00    +0.020 C 
ATOM     22  C   UNL     1      10.122   1.711  22.023  0.00  0.00    +0.020 C 
BRANCH  20  23
ATOM     23  C   UNL     1       9.072   3.086  23.767  0.00  0.00    -0.023 C 
ATOM     24  C   UNL     1      10.106   3.936  23.732  0.00  0.00    +0.005 C 
ENDBRANCH  20  23
ENDBRANCH   9  20
TORSDOF 4
ENDMDL
MODEL 9
REMARK VINA RESULT:      -6.4      2.994      5.025
REMARK  Name = 
REMARK  8 active torsions:
REMARK  status: ('A' for Active; 'I' for Inactive)
REMARK    1  A    between atoms: C_2  and  C_21
REMARK    2  A    between atoms: C_12  and  C_16
REMARK    3  A    between atoms: C_16  and  C_17
REMARK    4  A    between atoms: C_16  and  C_18
REMARK    5  A    between atoms: C_16  and  C_19
REMARK    6  A    between atoms: C_21  and  C_22
REMARK    7  A    between atoms: C_21  and  C_23
REMARK    8  A    between atoms: C_21  and  O_24
REMARK                            x       y       z     vdW  Elec       q    Type
REMARK                         _______ _______ _______ _____ _____    ______ ____
ROOT
ATOM      1  C   UNL     1       9.533  -2.176  23.426  0.00  0.00    +0.209 C 
ATOM      2  O   UNL     1      10.182  -3.288  24.134  0.00  0.00    -0.485 OA
ATOM      3  C   UNL     1       9.099  -4.043  24.542  0.00  0.00    +0.128 A 
ATOM      4  C   UNL     1       9.087  -4.829  25.666  0.00  0.00    +0.093 A 
ATOM      5  C   UNL     1       7.830  -5.114  26.192  0.00  0.00    +0.143 A 
ATOM      6  C   UNL     1       6.644  -4.674  25.590  0.00  0.00    +0.018 A 
ATOM      7  C   UNL     1       6.688  -4.028  24.354  0.00  0.00    +0.019 A 
ATOM      8  C   UNL     1       5.429  -4.700  26.387  0.00  0.00    +0.023 A 
ATOM      9  C   UNL     1       5.391  -5.211  27.637  0.00  0.00    +0.047 A 
ATOM     10  C   UNL     1       6.606  -5.919  28.150  0.00  0.00    +0.341 A 
ATOM     11  O   UNL     1       6.610  -6.596  29.169  0.00  0.00    -0.245 OA
ATOM     12  O   UNL     1       7.787  -5.777  27.426  0.00  0.00    -0.422 OA
ATOM     13  C   UNL     1       7.935  -3.718  23.846  0.00  0.00    -0.001 A 
ATOM     14  C   UNL     1       8.307  -2.803  22.742  0.00  0.00    +0.086 C 
ENDROOT
BRANCH   1  15
ATOM     15  C   UNL     1       9.193  -0.979  24.406  0.00  0.00    +0.097 C 
ATOM     16  C   UNL     1       7.867  -0.311  24.027  0.00  0.00    +0.045 C 
ATOM     17  C   UNL     1      10.319   0.060  24.413  0.00  0.00    +0.045 C 
BRANCH  15  18
ATOM     18  O   UNL     1       9.023  -1.425  25.761  0.00  0.00    -0.385 OA
ATOM     19  H   UNL     1       9.837  -1.240  26.260  0.00  0.00    +0.210 HD
ENDBRANCH  15  18
ENDBRANCH   1  15
BRANCH   9  20
ATOM     20  C   UNL     1       4.141  -5.018  28.529  0.00  0.00    +0.015 C 
ATOM     21  C   UNL     1       3.183  -4.030  27.805  0.00  0.00    +0.020 C 
ATOM     22  C   UNL     1       4.385  -4.415  29.929  0.00  0.00    +0.020 C 
BRANCH  20  23
ATOM     23  C   UNL     1       3.374  -6.328  28.766  0.00  0.00    -0.023 C 
ATOM     24  C   UNL     1       2.283  -6.763  28.124  0.00  0.00    +0.005 C 
ENDBRANCH  20  23
ENDBRANCH   9  20
TORSDOF 4
ENDMDL
