MODEL 1
REMARK VINA RESULT:      -6.9      0.000      0.000
REMARK  Name = 
REMARK  5 active torsions:
REMARK  status: ('A' for Active; 'I' for Inactive)
REMARK    1  A    between atoms: C_5  and  O_6
REMARK    2  A    between atoms: C_5  and  C_7
REMARK    3  A    between atoms: C_7  and  C_8
REMARK    4  A    between atoms: C_9  and  C_10
REMARK    5  A    between atoms: C_10  and  C_11
REMARK                            x       y       z     vdW  Elec       q    Type
REMARK                         _______ _______ _______ _____ _____    ______ ____
ROOT
ATOM      1  C   UNL     1       5.887  -4.389  24.882  0.00  0.00    +0.009 C 
ATOM      2  C   UNL     1       7.221  -3.635  24.800  0.00  0.00    +0.024 C 
ATOM      3  C   UNL     1       7.088  -2.416  23.858  0.00  0.00    -0.041 C 
ATOM      4  C   UNL     1       7.879  -1.320  24.008  0.00  0.00    -0.040 C 
ATOM      5  C   UNL     1       8.656  -1.151  25.235  0.00  0.00    -0.041 C 
ATOM      6  C   UNL     1       8.126  -1.885  26.438  0.00  0.00    +0.036 C 
ATOM      7  C   UNL     1       9.701  -0.320  25.356  0.00  0.00    +0.050 C 
ATOM      8  C   UNL     1      10.078   0.580  24.254  0.00  0.00    +0.157 C 
ATOM      9  O   UNL     1      11.162   1.152  24.286  0.00  0.00    -0.293 OA
ATOM     10  C   UNL     1       9.018   0.899  23.234  0.00  0.00    +0.083 C 
ATOM     11  C   UNL     1       8.064  -0.260  22.940  0.00  0.00    +0.043 C 
ATOM     12  C   UNL     1       6.060  -2.537  22.808  0.00  0.00    +0.000 C 
ATOM     13  C   UNL     1       5.216  -3.586  22.670  0.00  0.00    -0.017 C 
ATOM     14  C   UNL     1       7.882  -3.355  26.160  0.00  0.00    +0.013 C 
ATOM     15  C   UNL     1       5.371  -4.860  23.489  0.00  0.00    +0.021 C 
ATOM     16  C   UNL     1       4.168  -5.820  23.978  0.00  0.00    +0.075 C 
ATOM     17  C   UNL     1       4.951  -6.640  25.056  0.00  0.00    +0.036 C 
ATOM     18  C   UNL     1       5.775  -5.596  25.815  0.00  0.00    +0.008 C 
ENDROOT
BRANCH  15  19
ATOM     19  C   UNL     1       6.331  -5.792  22.600  0.00  0.00    +0.011 C 
ATOM     20  C   UNL     1       6.429  -5.696  21.077  0.00  0.00    +0.005 C 
ENDBRANCH  15  19
BRANCH  16  21
ATOM     21  C   UNL     1       2.886  -5.380  24.739  0.00  0.00    +0.032 C 
ATOM     22  C   UNL     1       1.654  -4.918  23.984  0.00  0.00    +0.007 C 
ENDBRANCH  16  21
BRANCH  16  23
ATOM     23  O   UNL     1       3.738  -6.703  22.943  0.00  0.00    -0.388 OA
ATOM     24  H   UNL     1       4.510  -6.864  22.355  0.00  0.00    +0.210 HD
ENDBRANCH  16  23
TORSDOF 3
ENDMDL
MODEL 2
REMARK VINA RESULT:      -6.9      2.711      6.999
REMARK  Name = 
REMARK  5 active torsions:
REMARK  status: ('A' for Active; 'I' for Inactive)
REMARK    1  A    between atoms: C_5  and  O_6
REMARK    2  A    between atoms: C_5  and  C_7
REMARK    3  A    between atoms: C_7  and  C_8
REMARK    4  A    between atoms: C_9  and  C_10
REMARK    5  A    between atoms: C_10  and  C_11
REMARK                            x       y       z     vdW  Elec       q    Type
REMARK                         _______ _______ _______ _____ _____    ______ ____
ROOT
ATOM      1  C   UNL     1       8.378   0.114  22.876  0.00  0.00    +0.009 C 
ATOM      2  C   UNL     1       8.597  -1.188  23.660  0.00  0.00    +0.024 C 
ATOM      3  C   UNL     1       7.653  -1.238  24.883  0.00  0.00    -0.041 C 
ATOM      4  C   UNL     1       7.250  -2.424  25.413  0.00  0.00    -0.040 C 
ATOM      5  C   UNL     1       7.455  -3.660  24.660  0.00  0.00    -0.041 C 
ATOM      6  C   UNL     1       7.588  -3.491  23.170  0.00  0.00    +0.036 C 
ATOM      7  C   UNL     1       7.418  -4.887  25.200  0.00  0.00    +0.050 C 
ATOM      8  C   UNL     1       7.051  -5.075  26.614  0.00  0.00    +0.157 C 
ATOM      9  O   UNL     1       7.251  -6.159  27.151  0.00  0.00    -0.293 OA
ATOM     10  C   UNL     1       6.266  -3.972  27.273  0.00  0.00    +0.083 C 
ATOM     11  C   UNL     1       6.637  -2.568  26.793  0.00  0.00    +0.043 C 
ATOM     12  C   UNL     1       7.239   0.072  25.418  0.00  0.00    +0.000 C 
ATOM     13  C   UNL     1       7.572   1.267  24.877  0.00  0.00    -0.017 C 
ATOM     14  C   UNL     1       8.631  -2.458  22.794  0.00  0.00    +0.013 C 
ATOM     15  C   UNL     1       8.585   1.389  23.749  0.00  0.00    +0.021 C 
ATOM     16  C   UNL     1       8.565   2.500  22.577  0.00  0.00    +0.075 C 
ATOM     17  C   UNL     1       9.572   1.817  21.593  0.00  0.00    +0.036 C 
ATOM     18  C   UNL     1       9.165   0.341  21.584  0.00  0.00    +0.008 C 
ENDROOT
BRANCH  15  19
ATOM     19  C   UNL     1       9.996   1.575  24.495  0.00  0.00    +0.011 C 
ATOM     20  C   UNL     1      10.944   0.418  24.810  0.00  0.00    +0.005 C 
ENDBRANCH  15  19
BRANCH  16  21
ATOM     21  C   UNL     1       7.363   2.851  21.657  0.00  0.00    +0.032 C 
ATOM     22  C   UNL     1       6.045   3.317  22.244  0.00  0.00    +0.007 C 
ENDBRANCH  16  21
BRANCH  16  23
ATOM     23  O   UNL     1       9.112   3.743  23.015  0.00  0.00    -0.388 OA
ATOM     24  H   UNL     1       9.607   4.129  22.257  0.00  0.00    +0.210 HD
ENDBRANCH  16  23
TORSDOF 3
ENDMDL
MODEL 3
REMARK VINA RESULT:      -6.8      2.733      7.059
REMARK  Name = 
REMARK  5 active torsions:
REMARK  status: ('A' for Active; 'I' for Inactive)
REMARK    1  A    between atoms: C_5  and  O_6
REMARK    2  A    between atoms: C_5  and  C_7
REMARK    3  A    between atoms: C_7  and  C_8
REMARK    4  A    between atoms: C_9  and  C_10
REMARK    5  A    between atoms: C_10  and  C_11
REMARK                            x       y       z     vdW  Elec       q    Type
REMARK                         _______ _______ _______ _____ _____    ______ ____
ROOT
ATOM      1  C   UNL     1       7.937   0.700  23.848  0.00  0.00    +0.009 C 
ATOM      2  C   UNL     1       7.349  -0.708  24.017  0.00  0.00    +0.024 C 
ATOM      3  C   UNL     1       8.357  -1.622  24.750  0.00  0.00    -0.041 C 
ATOM      4  C   UNL     1       7.938  -2.687  25.484  0.00  0.00    -0.040 C 
ATOM      5  C   UNL     1       6.524  -2.811  25.838  0.00  0.00    -0.041 C 
ATOM      6  C   UNL     1       5.748  -1.520  25.845  0.00  0.00    +0.036 C 
ATOM      7  C   UNL     1       5.947  -3.949  26.248  0.00  0.00    +0.050 C 
ATOM      8  C   UNL     1       6.751  -5.161  26.474  0.00  0.00    +0.157 C 
ATOM      9  O   UNL     1       6.188  -6.242  26.614  0.00  0.00    -0.293 OA
ATOM     10  C   UNL     1       8.226  -4.973  26.715  0.00  0.00    +0.083 C 
ATOM     11  C   UNL     1       8.845  -3.819  25.926  0.00  0.00    +0.043 C 
ATOM     12  C   UNL     1       9.777  -1.256  24.590  0.00  0.00    +0.000 C 
ATOM     13  C   UNL     1      10.223  -0.169  23.918  0.00  0.00    -0.017 C 
ATOM     14  C   UNL     1       5.910  -0.739  24.556  0.00  0.00    +0.013 C 
ATOM     15  C   UNL     1       9.295   0.702  23.083  0.00  0.00    +0.021 C 
ATOM     16  C   UNL     1       9.448   2.292  22.849  0.00  0.00    +0.075 C 
ATOM     17  C   UNL     1       8.016   2.583  22.293  0.00  0.00    +0.036 C 
ATOM     18  C   UNL     1       7.076   1.789  23.205  0.00  0.00    +0.008 C 
ENDROOT
BRANCH  15  19
ATOM     19  C   UNL     1       9.341   0.044  21.618  0.00  0.00    +0.011 C 
ATOM     20  C   UNL     1       9.407  -1.463  21.370  0.00  0.00    +0.005 C 
ENDBRANCH  15  19
BRANCH  16  21
ATOM     21  C   UNL     1       9.622   3.376  23.950  0.00  0.00    +0.032 C 
ATOM     22  C   UNL     1       9.167   4.803  23.714  0.00  0.00    +0.007 C 
ENDBRANCH  16  21
BRANCH  16  23
ATOM     23  O   UNL     1      10.411   2.590  21.838  0.00  0.00    -0.388 OA
ATOM     24  H   UNL     1      10.204   2.024  21.060  0.00  0.00    +0.210 HD
ENDBRANCH  16  23
TORSDOF 3
ENDMDL
MODEL 4
REMARK VINA RESULT:      -6.6      2.370      4.441
REMARK  Name = 
REMARK  5 active torsions:
REMARK  status: ('A' for Active; 'I' for Inactive)
REMARK    1  A    between atoms: C_5  and  O_6
REMARK    2  A    between atoms: C_5  and  C_7
REMARK    3  A    between atoms: C_7  and  C_8
REMARK    4  A    between atoms: C_9  and  C_10
REMARK    5  A    between atoms: C_10  and  C_11
REMARK                            x       y       z     vdW  Elec       q    Type
REMARK                         _______ _______ _______ _____ _____    ______ ____
ROOT
ATOM      1  C   UNL     1       7.373  -1.687  23.542  0.00  0.00    +0.009 C 
ATOM      2  C   UNL     1       7.624  -0.261  24.051  0.00  0.00    +0.024 C 
ATOM      3  C   UNL     1       9.064   0.183  23.705  0.00  0.00    -0.041 C 
ATOM      4  C   UNL     1       9.377   1.497  23.544  0.00  0.00    -0.040 C 
ATOM      5  C   UNL     1       8.307   2.483  23.400  0.00  0.00    -0.041 C 
ATOM      6  C   UNL     1       6.995   1.939  22.899  0.00  0.00    +0.036 C 
ATOM      7  C   UNL     1       8.469   3.802  23.575  0.00  0.00    +0.050 C 
ATOM      8  C   UNL     1       9.805   4.368  23.831  0.00  0.00    +0.157 C 
ATOM      9  O   UNL     1       9.904   5.526  24.222  0.00  0.00    -0.293 OA
ATOM     10  C   UNL     1      10.992   3.544  23.408  0.00  0.00    +0.083 C 
ATOM     11  C   UNL     1      10.794   2.036  23.563  0.00  0.00    +0.043 C 
ATOM     12  C   UNL     1      10.048  -0.908  23.570  0.00  0.00    +0.000 C 
ATOM     13  C   UNL     1       9.757  -2.226  23.662  0.00  0.00    -0.017 C 
ATOM     14  C   UNL     1       6.517   0.746  23.702  0.00  0.00    +0.013 C 
ATOM     15  C   UNL     1       8.390  -2.722  24.112  0.00  0.00    +0.021 C 
ATOM     16  C   UNL     1       7.669  -4.080  23.618  0.00  0.00    +0.075 C 
ATOM     17  C   UNL     1       6.219  -3.764  24.112  0.00  0.00    +0.036 C 
ATOM     18  C   UNL     1       5.984  -2.303  23.718  0.00  0.00    +0.008 C 
ENDROOT
BRANCH  15  19
ATOM     19  C   UNL     1       8.519  -2.858  25.707  0.00  0.00    +0.011 C 
ATOM     20  C   UNL     1       8.181  -1.729  26.682  0.00  0.00    +0.005 C 
ENDBRANCH  15  19
BRANCH  16  21
ATOM     21  C   UNL     1       7.446  -4.526  22.146  0.00  0.00    +0.032 C 
ATOM     22  C   UNL     1       7.064  -5.956  21.816  0.00  0.00    +0.007 C 
ENDBRANCH  16  21
BRANCH  16  23
ATOM     23  O   UNL     1       8.159  -5.225  24.315  0.00  0.00    -0.388 OA
ATOM     24  H   UNL     1       8.248  -4.977  25.262  0.00  0.00    +0.210 HD
ENDBRANCH  16  23
TORSDOF 3
ENDMDL
MODEL 5
REMARK VINA RESULT:      -6.6      1.466      6.912
REMARK  Name = 
REMARK  5 active torsions:
REMARK  status: ('A' for Active; 'I' for Inactive)
REMARK    1  A    between atoms: C_5  and  O_6
REMARK    2  A    between atoms: C_5  and  C_7
REMARK    3  A    between atoms: C_7  and  C_8
REMARK    4  A    between atoms: C_9  and  C_10
REMARK    5  A    between atoms: C_10  and  C_11
REMARK                            x       y       z     vdW  Elec       q    Type
REMARK                         _______ _______ _______ _____ _____    ______ ____
ROOT
ATOM      1  C   UNL     1       7.907  -1.638  22.715  0.00  0.00    +0.009 C 
ATOM      2  C   UNL     1       7.468  -3.021  23.215  0.00  0.00    +0.024 C 
ATOM      3  C   UNL     1       6.119  -2.914  23.963  0.00  0.00    -0.041 C 
ATOM      4  C   UNL     1       5.266  -3.971  24.031  0.00  0.00    -0.040 C 
ATOM      5  C   UNL     1       5.468  -5.122  23.152  0.00  0.00    -0.041 C 
ATOM      6  C   UNL     1       6.242  -4.841  21.892  0.00  0.00    +0.036 C 
ATOM      7  C   UNL     1       4.923  -6.330  23.355  0.00  0.00    +0.050 C 
ATOM      8  C   UNL     1       3.969  -6.549  24.456  0.00  0.00    +0.157 C 
ATOM      9  O   UNL     1       3.667  -7.694  24.774  0.00  0.00    -0.293 OA
ATOM     10  C   UNL     1       3.266  -5.337  25.007  0.00  0.00    +0.083 C 
ATOM     11  C   UNL     1       4.121  -4.070  25.020  0.00  0.00    +0.043 C 
ATOM     12  C   UNL     1       5.841  -1.605  24.584  0.00  0.00    +0.000 C 
ATOM     13  C   UNL     1       6.640  -0.518  24.482  0.00  0.00    -0.017 C 
ATOM     14  C   UNL     1       7.558  -4.139  22.164  0.00  0.00    +0.013 C 
ATOM     15  C   UNL     1       8.027  -0.589  23.861  0.00  0.00    +0.021 C 
ATOM     16  C   UNL     1       8.757   0.595  23.041  0.00  0.00    +0.075 C 
ATOM     17  C   UNL     1       9.889  -0.250  22.371  0.00  0.00    +0.036 C 
ATOM     18  C   UNL     1       9.188  -1.522  21.886  0.00  0.00    +0.008 C 
ENDROOT
BRANCH  15  19
ATOM     19  C   UNL     1       9.001  -0.922  25.094  0.00  0.00    +0.011 C 
ATOM     20  C   UNL     1       8.623  -0.687  26.557  0.00  0.00    +0.005 C 
ENDBRANCH  15  19
BRANCH  16  21
ATOM     21  C   UNL     1       8.164   1.394  21.846  0.00  0.00    +0.032 C 
ATOM     22  C   UNL     1       7.035   2.383  22.056  0.00  0.00    +0.007 C 
ENDBRANCH  16  21
BRANCH  16  23
ATOM     23  O   UNL     1       9.348   1.559  23.913  0.00  0.00    -0.388 OA
ATOM     24  H   UNL     1       9.995   1.083  24.480  0.00  0.00    +0.210 HD
ENDBRANCH  16  23
TORSDOF 3
ENDMDL
MODEL 6
REMARK VINA RESULT:      -6.5      1.927      3.040
REMARK  Name = 
REMARK  5 active torsions:
REMARK  status: ('A' for Active; 'I' for Inactive)
REMARK    1  A    between atoms: C_5  and  O_6
REMARK    2  A    between atoms: C_5  and  C_7
REMARK    3  A    between atoms: C_7  and  C_8
REMARK    4  A    between atoms: C_9  and  C_10
REMARK    5  A    between atoms: C_10  and  C_11
REMARK                            x       y       z     vdW  Elec       q    Type
REMARK                         _______ _______ _______ _____ _____    ______ ____
ROOT
ATOM      1  C   UNL     1       6.777  -2.330  25.838  0.00  0.00    +0.009 C 
ATOM      2  C   UNL     1       7.815  -1.202  25.752  0.00  0.00    +0.024 C 
ATOM      3  C   UNL     1       8.372  -1.099  24.314  0.00  0.00    -0.041 C 
ATOM      4  C   UNL     1       8.859   0.075  23.829  0.00  0.00    -0.040 C 
ATOM      5  C   UNL     1       8.589   1.321  24.546  0.00  0.00    -0.041 C 
ATOM      6  C   UNL     1       7.373   1.302  25.434  0.00  0.00    +0.036 C 
ATOM      7  C   UNL     1       9.278   2.457  24.367  0.00  0.00    +0.050 C 
ATOM      8  C   UNL     1      10.315   2.552  23.325  0.00  0.00    +0.157 C 
ATOM      9  O   UNL     1      11.090   3.502  23.331  0.00  0.00    -0.293 OA
ATOM     10  C   UNL     1      10.240   1.567  22.189  0.00  0.00    +0.083 C 
ATOM     11  C   UNL     1       9.733   0.182  22.595  0.00  0.00    +0.043 C 
ATOM     12  C   UNL     1       8.338  -2.348  23.530  0.00  0.00    +0.000 C 
ATOM     13  C   UNL     1       7.805  -3.515  23.961  0.00  0.00    -0.017 C 
ATOM     14  C   UNL     1       7.371   0.125  26.389  0.00  0.00    +0.013 C 
ATOM     15  C   UNL     1       7.348  -3.712  25.398  0.00  0.00    +0.021 C 
ATOM     16  C   UNL     1       6.126  -4.652  25.880  0.00  0.00    +0.075 C 
ATOM     17  C   UNL     1       5.953  -4.084  27.327  0.00  0.00    +0.036 C 
ATOM     18  C   UNL     1       6.046  -2.564  27.161  0.00  0.00    +0.008 C 
ENDROOT
BRANCH  15  19
ATOM     19  C   UNL     1       8.647  -4.273  26.159  0.00  0.00    +0.011 C 
ATOM     20  C   UNL     1       9.774  -5.033  25.459  0.00  0.00    +0.005 C 
ENDBRANCH  15  19
BRANCH  16  21
ATOM     21  C   UNL     1       4.674  -4.637  25.325  0.00  0.00    +0.032 C 
ATOM     22  C   UNL     1       4.413  -4.564  23.833  0.00  0.00    +0.007 C 
ENDBRANCH  16  21
BRANCH  16  23
ATOM     23  O   UNL     1       6.510  -6.024  25.961  0.00  0.00    -0.388 OA
ATOM     24  H   UNL     1       6.005  -6.511  25.272  0.00  0.00    +0.210 HD
ENDBRANCH  16  23
TORSDOF 3
ENDMDL
MODEL 7
REMARK VINA RESULT:      -6.5      3.762      8.173
REMARK  Name = 
REMARK  5 active torsions:
REMARK  status: ('A' for Active; 'I' for Inactive)
REMARK    1  A    between atoms: C_5  and  O_6
REMARK    2  A    between atoms: C_5  and  C_7
REMARK    3  A    between atoms: C_7  and  C_8
REMARK    4  A    between atoms: C_9  and  C_10
REMARK    5  A    between atoms: C_10  and  C_11
REMARK                            x       y       z     vdW  Elec       q    Type
REMARK                         _______ _______ _______ _____ _____    ______ ____
ROOT
ATOM      1  C   UNL     1       8.567   3.066  24.868  0.00  0.00    +0.009 C 
ATOM      2  C   UNL     1       8.038   1.626  24.910  0.00  0.00    +0.024 C 
ATOM      3  C   UNL     1       9.042   0.668  24.230  0.00  0.00    -0.041 C 
ATOM      4  C   UNL     1       9.109  -0.645  24.577  0.00  0.00    -0.040 C 
ATOM      5  C   UNL     1       8.449  -1.105  25.798  0.00  0.00    -0.041 C 
ATOM      6  C   UNL     1       8.218  -0.046  26.843  0.00  0.00    +0.036 C 
ATOM      7  C   UNL     1       8.158  -2.388  26.060  0.00  0.00    +0.050 C 
ATOM      8  C   UNL     1       8.597  -3.459  25.149  0.00  0.00    +0.157 C 
ATOM      9  O   UNL     1       8.126  -4.585  25.272  0.00  0.00    -0.293 OA
ATOM     10  C   UNL     1       9.752  -3.153  24.234  0.00  0.00    +0.083 C 
ATOM     11  C   UNL     1       9.789  -1.707  23.736  0.00  0.00    +0.043 C 
ATOM     12  C   UNL     1       9.900   1.279  23.197  0.00  0.00    +0.000 C 
ATOM     13  C   UNL     1       9.901   2.593  22.872  0.00  0.00    -0.017 C 
ATOM     14  C   UNL     1       7.517   1.176  26.285  0.00  0.00    +0.013 C 
ATOM     15  C   UNL     1       8.863   3.561  23.420  0.00  0.00    +0.021 C 
ATOM     16  C   UNL     1       9.104   5.126  23.735  0.00  0.00    +0.075 C 
ATOM     17  C   UNL     1       7.837   5.384  24.614  0.00  0.00    +0.036 C 
ATOM     18  C   UNL     1       7.759   4.173  25.547  0.00  0.00    +0.008 C 
ENDROOT
BRANCH  15  19
ATOM     19  C   UNL     1       7.669   3.517  22.346  0.00  0.00    +0.011 C 
ATOM     20  C   UNL     1       6.435   2.626  22.490  0.00  0.00    +0.005 C 
ENDBRANCH  15  19
BRANCH  16  21
ATOM     21  C   UNL     1      10.251   5.731  24.592  0.00  0.00    +0.032 C 
ATOM     22  C   UNL     1      11.637   5.927  24.009  0.00  0.00    +0.007 C 
ENDBRANCH  16  21
BRANCH  16  23
ATOM     23  O   UNL     1       9.023   5.924  22.554  0.00  0.00    -0.388 OA
ATOM     24  H   UNL     1       9.815   6.507  22.539  0.00  0.00    +0.210 HD
ENDBRANCH  16  23
TORSDOF 3
ENDMDL
MODEL 8
REMARK VINA RESULT:      -6.5      1.417      1.883
REMARK  Name = 
REMARK  5 active torsions:
REMARK  status: ('A' for Active; 'I' for Inactive)
REMARK    1  A    between atoms: C_5  and  O_6
REMARK    2  A    between atoms: C_5  and  C_7
REMARK    3  A    between atoms: C_7  and  C_8
REMARK    4  A    between atoms: C_9  and  C_10
REMARK    5  A    between atoms: C_10  and  C_11
REMARK                            x       y       z     vdW  Elec       q    Type
REMARK                         _______ _______ _______ _____ _____    ______ ____
ROOT
ATOM      1  C   UNL     1       6.293  -3.156  24.545  0.00  0.00    +0.009 C 
ATOM      2  C   UNL     1       7.488  -2.204  24.696  0.00  0.00    +0.024 C 
ATOM      3  C   UNL     1       7.845  -1.576  23.330  0.00  0.00    -0.041 C 
ATOM      4  C   UNL     1       8.454  -0.362  23.250  0.00  0.00    -0.040 C 
ATOM      5  C   UNL     1       8.509   0.499  24.430  0.00  0.00    -0.041 C 
ATOM      6  C   UNL     1       7.446   0.240  25.465  0.00  0.00    +0.036 C 
ATOM      7  C   UNL     1       9.351   1.532  24.570  0.00  0.00    +0.050 C 
ATOM      8  C   UNL     1      10.231   1.941  23.462  0.00  0.00    +0.157 C 
ATOM      9  O   UNL     1      11.152   2.721  23.680  0.00  0.00    -0.293 OA
ATOM     10  C   UNL     1       9.827   1.523  22.074  0.00  0.00    +0.083 C 
ATOM     11  C   UNL     1       9.151   0.153  22.005  0.00  0.00    +0.043 C 
ATOM     12  C   UNL     1       7.485  -2.383  22.148  0.00  0.00    +0.000 C 
ATOM     13  C   UNL     1       6.825  -3.563  22.192  0.00  0.00    -0.017 C 
ATOM     14  C   UNL     1       7.375  -1.219  25.871  0.00  0.00    +0.013 C 
ATOM     15  C   UNL     1       6.547  -4.286  23.502  0.00  0.00    +0.021 C 
ATOM     16  C   UNL     1       5.262  -5.211  23.816  0.00  0.00    +0.075 C 
ATOM     17  C   UNL     1       5.397  -5.273  25.373  0.00  0.00    +0.036 C 
ATOM     18  C   UNL     1       5.727  -3.838  25.792  0.00  0.00    +0.008 C 
ENDROOT
BRANCH  15  19
ATOM     19  C   UNL     1       7.825  -5.238  23.711  0.00  0.00    +0.011 C 
ATOM     20  C   UNL     1       8.910  -4.978  24.756  0.00  0.00    +0.005 C 
ENDBRANCH  15  19
BRANCH  16  21
ATOM     21  C   UNL     1       3.771  -4.823  23.611  0.00  0.00    +0.032 C 
ATOM     22  C   UNL     1       2.757  -5.849  23.145  0.00  0.00    +0.007 C 
ENDBRANCH  16  21
BRANCH  16  23
ATOM     23  O   UNL     1       5.411  -6.526  23.282  0.00  0.00    -0.388 OA
ATOM     24  H   UNL     1       4.990  -7.150  23.917  0.00  0.00    +0.210 HD
ENDBRANCH  16  23
TORSDOF 3
ENDMDL
MODEL 9
REMARK VINA RESULT:      -6.4      2.392      3.470
REMARK  Name = 
REMARK  5 active torsions:
REMARK  status: ('A' for Active; 'I' for Inactive)
REMARK    1  A    between atoms: C_5  and  O_6
REMARK    2  A    between atoms: C_5  and  C_7
REMARK    3  A    between atoms: C_7  and  C_8
REMARK    4  A    between atoms: C_9  and  C_10
REMARK    5  A    between atoms: C_10  and  C_11
REMARK                            x       y       z     vdW  Elec       q    Type
REMARK                         _______ _______ _______ _____ _____    ______ ____
ROOT
ATOM      1  C   UNL     1       8.394  -2.611  24.768  0.00  0.00    +0.009 C 
ATOM      2  C   UNL     1       8.694  -1.260  24.104  0.00  0.00    +0.024 C 
ATOM      3  C   UNL     1       7.549  -0.261  24.387  0.00  0.00    -0.041 C 
ATOM      4  C   UNL     1       7.772   1.081  24.401  0.00  0.00    -0.040 C 
ATOM      5  C   UNL     1       9.143   1.586  24.446  0.00  0.00    -0.041 C 
ATOM      6  C   UNL     1      10.161   0.633  25.014  0.00  0.00    +0.036 C 
ATOM      7  C   UNL     1       9.495   2.839  24.126  0.00  0.00    +0.050 C 
ATOM      8  C   UNL     1       8.472   3.847  23.799  0.00  0.00    +0.157 C 
ATOM      9  O   UNL     1       8.812   4.906  23.282  0.00  0.00    -0.293 OA
ATOM     10  C   UNL     1       7.075   3.596  24.298  0.00  0.00    +0.083 C 
ATOM     11  C   UNL     1       6.672   2.120  24.312  0.00  0.00    +0.043 C 
ATOM     12  C   UNL     1       6.226  -0.866  24.633  0.00  0.00    +0.000 C 
ATOM     13  C   UNL     1       5.985  -2.197  24.687  0.00  0.00    -0.017 C 
ATOM     14  C   UNL     1      10.116  -0.728  24.350  0.00  0.00    +0.013 C 
ATOM     15  C   UNL     1       7.039  -3.226  24.306  0.00  0.00    +0.021 C 
ATOM     16  C   UNL     1       7.198  -4.697  24.951  0.00  0.00    +0.075 C 
ATOM     17  C   UNL     1       8.640  -5.020  24.439  0.00  0.00    +0.036 C 
ATOM     18  C   UNL     1       9.432  -3.730  24.672  0.00  0.00    +0.008 C 
ENDROOT
BRANCH  15  19
ATOM     19  C   UNL     1       6.813  -3.467  22.734  0.00  0.00    +0.011 C 
ATOM     20  C   UNL     1       5.491  -3.187  22.018  0.00  0.00    +0.005 C 
ENDBRANCH  15  19
BRANCH  16  21
ATOM     21  C   UNL     1       7.283  -5.039  26.465  0.00  0.00    +0.032 C 
ATOM     22  C   UNL     1       6.312  -4.427  27.456  0.00  0.00    +0.007 C 
ENDBRANCH  16  21
BRANCH  16  23
ATOM     23  O   UNL     1       6.281  -5.630  24.380  0.00  0.00    -0.388 OA
ATOM     24  H   UNL     1       5.657  -5.901  25.091  0.00  0.00    +0.210 HD
ENDBRANCH  16  23
TORSDOF 3
ENDMDL
