MODEL 1
REMARK VINA RESULT:      -4.5      0.000      0.000
REMARK  Name = 
REMARK  34 active torsions:
REMARK  status: ('A' for Active; 'I' for Inactive)
REMARK    1  A    between atoms: C_4  and  C_85
REMARK    2  A    between atoms: C_6  and  C_8
REMARK    3  A    between atoms: C_18  and  CA_20
REMARK    4  A    between atoms: CA_20  and  CB_22
REMARK    5  A    between atoms: CA_20  and  N_24
REMARK    6  A    between atoms: CB_22  and  OG_23
REMARK    7  A    between atoms: C_25  and  C_27
REMARK    8  A    between atoms: C_27  and  C_29
REMARK    9  A    between atoms: C_27  and  N_35
REMARK   10  A    between atoms: C_29  and  C_30
REMARK   11  A    between atoms: C_36  and  CA_38
REMARK   12  A    between atoms: CA_38  and  N_39
REMARK   13  A    between atoms: C_40  and  CA_42
REMARK   14  A    between atoms: CG_44  and  OD_46
REMARK   15  A    between atoms: C_49  and  CA_51
REMARK   16  A    between atoms: C_56  and  CA_58
REMARK   17  A    between atoms: CA_58  and  CB_59
REMARK   18  A    between atoms: CA_58  and  N_66
REMARK   19  A    between atoms: CB_59  and  CG_60
REMARK   20  A    between atoms: CG_60  and  CD_61
REMARK   21  A    between atoms: CD_61  and  NE_62
REMARK   22  A    between atoms: C_67  and  CA_69
REMARK   23  A    between atoms: CA_69  and  N_71
REMARK   24  A    between atoms: CA_69  and  CB_72
REMARK   25  A    between atoms: CB_72  and  CG_73
REMARK   26  A    between atoms: CG_73  and  CD_74
REMARK   27  A    between atoms: CD_74  and  NE_75
REMARK   28  A    between atoms: N_87  and  CA_88
REMARK   29  A    between atoms: CA_88  and  CB_90
REMARK   30  A    between atoms: CA_88  and  C_97
REMARK   31  A    between atoms: CB_90  and  CG_91
REMARK   32  A    between atoms: CG_91  and  CD_92
REMARK   33  A    between atoms: CD_92  and  NE_93
REMARK   34  A    between atoms: C_97  and  O_98
REMARK                            x       y       z     vdW  Elec       q    Type
REMARK                         _______ _______ _______ _____ _____    ______ ____
ROOT
ATOM      1  C   UNK A   6       8.580  -3.361  25.084  0.00  0.00    +0.164 C 
ENDROOT
BRANCH   1   4
ATOM      2  N   SER A   7       7.652  -1.080  25.064  0.00  0.00    -0.301 N 
ATOM      3  H   SER A   7       7.160  -1.382  24.225  0.00  0.00    +0.150 HD
ATOM      4  C   UNK A   6       8.380  -2.004  25.782  0.00  0.00    +0.234 C 
ATOM      5  O   UNK A   6       8.966  -1.736  26.830  0.00  0.00    -0.274 OA
BRANCH   2   6
ATOM      6  CA  SER A   7       7.184   0.191  25.641  0.00  0.00    +0.185 C 
BRANCH   6   9
ATOM      7  C   UNK A   8       6.706   3.172  24.737  0.00  0.00    +0.167 C 
ATOM      8  N   UNK A   8       7.934   2.339  24.676  0.00  0.00    -0.284 N 
ATOM      9  C   SER A   7       8.252   1.290  25.535  0.00  0.00    +0.239 C 
ATOM     10  O   SER A   7       9.375   1.150  26.015  0.00  0.00    -0.273 OA
ATOM     11  C   UNK A   8       9.062   2.976  23.987  0.00  0.00    +0.144 C 
ATOM     12  C   UNK A   8       9.254   4.429  24.353  0.00  0.00    -0.027 A 
ATOM     13  C   UNK A   8       8.272   5.144  25.064  0.00  0.00    -0.040 A 
ATOM     14  C   UNK A   8       8.524   6.470  25.440  0.00  0.00    +0.004 A 
ATOM     15  C   UNK A   8       9.712   7.099  25.067  0.00  0.00    +0.000 A 
ATOM     16  C   UNK A   8      10.651   6.419  24.298  0.00  0.00    +0.000 A 
ATOM     17  C   UNK A   8      10.425   5.089  23.944  0.00  0.00    +0.005 A 
ATOM     18  C   UNK A   8       6.944   4.519  25.426  0.00  0.00    +0.067 C 
BRANCH   7  26
ATOM     19  C   UNK A   9       4.324   3.326  28.498  0.00  0.00    +0.012 C 
ATOM     20  C   UNK A   9       4.150   4.827  28.246  0.00  0.00    +0.005 C 
ATOM     21  C   UNK A   9       5.458   5.536  28.372  0.00  0.00    +0.000 C 
ATOM     22  C   UNK A   9       6.594   4.940  27.558  0.00  0.00    +0.002 C 
ATOM     23  C   UNK A   9       6.708   3.451  27.861  0.00  0.00    +0.023 C 
ATOM     24  C   UNK A   9       5.385   2.743  27.575  0.00  0.00    +0.080 C 
ATOM     25  N   UNK A   9       4.681   2.849  26.284  0.00  0.00    -0.285 N 
ATOM     26  C   UNK A   8       5.224   2.715  25.012  0.00  0.00    +0.237 C 
ATOM     27  O   UNK A   8       4.531   2.271  24.097  0.00  0.00    -0.274 OA
ATOM     28  C   UNK A   9       3.211   2.602  26.518  0.00  0.00    +0.163 C 
ATOM     29  C   UNK A   9       3.065   2.612  28.061  0.00  0.00    +0.037 C 
BRANCH  28  30
ATOM     30  C   UNK A   9       2.184   3.643  25.946  0.00  0.00    +0.234 C 
ATOM     31  N   ARG A  10       2.777   4.663  25.185  0.00  0.00    -0.301 N 
ATOM     32  H   ARG A  10       3.745   4.875  25.407  0.00  0.00    +0.150 HD
ATOM     33  O   UNK A   9       0.968   3.547  26.098  0.00  0.00    -0.274 OA
BRANCH  31  34
ATOM     34  CA  ARG A  10       1.962   5.759  24.615  0.00  0.00    +0.182 C 
BRANCH  34  35
ATOM     35  C   ARG A  10       1.311   5.462  23.247  0.00  0.00    +0.325 C 
ATOM     36  OXT ARG A  10       0.466   4.601  23.056  0.00  0.00    -0.249 OA
BRANCH  35  37
ATOM     37  O   ARG A  10       1.720   6.285  22.250  0.00  0.00    -0.479 OA
ATOM     38  H   ARG A  10       2.688   6.263  22.143  0.00  0.00    +0.295 HD
ENDBRANCH  35  37
ENDBRANCH  34  35
BRANCH  34  39
ATOM     39  CB  ARG A  10       2.762   7.073  24.572  0.00  0.00    +0.037 C 
BRANCH  39  40
ATOM     40  CG  ARG A  10       4.296   6.946  24.491  0.00  0.00    +0.043 C 
BRANCH  40  41
ATOM     41  CD  ARG A  10       4.880   7.107  23.088  0.00  0.00    +0.243 C 
BRANCH  41  42
ATOM     42  NE  ARG A  10       5.227   5.788  22.563  0.00  0.00    -0.114 NA
ATOM     43  CZ  ARG A  10       6.410   5.644  22.085  0.00  0.00    +0.376 C 
ATOM     44  NH2 ARG A  10       6.791   4.437  21.617  0.00  0.00    -0.289 N 
ATOM     45 HH21 ARG A  10       7.358   4.437  20.783  0.00  0.00    +0.255 HD
ATOM     46 HH22 ARG A  10       6.000   3.806  21.547  0.00  0.00    +0.255 HD
ATOM     47  NH1 ARG A  10       7.409   6.546  21.994  0.00  0.00    -0.289 N 
ATOM     48 HH11 ARG A  10       8.143   6.393  21.321  0.00  0.00    +0.255 HD
ATOM     49 HH12 ARG A  10       7.197   7.520  22.166  0.00  0.00    +0.255 HD
ENDBRANCH  41  42
ENDBRANCH  40  41
ENDBRANCH  39  40
ENDBRANCH  34  39
ENDBRANCH  31  34
ENDBRANCH  28  30
ENDBRANCH   7  26
ENDBRANCH   6   9
BRANCH   6  50
ATOM     50  CB  SER A   7       6.581   0.088  27.042  0.00  0.00    +0.187 C 
BRANCH  50  51
ATOM     51  OG  SER A   7       5.213  -0.351  26.965  0.00  0.00    -0.393 OA
ATOM     52  H   SER A   7       4.823  -0.285  27.865  0.00  0.00    +0.209 HD
ENDBRANCH  50  51
ENDBRANCH   6  50
ENDBRANCH   2   6
ENDBRANCH   1   4
BRANCH   1  53
ATOM     53  N   UNK A   6       7.463  -4.233  25.519  0.00  0.00    -0.302 N 
ATOM     54  H   UNK A   6       6.744  -4.420  24.829  0.00  0.00    +0.150 HD
ATOM     55  C   GLY A   5       7.568  -5.011  26.655  0.00  0.00    +0.231 C 
ATOM     56  O   GLY A   5       8.591  -5.017  27.338  0.00  0.00    -0.274 OA
BRANCH  55  57
ATOM     57  CA  GLY A   5       6.347  -5.886  27.010  0.00  0.00    +0.200 C 
BRANCH  57  58
ATOM     58  N   GLY A   5       5.391  -5.317  27.943  0.00  0.00    -0.305 N 
ATOM     59  H   GLY A   5       4.872  -5.983  28.512  0.00  0.00    +0.149 HD
ATOM     60  C   HYP A   4       5.208  -3.928  28.151  0.00  0.00    +0.234 C 
ATOM     61  O   HYP A   4       5.804  -3.058  27.520  0.00  0.00    -0.274 OA
BRANCH  60  62
ATOM     62  CA  HYP A   4       4.130  -3.561  29.257  0.00  0.00    +0.164 C 
ATOM     63  N   HYP A   4       2.632  -3.908  29.436  0.00  0.00    -0.286 N 
ATOM     64  C   PRO A   3       1.812  -5.060  29.689  0.00  0.00    +0.237 C 
ATOM     65  O   PRO A   3       0.819  -4.827  30.414  0.00  0.00    -0.274 OA
ATOM     66  CD  HYP A   4       2.062  -2.734  30.154  0.00  0.00    +0.140 C 
ATOM     67  CG  HYP A   4       3.179  -1.755  30.485  0.00  0.00    +0.134 C 
ATOM     68  CB  HYP A   4       4.198  -2.024  29.414  0.00  0.00    +0.065 C 
BRANCH  64  69
ATOM     69  CA  PRO A   3       1.679  -6.553  29.035  0.00  0.00    +0.162 C 
ATOM     70  N   PRO A   3       1.486  -6.866  27.507  0.00  0.00    -0.288 N 
ATOM     71  C   ARG A   2       1.982  -6.126  26.409  0.00  0.00    +0.237 C 
ATOM     72  O   ARG A   2       2.478  -5.015  26.576  0.00  0.00    -0.274 OA
ATOM     73  CD  PRO A   3       1.142  -8.267  27.332  0.00  0.00    +0.109 C 
ATOM     74  CG  PRO A   3       1.048  -8.867  28.729  0.00  0.00    +0.021 C 
ATOM     75  CB  PRO A   3       0.915  -7.688  29.714  0.00  0.00    +0.033 C 
BRANCH  71  76
ATOM     76  CA  ARG A   2       1.897  -6.717  24.890  0.00  0.00    +0.159 C 
BRANCH  76  77
ATOM     77  N   ARG A   2       3.070  -6.365  24.043  0.00  0.00    -0.303 N 
ATOM     78  H   ARG A   2       2.920  -5.676  23.319  0.00  0.00    +0.149 HD
ATOM     79  C   ARG A   1       4.283  -7.066  24.055  0.00  0.00    +0.230 C 
ATOM     80  O   ARG A   1       4.526  -7.928  24.900  0.00  0.00    -0.274 OA
BRANCH  79  81
ATOM     81  CA  ARG A   1       5.328  -6.620  22.954  0.00  0.00    +0.138 C 
BRANCH  81  82
ATOM     82  N   ARG A   1       6.391  -7.639  22.869  0.00  0.00    -0.320 NA
ATOM     83  H1  ARG A   1       6.553  -8.078  23.768  0.00  0.00    +0.119 HD
ATOM     84  H2  ARG A   1       6.108  -8.383  22.231  0.00  0.00    +0.119 HD
ENDBRANCH  81  82
BRANCH  81  85
ATOM     85  CB  ARG A   1       5.971  -5.219  23.196  0.00  0.00    +0.031 C 
BRANCH  85  86
ATOM     86  CG  ARG A   1       6.200  -4.400  21.900  0.00  0.00    +0.043 C 
BRANCH  86  87
ATOM     87  CD  ARG A   1       5.591  -2.988  21.932  0.00  0.00    +0.243 C 
BRANCH  87  88
ATOM     88  NE  ARG A   1       5.508  -2.555  23.332  0.00  0.00    -0.114 NA
ATOM     89  CZ  ARG A   1       4.508  -2.922  24.048  0.00  0.00    +0.376 C 
ATOM     90  NH2 ARG A   1       4.468  -2.597  25.355  0.00  0.00    -0.289 N 
ATOM     91 HH21 ARG A   1       3.569  -2.362  25.749  0.00  0.00    +0.255 HD
ATOM     92 HH22 ARG A   1       5.187  -1.927  25.605  0.00  0.00    +0.255 HD
ATOM     93  NH1 ARG A   1       3.434  -3.648  23.683  0.00  0.00    -0.289 N 
ATOM     94 HH11 ARG A   1       2.583  -3.504  24.205  0.00  0.00    +0.255 HD
ATOM     95 HH12 ARG A   1       3.282  -3.768  22.695  0.00  0.00    +0.255 HD
ENDBRANCH  87  88
ENDBRANCH  86  87
ENDBRANCH  85  86
ENDBRANCH  81  85
ENDBRANCH  79  81
ENDBRANCH  76  77
BRANCH  76  96
ATOM     96  CB  ARG A   2       0.529  -6.367  24.133  0.00  0.00    +0.035 C 
BRANCH  96  97
ATOM     97  CG  ARG A   2       0.642  -5.716  22.730  0.00  0.00    +0.043 C 
BRANCH  97  98
ATOM     98  CD  ARG A   2       0.444  -6.565  21.445  0.00  0.00    +0.243 C 
BRANCH  98  99
ATOM     99  NE  ARG A   2       1.469  -7.579  21.151  0.00  0.00    -0.114 NA
ATOM    100  CZ  ARG A   2       1.397  -8.137  19.990  0.00  0.00    +0.376 C 
ATOM    101  NH2 ARG A   2       2.300  -9.061  19.573  0.00  0.00    -0.289 N 
ATOM    102 HH21 ARG A   2       1.898  -9.828  19.047  0.00  0.00    +0.255 HD
ATOM    103 HH22 ARG A   2       2.883  -9.392  20.333  0.00  0.00    +0.255 HD
ATOM    104  NH1 ARG A   2       0.501  -7.951  18.984  0.00  0.00    -0.289 N 
ATOM    105 HH11 ARG A   2       0.895  -8.086  18.060  0.00  0.00    +0.255 HD
ATOM    106 HH12 ARG A   2      -0.019  -7.086  19.031  0.00  0.00    +0.255 HD
ENDBRANCH  98  99
ENDBRANCH  97  98
ENDBRANCH  96  97
ENDBRANCH  76  96
ENDBRANCH  71  76
ENDBRANCH  64  69
BRANCH  67 107
ATOM    107  OD  HYP A   4       2.779  -0.399  30.472  0.00  0.00    -0.390 OA
ATOM    108  HD  HYP A   4       1.833  -0.361  30.242  0.00  0.00    +0.210 HD
ENDBRANCH  67 107
ENDBRANCH  60  62
ENDBRANCH  57  58
ENDBRANCH  55  57
ENDBRANCH   1  53
BRANCH   1 109
ATOM    109  C   UNK A   6       8.625  -3.162  23.551  0.00  0.00    +0.074 C 
BRANCH 109 110
ATOM    110  C   UNK A   6       9.387  -1.921  23.153  0.00  0.00    -0.008 A 
ATOM    111  S   UNK A   6       9.000  -1.097  21.698  0.00  0.00    -0.102 S 
ATOM    112  C   UNK A   6      10.108   0.157  22.035  0.00  0.00    +0.045 A 
ATOM    113  C   UNK A   6      10.836  -0.093  23.175  0.00  0.00    +0.008 A 
ATOM    114  C   UNK A   6      10.427  -1.300  23.818  0.00  0.00    +0.011 A 
ENDBRANCH 109 110
ENDBRANCH   1 109
TORSDOF 34
ENDMDL
MODEL 2
REMARK VINA RESULT:      -1.9      2.024      4.266
REMARK  Name = 
REMARK  34 active torsions:
REMARK  status: ('A' for Active; 'I' for Inactive)
REMARK    1  A    between atoms: C_4  and  C_85
REMARK    2  A    between atoms: C_6  and  C_8
REMARK    3  A    between atoms: C_18  and  CA_20
REMARK    4  A    between atoms: CA_20  and  CB_22
REMARK    5  A    between atoms: CA_20  and  N_24
REMARK    6  A    between atoms: CB_22  and  OG_23
REMARK    7  A    between atoms: C_25  and  C_27
REMARK    8  A    between atoms: C_27  and  C_29
REMARK    9  A    between atoms: C_27  and  N_35
REMARK   10  A    between atoms: C_29  and  C_30
REMARK   11  A    between atoms: C_36  and  CA_38
REMARK   12  A    between atoms: CA_38  and  N_39
REMARK   13  A    between atoms: C_40  and  CA_42
REMARK   14  A    between atoms: CG_44  and  OD_46
REMARK   15  A    between atoms: C_49  and  CA_51
REMARK   16  A    between atoms: C_56  and  CA_58
REMARK   17  A    between atoms: CA_58  and  CB_59
REMARK   18  A    between atoms: CA_58  and  N_66
REMARK   19  A    between atoms: CB_59  and  CG_60
REMARK   20  A    between atoms: CG_60  and  CD_61
REMARK   21  A    between atoms: CD_61  and  NE_62
REMARK   22  A    between atoms: C_67  and  CA_69
REMARK   23  A    between atoms: CA_69  and  N_71
REMARK   24  A    between atoms: CA_69  and  CB_72
REMARK   25  A    between atoms: CB_72  and  CG_73
REMARK   26  A    between atoms: CG_73  and  CD_74
REMARK   27  A    between atoms: CD_74  and  NE_75
REMARK   28  A    between atoms: N_87  and  CA_88
REMARK   29  A    between atoms: CA_88  and  CB_90
REMARK   30  A    between atoms: CA_88  and  C_97
REMARK   31  A    between atoms: CB_90  and  CG_91
REMARK   32  A    between atoms: CG_91  and  CD_92
REMARK   33  A    between atoms: CD_92  and  NE_93
REMARK   34  A    between atoms: C_97  and  O_98
REMARK                            x       y       z     vdW  Elec       q    Type
REMARK                         _______ _______ _______ _____ _____    ______ ____
ROOT
ATOM      1  C   UNK A   6       8.478  -2.546  23.000  0.00  0.00    +0.164 C 
ENDROOT
BRANCH   1   4
ATOM      2  N   SER A   7       7.508  -0.657  24.248  0.00  0.00    -0.301 N 
ATOM      3  H   SER A   7       7.778  -1.182  25.078  0.00  0.00    +0.150 HD
ATOM      4  C   UNK A   6       7.891  -1.123  23.008  0.00  0.00    +0.234 C 
ATOM      5  O   UNK A   6       7.649  -0.529  21.959  0.00  0.00    -0.274 OA
BRANCH   2   6
ATOM      6  CA  SER A   7       7.118   0.741  24.491  0.00  0.00    +0.185 C 
BRANCH   6   9
ATOM      7  C   UNK A   8       7.100   3.892  24.413  0.00  0.00    +0.167 C 
ATOM      8  N   UNK A   8       8.184   2.932  24.080  0.00  0.00    -0.284 N 
ATOM      9  C   SER A   7       8.342   1.659  24.622  0.00  0.00    +0.239 C 
ATOM     10  O   SER A   7       9.434   1.234  24.996  0.00  0.00    -0.273 OA
ATOM     11  C   UNK A   8       9.391   3.555  23.527  0.00  0.00    +0.144 C 
ATOM     12  C   UNK A   8       9.809   4.815  24.246  0.00  0.00    -0.027 A 
ATOM     13  C   UNK A   8       8.955   5.455  25.164  0.00  0.00    -0.040 A 
ATOM     14  C   UNK A   8       9.413   6.583  25.857  0.00  0.00    +0.004 A 
ATOM     15  C   UNK A   8      10.680   7.106  25.604  0.00  0.00    +0.000 A 
ATOM     16  C   UNK A   8      11.497   6.521  24.641  0.00  0.00    +0.000 A 
ATOM     17  C   UNK A   8      11.066   5.380  23.966  0.00  0.00    +0.005 A 
ATOM     18  C   UNK A   8       7.549   4.960  25.415  0.00  0.00    +0.067 C 
BRANCH   7  26
ATOM     19  C   UNK A   9       4.649   4.138  28.124  0.00  0.00    +0.012 C 
ATOM     20  C   UNK A   9       4.661   5.660  27.950  0.00  0.00    +0.005 C 
ATOM     21  C   UNK A   9       6.041   6.200  28.143  0.00  0.00    +0.000 C 
ATOM     22  C   UNK A   9       7.120   5.514  27.322  0.00  0.00    +0.002 C 
ATOM     23  C   UNK A   9       7.048   4.009  27.547  0.00  0.00    +0.023 C 
ATOM     24  C   UNK A   9       5.660   3.480  27.195  0.00  0.00    +0.080 C 
ATOM     25  N   UNK A   9       5.009   3.735  25.896  0.00  0.00    -0.285 N 
ATOM     26  C   UNK A   8       5.567   3.602  24.631  0.00  0.00    +0.237 C 
ATOM     27  O   UNK A   8       4.852   3.291  23.678  0.00  0.00    -0.274 OA
ATOM     28  C   UNK A   9       3.514   3.655  26.085  0.00  0.00    +0.163 C 
ATOM     29  C   UNK A   9       3.328   3.603  27.623  0.00  0.00    +0.037 C 
BRANCH  28  30
ATOM     30  C   UNK A   9       2.634   4.838  25.548  0.00  0.00    +0.234 C 
ATOM     31  N   ARG A  10       2.278   4.711  24.196  0.00  0.00    -0.301 N 
ATOM     32  H   ARG A  10       2.909   4.159  23.622  0.00  0.00    +0.150 HD
ATOM     33  O   UNK A   9       2.242   5.765  26.255  0.00  0.00    -0.274 OA
BRANCH  31  34
ATOM     34  CA  ARG A  10       1.495   5.764  23.512  0.00  0.00    +0.182 C 
BRANCH  34  35
ATOM     35  C   ARG A  10       0.932   5.381  22.126  0.00  0.00    +0.325 C 
ATOM     36  OXT ARG A  10       0.849   4.237  21.707  0.00  0.00    -0.249 OA
BRANCH  35  37
ATOM     37  O   ARG A  10       0.474   6.434  21.406  0.00  0.00    -0.479 OA
ATOM     38  H   ARG A  10      -0.500   6.452  21.380  0.00  0.00    +0.295 HD
ENDBRANCH  35  37
ENDBRANCH  34  35
BRANCH  34  39
ATOM     39  CB  ARG A  10       2.288   7.080  23.441  0.00  0.00    +0.037 C 
BRANCH  39  40
ATOM     40  CG  ARG A  10       3.507   7.103  22.499  0.00  0.00    +0.043 C 
BRANCH  40  41
ATOM     41  CD  ARG A  10       4.688   6.246  22.956  0.00  0.00    +0.243 C 
BRANCH  41  42
ATOM     42  NE  ARG A  10       5.930   6.869  22.506  0.00  0.00    -0.114 NA
ATOM     43  CZ  ARG A  10       6.778   6.113  21.907  0.00  0.00    +0.376 C 
ATOM     44  NH2 ARG A  10       7.927   6.646  21.444  0.00  0.00    -0.289 N 
ATOM     45 HH21 ARG A  10       8.757   6.082  21.545  0.00  0.00    +0.255 HD
ATOM     46 HH22 ARG A  10       8.057   7.591  21.789  0.00  0.00    +0.255 HD
ATOM     47  NH1 ARG A  10       6.693   4.797  21.620  0.00  0.00    -0.289 N 
ATOM     48 HH11 ARG A  10       7.542   4.280  21.448  0.00  0.00    +0.255 HD
ATOM     49 HH12 ARG A  10       5.955   4.255  22.050  0.00  0.00    +0.255 HD
ENDBRANCH  41  42
ENDBRANCH  40  41
ENDBRANCH  39  40
ENDBRANCH  34  39
ENDBRANCH  31  34
ENDBRANCH  28  30
ENDBRANCH   7  26
ENDBRANCH   6   9
BRANCH   6  50
ATOM     50  CB  SER A   7       6.103   0.948  25.616  0.00  0.00    +0.187 C 
BRANCH  50  51
ATOM     51  OG  SER A   7       4.911   0.184  25.359  0.00  0.00    -0.393 OA
ATOM     52  H   SER A   7       5.025  -0.277  24.498  0.00  0.00    +0.209 HD
ENDBRANCH  50  51
ENDBRANCH   6  50
ENDBRANCH   2   6
ENDBRANCH   1   4
BRANCH   1  53
ATOM     53  N   UNK A   6       7.895  -3.254  24.164  0.00  0.00    -0.302 N 
ATOM     54  H   UNK A   6       8.554  -3.653  24.823  0.00  0.00    +0.150 HD
ATOM     55  C   GLY A   5       6.569  -3.085  24.510  0.00  0.00    +0.231 C 
ATOM     56  O   GLY A   5       5.829  -2.336  23.873  0.00  0.00    -0.274 OA
BRANCH  55  57
ATOM     57  CA  GLY A   5       6.070  -3.865  25.744  0.00  0.00    +0.200 C 
BRANCH  57  58
ATOM     58  N   GLY A   5       5.416  -3.088  26.781  0.00  0.00    -0.305 N 
ATOM     59  H   GLY A   5       4.495  -3.412  27.068  0.00  0.00    +0.149 HD
ATOM     60  C   HYP A   4       6.007  -1.985  27.446  0.00  0.00    +0.234 C 
ATOM     61  O   HYP A   4       7.120  -1.539  27.174  0.00  0.00    -0.274 OA
BRANCH  60  62
ATOM     62  CA  HYP A   4       5.102  -1.327  28.572  0.00  0.00    +0.164 C 
ATOM     63  N   HYP A   4       3.577  -1.094  28.706  0.00  0.00    -0.286 N 
ATOM     64  C   PRO A   3       2.373  -1.866  28.846  0.00  0.00    +0.237 C 
ATOM     65  O   PRO A   3       1.511  -1.333  29.582  0.00  0.00    -0.274 OA
ATOM     66  CD  HYP A   4       3.462   0.145  29.523  0.00  0.00    +0.140 C 
ATOM     67  CG  HYP A   4       4.850   0.598  29.951  0.00  0.00    +0.134 C 
ATOM     68  CB  HYP A   4       5.737   0.050  28.869  0.00  0.00    +0.065 C 
BRANCH  64  69
ATOM     69  CA  PRO A   3       1.715  -3.139  28.058  0.00  0.00    +0.162 C 
ATOM     70  N   PRO A   3       2.443  -4.498  27.753  0.00  0.00    -0.288 N 
ATOM     71  C   ARG A   2       3.432  -5.138  28.536  0.00  0.00    +0.237 C 
ATOM     72  O   ARG A   2       3.960  -4.553  29.478  0.00  0.00    -0.274 OA
ATOM     73  CD  PRO A   3       1.654  -5.279  26.816  0.00  0.00    +0.109 C 
ATOM     74  CG  PRO A   3       0.445  -4.426  26.454  0.00  0.00    +0.021 C 
ATOM     75  CB  PRO A   3       0.781  -2.978  26.861  0.00  0.00    +0.033 C 
BRANCH  71  76
ATOM     76  CA  ARG A   2       3.912  -6.661  28.202  0.00  0.00    +0.159 C 
BRANCH  76  77
ATOM     77  N   ARG A   2       2.791  -7.583  27.868  0.00  0.00    -0.303 N 
ATOM     78  H   ARG A   2       2.675  -7.827  26.894  0.00  0.00    +0.149 HD
ATOM     79  C   ARG A   1       1.788  -7.956  28.772  0.00  0.00    +0.230 C 
ATOM     80  O   ARG A   1       1.858  -7.679  29.970  0.00  0.00    -0.274 OA
BRANCH  79  81
ATOM     81  CA  ARG A   1       0.607  -8.809  28.153  0.00  0.00    +0.138 C 
BRANCH  81  82
ATOM     82  N   ARG A   1       0.813 -10.227  28.503  0.00  0.00    -0.320 NA
ATOM     83  H1  ARG A   1       1.597 -10.339  29.136  0.00  0.00    +0.119 HD
ATOM     84  H2  ARG A   1      -0.007 -10.585  28.993  0.00  0.00    +0.119 HD
ENDBRANCH  81  82
BRANCH  81  85
ATOM     85  CB  ARG A   1       0.450  -8.675  26.607  0.00  0.00    +0.031 C 
BRANCH  85  86
ATOM     86  CG  ARG A   1       1.138  -9.809  25.804  0.00  0.00    +0.043 C 
BRANCH  86  87
ATOM     87  CD  ARG A   1       1.786  -9.346  24.488  0.00  0.00    +0.243 C 
BRANCH  87  88
ATOM     88  NE  ARG A   1       2.824  -8.361  24.810  0.00  0.00    -0.114 NA
ATOM     89  CZ  ARG A   1       2.803  -7.211  24.241  0.00  0.00    +0.376 C 
ATOM     90  NH2 ARG A   1       3.705  -6.274  24.593  0.00  0.00    -0.289 N 
ATOM     91 HH21 ARG A   1       4.065  -5.676  23.863  0.00  0.00    +0.255 HD
ATOM     92 HH22 ARG A   1       4.439  -6.651  25.181  0.00  0.00    +0.255 HD
ATOM     93  NH1 ARG A   1       1.952  -6.754  23.302  0.00  0.00    -0.289 N 
ATOM     94 HH11 ARG A   1       2.294  -6.036  22.682  0.00  0.00    +0.255 HD
ATOM     95 HH12 ARG A   1       1.374  -7.438  22.842  0.00  0.00    +0.255 HD
ENDBRANCH  87  88
ENDBRANCH  86  87
ENDBRANCH  85  86
ENDBRANCH  81  85
ENDBRANCH  79  81
ENDBRANCH  76  77
BRANCH  76  96
ATOM     96  CB  ARG A   2       4.858  -7.305  29.323  0.00  0.00    +0.035 C 
BRANCH  96  97
ATOM     97  CG  ARG A   2       6.214  -6.605  29.594  0.00  0.00    +0.043 C 
BRANCH  97  98
ATOM     98  CD  ARG A   2       6.825  -5.630  28.551  0.00  0.00    +0.243 C 
BRANCH  98  99
ATOM     99  NE  ARG A   2       7.320  -6.220  27.297  0.00  0.00    -0.114 NA
ATOM    100  CZ  ARG A   2       8.343  -5.643  26.765  0.00  0.00    +0.376 C 
ATOM    101  NH2 ARG A   2       8.926  -6.103  25.629  0.00  0.00    -0.289 N 
ATOM    102 HH21 ARG A   2       9.227  -5.375  24.990  0.00  0.00    +0.255 HD
ATOM    103 HH22 ARG A   2       8.353  -6.797  25.163  0.00  0.00    +0.255 HD
ATOM    104  NH1 ARG A   2       9.040  -4.547  27.172  0.00  0.00    -0.289 N 
ATOM    105 HH11 ARG A   2      10.022  -4.577  26.925  0.00  0.00    +0.255 HD
ATOM    106 HH12 ARG A   2       8.919  -4.302  28.144  0.00  0.00    +0.255 HD
ENDBRANCH  98  99
ENDBRANCH  97  98
ENDBRANCH  96  97
ENDBRANCH  76  96
ENDBRANCH  71  76
ENDBRANCH  64  69
BRANCH  67 107
ATOM    107  OD  HYP A   4       4.991   2.001  30.058  0.00  0.00    -0.390 OA
ATOM    108  HD  HYP A   4       5.688   2.287  29.440  0.00  0.00    +0.210 HD
ENDBRANCH  67 107
ENDBRANCH  60  62
ENDBRANCH  57  58
ENDBRANCH  55  57
ENDBRANCH   1  53
BRANCH   1 109
ATOM    109  C   UNK A   6       8.159  -3.237  21.654  0.00  0.00    +0.074 C 
BRANCH 109 110
ATOM    110  C   UNK A   6       7.271  -4.446  21.824  0.00  0.00    -0.008 A 
ATOM    111  S   UNK A   6       7.862  -5.849  22.616  0.00  0.00    -0.102 S 
ATOM    112  C   UNK A   6       6.339  -6.618  22.535  0.00  0.00    +0.045 A 
ATOM    113  C   UNK A   6       5.425  -5.871  21.828  0.00  0.00    +0.008 A 
ATOM    114  C   UNK A   6       5.965  -4.620  21.407  0.00  0.00    +0.011 A 
ENDBRANCH 109 110
ENDBRANCH   1 109
TORSDOF 34
ENDMDL
