MODEL 1
REMARK VINA RESULT:      -7.6      0.000      0.000
REMARK  Name = 
REMARK  7 active torsions:
REMARK  status: ('A' for Active; 'I' for Inactive)
REMARK    1  A    between atoms: C_1  and  C_2
REMARK    2  A    between atoms: C_5  and  C_27
REMARK    3  A    between atoms: C_7  and  C_8
REMARK    4  A    between atoms: N_16  and  C_17
REMARK    5  A    between atoms: C_17  and  C_18
REMARK    6  A    between atoms: C_18  and  N_19
REMARK    7  A    between atoms: N_29  and  C_30
REMARK                            x       y       z     vdW  Elec       q    Type
REMARK                         _______ _______ _______ _____ _____    ______ ____
ROOT
ATOM      1  C   UNL     1       8.820   2.839  23.319  0.00  0.00    -0.017 A 
ATOM      2  C   UNL     1       9.503   2.262  22.230  0.00  0.00    +0.010 A 
ATOM      3  C   UNL     1       9.843   0.893  22.196  0.00  0.00    +0.029 A 
ATOM      4  C   UNL     1       9.486   0.021  23.216  0.00  0.00    +0.076 A 
ATOM      5  N   UNL     1       9.804  -1.286  23.167  0.00  0.00    -0.215 NA
ATOM      6  C   UNL     1       9.422  -2.062  24.192  0.00  0.00    +0.216 A 
ATOM      7  N   UNL     1       8.713  -1.621  25.237  0.00  0.00    -0.222 NA
ATOM      8  C   UNL     1       8.411  -0.315  25.264  0.00  0.00    +0.124 A 
ATOM      9  N   UNL     1       9.822  -3.390  24.165  0.00  0.00    -0.312 N 
ATOM     10  H   UNL     1      10.032  -3.632  23.200  0.00  0.00    +0.149 HD
ATOM     11  C   UNL     1       8.792   0.577  24.283  0.00  0.00    +0.019 A 
ATOM     12  C   UNL     1       8.499   1.955  24.354  0.00  0.00    +0.020 A 
ENDROOT
BRANCH   1  15
ATOM     13  C   UNL     1      10.938   5.118  23.771  0.00  0.00    +0.044 C 
ATOM     14  C   UNL     1       9.461   5.340  23.560  0.00  0.00    -0.043 A 
ATOM     15  C   UNL     1       8.500   4.305  23.371  0.00  0.00    -0.014 A 
ATOM     16  C   UNL     1       7.147   4.710  23.230  0.00  0.00    +0.021 A 
ATOM     17  C   UNL     1       6.747   6.058  23.302  0.00  0.00    +0.037 A 
ATOM     18  C   UNL     1       7.716   7.046  23.442  0.00  0.00    +0.013 A 
ATOM     19  C   UNL     1       9.053   6.693  23.562  0.00  0.00    +0.005 A 
BRANCH  17  20
ATOM     20  C   UNL     1       5.328   6.493  23.228  0.00  0.00    +0.244 C 
ATOM     21  N   UNL     1       4.628   6.133  22.091  0.00  0.00    -0.308 N 
ATOM     22  H   UNL     1       5.060   5.522  21.411  0.00  0.00    +0.149 HD
ATOM     23  O   UNL     1       4.826   7.091  24.173  0.00  0.00    -0.270 OA
BRANCH  21  24
ATOM     24  C   UNL     1       3.223   6.387  21.966  0.00  0.00    +0.073 C 
ATOM     25  C   UNL     1       2.339   5.434  21.207  0.00  0.00    +0.024 C 
ATOM     26  C   UNL     1       2.624   6.799  20.652  0.00  0.00    +0.024 C 
ENDBRANCH  21  24
ENDBRANCH  17  20
ENDBRANCH   1  15
BRANCH   9  27
ATOM     27  C   UNL     1       8.921  -4.322  24.830  0.00  0.00    +0.119 C 
BRANCH  27  28
ATOM     28  C   UNL     1       8.149  -5.181  23.803  0.00  0.00    +0.103 C 
BRANCH  28  29
ATOM     29  N   UNL     1       6.673  -5.057  23.873  0.00  0.00    -0.297 NA
ATOM     30  C   UNL     1       6.028  -5.963  22.892  0.00  0.00    +0.112 C 
ATOM     31  C   UNL     1       6.178  -5.511  21.425  0.00  0.00    +0.175 C 
ATOM     32  O   UNL     1       5.726  -4.164  21.230  0.00  0.00    -0.377 OA
ATOM     33  C   UNL     1       6.386  -3.259  22.123  0.00  0.00    +0.175 C 
ATOM     34  C   UNL     1       6.187  -3.686  23.586  0.00  0.00    +0.112 C 
ENDBRANCH  28  29
ENDBRANCH  27  28
ENDBRANCH   9  27
TORSDOF 6
ENDMDL
MODEL 2
REMARK VINA RESULT:      -7.2      1.936      2.167
REMARK  Name = 
REMARK  7 active torsions:
REMARK  status: ('A' for Active; 'I' for Inactive)
REMARK    1  A    between atoms: C_1  and  C_2
REMARK    2  A    between atoms: C_5  and  C_27
REMARK    3  A    between atoms: C_7  and  C_8
REMARK    4  A    between atoms: N_16  and  C_17
REMARK    5  A    between atoms: C_17  and  C_18
REMARK    6  A    between atoms: C_18  and  N_19
REMARK    7  A    between atoms: N_29  and  C_30
REMARK                            x       y       z     vdW  Elec       q    Type
REMARK                         _______ _______ _______ _____ _____    ______ ____
ROOT
ATOM      1  C   UNL     1       9.490   2.435  23.755  0.00  0.00    -0.017 A 
ATOM      2  C   UNL     1      10.051   1.788  22.637  0.00  0.00    +0.010 A 
ATOM      3  C   UNL     1      10.190   0.385  22.572  0.00  0.00    +0.029 A 
ATOM      4  C   UNL     1       9.743  -0.446  23.591  0.00  0.00    +0.076 A 
ATOM      5  N   UNL     1       9.869  -1.784  23.513  0.00  0.00    -0.215 NA
ATOM      6  C   UNL     1       9.412  -2.517  24.540  0.00  0.00    +0.216 A 
ATOM      7  N   UNL     1       8.805  -1.998  25.613  0.00  0.00    -0.222 NA
ATOM      8  C   UNL     1       8.694  -0.664  25.669  0.00  0.00    +0.124 A 
ATOM      9  N   UNL     1       9.617  -3.888  24.481  0.00  0.00    -0.312 N 
ATOM     10  H   UNL     1       9.760  -4.138  23.506  0.00  0.00    +0.149 HD
ATOM     11  C   UNL     1       9.169   0.183  24.688  0.00  0.00    +0.019 A 
ATOM     12  C   UNL     1       9.078   1.587  24.788  0.00  0.00    +0.020 A 
ENDROOT
BRANCH   1  15
ATOM     13  C   UNL     1      11.897   4.423  23.374  0.00  0.00    +0.044 C 
ATOM     14  C   UNL     1      10.472   4.834  23.650  0.00  0.00    -0.043 A 
ATOM     15  C   UNL     1       9.385   3.931  23.839  0.00  0.00    -0.014 A 
ATOM     16  C   UNL     1       8.121   4.507  24.132  0.00  0.00    +0.021 A 
ATOM     17  C   UNL     1       7.934   5.896  24.266  0.00  0.00    +0.037 A 
ATOM     18  C   UNL     1       9.006   6.751  24.031  0.00  0.00    +0.013 A 
ATOM     19  C   UNL     1      10.253   6.228  23.721  0.00  0.00    +0.005 A 
BRANCH  17  20
ATOM     20  C   UNL     1       6.635   6.511  24.643  0.00  0.00    +0.244 C 
ATOM     21  N   UNL     1       6.270   6.423  25.974  0.00  0.00    -0.308 N 
ATOM     22  H   UNL     1       6.921   6.040  26.646  0.00  0.00    +0.149 HD
ATOM     23  O   UNL     1       5.976   7.105  23.797  0.00  0.00    -0.270 OA
BRANCH  21  24
ATOM     24  C   UNL     1       5.104   7.088  26.476  0.00  0.00    +0.073 C 
ATOM     25  C   UNL     1       4.457   6.634  27.756  0.00  0.00    +0.024 C 
ATOM     26  C   UNL     1       3.759   6.420  26.446  0.00  0.00    +0.024 C 
ENDBRANCH  21  24
ENDBRANCH  17  20
ENDBRANCH   1  15
BRANCH   9  27
ATOM     27  C   UNL     1       8.613  -4.694  25.161  0.00  0.00    +0.119 C 
BRANCH  27  28
ATOM     28  C   UNL     1       7.743  -5.473  24.150  0.00  0.00    +0.103 C 
BRANCH  28  29
ATOM     29  N   UNL     1       6.299  -5.136  24.181  0.00  0.00    -0.297 NA
ATOM     30  C   UNL     1       5.544  -5.991  23.233  0.00  0.00    +0.112 C 
ATOM     31  C   UNL     1       5.779  -5.645  21.749  0.00  0.00    +0.175 C 
ATOM     32  O   UNL     1       5.528  -4.260  21.475  0.00  0.00    -0.377 OA
ATOM     33  C   UNL     1       6.300  -3.412  22.336  0.00  0.00    +0.175 C 
ATOM     34  C   UNL     1       6.019  -3.727  23.814  0.00  0.00    +0.112 C 
ENDBRANCH  28  29
ENDBRANCH  27  28
ENDBRANCH   9  27
TORSDOF 6
ENDMDL
MODEL 3
REMARK VINA RESULT:      -7.1      3.801     10.283
REMARK  Name = 
REMARK  7 active torsions:
REMARK  status: ('A' for Active; 'I' for Inactive)
REMARK    1  A    between atoms: C_1  and  C_2
REMARK    2  A    between atoms: C_5  and  C_27
REMARK    3  A    between atoms: C_7  and  C_8
REMARK    4  A    between atoms: N_16  and  C_17
REMARK    5  A    between atoms: C_17  and  C_18
REMARK    6  A    between atoms: C_18  and  N_19
REMARK    7  A    between atoms: N_29  and  C_30
REMARK                            x       y       z     vdW  Elec       q    Type
REMARK                         _______ _______ _______ _____ _____    ______ ____
ROOT
ATOM      1  C   UNL     1       7.084  -4.170  24.449  0.00  0.00    -0.017 A 
ATOM      2  C   UNL     1       8.448  -4.256  24.791  0.00  0.00    +0.010 A 
ATOM      3  C   UNL     1       9.377  -3.255  24.435  0.00  0.00    +0.029 A 
ATOM      4  C   UNL     1       8.994  -2.103  23.761  0.00  0.00    +0.076 A 
ATOM      5  N   UNL     1       9.886  -1.148  23.437  0.00  0.00    -0.215 NA
ATOM      6  C   UNL     1       9.435  -0.064  22.787  0.00  0.00    +0.216 A 
ATOM      7  N   UNL     1       8.150   0.138  22.479  0.00  0.00    -0.222 NA
ATOM      8  C   UNL     1       7.281  -0.828  22.809  0.00  0.00    +0.124 A 
ATOM      9  N   UNL     1      10.377   0.875  22.393  0.00  0.00    -0.312 N 
ATOM     10  H   UNL     1      11.200   0.753  22.977  0.00  0.00    +0.149 HD
ATOM     11  C   UNL     1       7.647  -2.000  23.439  0.00  0.00    +0.019 A 
ATOM     12  C   UNL     1       6.721  -3.021  23.740  0.00  0.00    +0.020 A 
ENDROOT
BRANCH   1  15
ATOM     13  C   UNL     1       5.283  -5.680  22.360  0.00  0.00    +0.044 C 
ATOM     14  C   UNL     1       5.303  -5.955  23.844  0.00  0.00    -0.043 A 
ATOM     15  C   UNL     1       6.109  -5.259  24.791  0.00  0.00    -0.014 A 
ATOM     16  C   UNL     1       5.958  -5.632  26.152  0.00  0.00    +0.021 A 
ATOM     17  C   UNL     1       5.042  -6.615  26.572  0.00  0.00    +0.037 A 
ATOM     18  C   UNL     1       4.304  -7.307  25.617  0.00  0.00    +0.013 A 
ATOM     19  C   UNL     1       4.438  -6.987  24.273  0.00  0.00    +0.005 A 
BRANCH  17  20
ATOM     20  C   UNL     1       4.820  -6.968  27.999  0.00  0.00    +0.244 C 
ATOM     21  N   UNL     1       3.523  -6.869  28.467  0.00  0.00    -0.308 N 
ATOM     22  H   UNL     1       2.774  -6.659  27.821  0.00  0.00    +0.149 HD
ATOM     23  O   UNL     1       5.757  -7.374  28.677  0.00  0.00    -0.270 OA
BRANCH  21  24
ATOM     24  C   UNL     1       3.169  -7.302  29.786  0.00  0.00    +0.073 C 
ATOM     25  C   UNL     1       1.972  -8.189  30.003  0.00  0.00    +0.024 C 
ATOM     26  C   UNL     1       1.948  -6.765  30.476  0.00  0.00    +0.024 C 
ENDBRANCH  21  24
ENDBRANCH  17  20
ENDBRANCH   1  15
BRANCH   9  27
ATOM     27  C   UNL     1       9.893   2.247  22.325  0.00  0.00    +0.119 C 
BRANCH  27  28
ATOM     28  C   UNL     1       9.702   2.842  23.738  0.00  0.00    +0.103 C 
BRANCH  28  29
ATOM     29  N   UNL     1       8.955   4.122  23.779  0.00  0.00    -0.297 NA
ATOM     30  C   UNL     1       8.631   4.492  25.179  0.00  0.00    +0.112 C 
ATOM     31  C   UNL     1       7.534   3.620  25.822  0.00  0.00    +0.175 C 
ATOM     32  O   UNL     1       6.340   3.589  25.028  0.00  0.00    -0.377 OA
ATOM     33  C   UNL     1       6.618   3.169  23.687  0.00  0.00    +0.175 C 
ATOM     34  C   UNL     1       7.674   4.076  23.034  0.00  0.00    +0.112 C 
ENDBRANCH  28  29
ENDBRANCH  27  28
ENDBRANCH   9  27
TORSDOF 6
ENDMDL
MODEL 4
REMARK VINA RESULT:      -7.0      2.921      9.820
REMARK  Name = 
REMARK  7 active torsions:
REMARK  status: ('A' for Active; 'I' for Inactive)
REMARK    1  A    between atoms: C_1  and  C_2
REMARK    2  A    between atoms: C_5  and  C_27
REMARK    3  A    between atoms: C_7  and  C_8
REMARK    4  A    between atoms: N_16  and  C_17
REMARK    5  A    between atoms: C_17  and  C_18
REMARK    6  A    between atoms: C_18  and  N_19
REMARK    7  A    between atoms: N_29  and  C_30
REMARK                            x       y       z     vdW  Elec       q    Type
REMARK                         _______ _______ _______ _____ _____    ______ ____
ROOT
ATOM      1  C   UNL     1       7.059  -3.214  23.899  0.00  0.00    -0.017 A 
ATOM      2  C   UNL     1       7.834  -3.308  22.727  0.00  0.00    +0.010 A 
ATOM      3  C   UNL     1       8.621  -2.235  22.257  0.00  0.00    +0.029 A 
ATOM      4  C   UNL     1       8.712  -1.034  22.947  0.00  0.00    +0.076 A 
ATOM      5  N   UNL     1       9.476  -0.020  22.497  0.00  0.00    -0.215 NA
ATOM      6  C   UNL     1       9.511   1.108  23.222  0.00  0.00    +0.216 A 
ATOM      7  N   UNL     1       8.863   1.268  24.382  0.00  0.00    -0.222 NA
ATOM      8  C   UNL     1       8.107   0.246  24.807  0.00  0.00    +0.124 A 
ATOM      9  N   UNL     1      10.241   2.169  22.708  0.00  0.00    -0.312 N 
ATOM     10  H   UNL     1      10.914   1.792  22.047  0.00  0.00    +0.149 HD
ATOM     11  C   UNL     1       7.968  -0.940  24.116  0.00  0.00    +0.019 A 
ATOM     12  C   UNL     1       7.134  -1.986  24.563  0.00  0.00    +0.020 A 
ENDROOT
BRANCH   1  15
ATOM     13  C   UNL     1       7.828  -5.234  26.184  0.00  0.00    +0.044 C 
ATOM     14  C   UNL     1       6.529  -5.250  25.417  0.00  0.00    -0.043 A 
ATOM     15  C   UNL     1       6.189  -4.343  24.370  0.00  0.00    -0.014 A 
ATOM     16  C   UNL     1       4.935  -4.544  23.736  0.00  0.00    +0.021 A 
ATOM     17  C   UNL     1       4.068  -5.597  24.085  0.00  0.00    +0.037 A 
ATOM     18  C   UNL     1       4.411  -6.436  25.141  0.00  0.00    +0.013 A 
ATOM     19  C   UNL     1       5.619  -6.260  25.801  0.00  0.00    +0.005 A 
BRANCH  17  20
ATOM     20  C   UNL     1       2.786  -5.864  23.384  0.00  0.00    +0.244 C 
ATOM     21  N   UNL     1       2.419  -7.190  23.247  0.00  0.00    -0.308 N 
ATOM     22  H   UNL     1       2.968  -7.909  23.697  0.00  0.00    +0.149 HD
ATOM     23  O   UNL     1       2.090  -4.925  23.012  0.00  0.00    -0.270 OA
BRANCH  21  24
ATOM     24  C   UNL     1       1.146  -7.562  22.703  0.00  0.00    +0.073 C 
ATOM     25  C   UNL     1       0.694  -8.996  22.729  0.00  0.00    +0.024 C 
ATOM     26  C   UNL     1       1.049  -8.344  21.425  0.00  0.00    +0.024 C 
ENDBRANCH  21  24
ENDBRANCH  17  20
ENDBRANCH   1  15
BRANCH   9  27
ATOM     27  C   UNL     1      10.819   3.063  23.702  0.00  0.00    +0.119 C 
BRANCH  27  28
ATOM     28  C   UNL     1      10.491   4.539  23.384  0.00  0.00    +0.103 C 
BRANCH  28  29
ATOM     29  N   UNL     1       9.833   5.281  24.486  0.00  0.00    -0.297 NA
ATOM     30  C   UNL     1       8.626   4.556  24.954  0.00  0.00    +0.112 C 
ATOM     31  C   UNL     1       7.441   4.605  23.968  0.00  0.00    +0.175 C 
ATOM     32  O   UNL     1       7.102   5.951  23.605  0.00  0.00    -0.377 OA
ATOM     33  C   UNL     1       8.239   6.651  23.086  0.00  0.00    +0.175 C 
ATOM     34  C   UNL     1       9.398   6.643  24.096  0.00  0.00    +0.112 C 
ENDBRANCH  28  29
ENDBRANCH  27  28
ENDBRANCH   9  27
TORSDOF 6
ENDMDL
MODEL 5
REMARK VINA RESULT:      -7.0      3.246      5.390
REMARK  Name = 
REMARK  7 active torsions:
REMARK  status: ('A' for Active; 'I' for Inactive)
REMARK    1  A    between atoms: C_1  and  C_2
REMARK    2  A    between atoms: C_5  and  C_27
REMARK    3  A    between atoms: C_7  and  C_8
REMARK    4  A    between atoms: N_16  and  C_17
REMARK    5  A    between atoms: C_17  and  C_18
REMARK    6  A    between atoms: C_18  and  N_19
REMARK    7  A    between atoms: N_29  and  C_30
REMARK                            x       y       z     vdW  Elec       q    Type
REMARK                         _______ _______ _______ _____ _____    ______ ____
ROOT
ATOM      1  C   UNL     1       7.676  -1.885  23.314  0.00  0.00    -0.017 A 
ATOM      2  C   UNL     1       7.915  -3.101  22.644  0.00  0.00    +0.010 A 
ATOM      3  C   UNL     1       7.450  -4.337  23.142  0.00  0.00    +0.029 A 
ATOM      4  C   UNL     1       6.693  -4.424  24.302  0.00  0.00    +0.076 A 
ATOM      5  N   UNL     1       6.243  -5.607  24.761  0.00  0.00    -0.215 NA
ATOM      6  C   UNL     1       5.517  -5.606  25.890  0.00  0.00    +0.216 A 
ATOM      7  N   UNL     1       5.183  -4.498  26.559  0.00  0.00    -0.222 NA
ATOM      8  C   UNL     1       5.644  -3.332  26.084  0.00  0.00    +0.124 A 
ATOM      9  N   UNL     1       5.126  -6.839  26.392  0.00  0.00    -0.312 N 
ATOM     10  H   UNL     1       5.152  -7.508  25.628  0.00  0.00    +0.149 HD
ATOM     11  C   UNL     1       6.434  -3.227  24.957  0.00  0.00    +0.019 A 
ATOM     12  C   UNL     1       6.943  -1.994  24.499  0.00  0.00    +0.020 A 
ENDROOT
BRANCH   1  15
ATOM     13  C   UNL     1      10.638  -1.408  22.370  0.00  0.00    +0.044 C 
ATOM     14  C   UNL     1       9.549  -0.364  22.361  0.00  0.00    -0.043 A 
ATOM     15  C   UNL     1       8.211  -0.578  22.804  0.00  0.00    -0.014 A 
ATOM     16  C   UNL     1       7.338   0.541  22.758  0.00  0.00    +0.021 A 
ATOM     17  C   UNL     1       7.759   1.814  22.329  0.00  0.00    +0.037 A 
ATOM     18  C   UNL     1       9.059   1.977  21.861  0.00  0.00    +0.013 A 
ATOM     19  C   UNL     1       9.937   0.902  21.870  0.00  0.00    +0.005 A 
BRANCH  17  20
ATOM     20  C   UNL     1       6.879   3.011  22.342  0.00  0.00    +0.244 C 
ATOM     21  N   UNL     1       7.504   4.241  22.248  0.00  0.00    -0.308 N 
ATOM     22  H   UNL     1       8.500   4.283  22.083  0.00  0.00    +0.149 HD
ATOM     23  O   UNL     1       5.661   2.870  22.379  0.00  0.00    -0.270 OA
BRANCH  21  24
ATOM     24  C   UNL     1       6.752   5.455  22.124  0.00  0.00    +0.073 C 
ATOM     25  C   UNL     1       7.430   6.791  22.262  0.00  0.00    +0.024 C 
ATOM     26  C   UNL     1       6.475   6.321  23.319  0.00  0.00    +0.024 C 
ENDBRANCH  21  24
ENDBRANCH  17  20
ENDBRANCH   1  15
BRANCH   9  27
ATOM     27  C   UNL     1       3.874  -6.835  27.137  0.00  0.00    +0.119 C 
BRANCH  27  28
ATOM     28  C   UNL     1       2.662  -7.003  26.193  0.00  0.00    +0.103 C 
BRANCH  28  29
ATOM     29  N   UNL     1       2.865  -7.968  25.086  0.00  0.00    -0.297 NA
ATOM     30  C   UNL     1       2.796  -7.278  23.774  0.00  0.00    +0.112 C 
ATOM     31  C   UNL     1       1.375  -6.835  23.371  0.00  0.00    +0.175 C 
ATOM     32  O   UNL     1       0.443  -7.924  23.408  0.00  0.00    -0.377 OA
ATOM     33  C   UNL     1       0.444  -8.564  24.690  0.00  0.00    +0.175 C 
ATOM     34  C   UNL     1       1.854  -9.051  25.062  0.00  0.00    +0.112 C 
ENDBRANCH  28  29
ENDBRANCH  27  28
ENDBRANCH   9  27
TORSDOF 6
ENDMDL
MODEL 6
REMARK VINA RESULT:      -6.7      3.177      9.874
REMARK  Name = 
REMARK  7 active torsions:
REMARK  status: ('A' for Active; 'I' for Inactive)
REMARK    1  A    between atoms: C_1  and  C_2
REMARK    2  A    between atoms: C_5  and  C_27
REMARK    3  A    between atoms: C_7  and  C_8
REMARK    4  A    between atoms: N_16  and  C_17
REMARK    5  A    between atoms: C_17  and  C_18
REMARK    6  A    between atoms: C_18  and  N_19
REMARK    7  A    between atoms: N_29  and  C_30
REMARK                            x       y       z     vdW  Elec       q    Type
REMARK                         _______ _______ _______ _____ _____    ______ ____
ROOT
ATOM      1  C   UNL     1       6.937  -2.012  23.813  0.00  0.00    -0.017 A 
ATOM      2  C   UNL     1       7.938  -1.880  22.831  0.00  0.00    +0.010 A 
ATOM      3  C   UNL     1       8.254  -0.637  22.241  0.00  0.00    +0.029 A 
ATOM      4  C   UNL     1       7.624   0.539  22.624  0.00  0.00    +0.076 A 
ATOM      5  N   UNL     1       7.942   1.722  22.064  0.00  0.00    -0.215 NA
ATOM      6  C   UNL     1       7.287   2.813  22.491  0.00  0.00    +0.216 A 
ATOM      7  N   UNL     1       6.369   2.798  23.463  0.00  0.00    -0.222 NA
ATOM      8  C   UNL     1       6.068   1.609  24.003  0.00  0.00    +0.124 A 
ATOM      9  N   UNL     1       7.570   4.012  21.852  0.00  0.00    -0.312 N 
ATOM     10  H   UNL     1       8.482   3.922  21.414  0.00  0.00    +0.149 HD
ATOM     11  C   UNL     1       6.650   0.422  23.608  0.00  0.00    +0.019 A 
ATOM     12  C   UNL     1       6.287  -0.824  24.162  0.00  0.00    +0.020 A 
ENDROOT
BRANCH   1  15
ATOM     13  C   UNL     1       8.500  -3.416  26.152  0.00  0.00    +0.044 C 
ATOM     14  C   UNL     1       7.272  -3.973  25.476  0.00  0.00    -0.043 A 
ATOM     15  C   UNL     1       6.574  -3.343  24.405  0.00  0.00    -0.014 A 
ATOM     16  C   UNL     1       5.463  -4.044  23.868  0.00  0.00    +0.021 A 
ATOM     17  C   UNL     1       5.070  -5.313  24.334  0.00  0.00    +0.037 A 
ATOM     18  C   UNL     1       5.745  -5.880  25.410  0.00  0.00    +0.013 A 
ATOM     19  C   UNL     1       6.825  -5.216  25.977  0.00  0.00    +0.005 A 
BRANCH  17  20
ATOM     20  C   UNL     1       3.954  -6.092  23.736  0.00  0.00    +0.244 C 
ATOM     21  N   UNL     1       3.457  -7.140  24.489  0.00  0.00    -0.308 N 
ATOM     22  H   UNL     1       3.792  -7.280  25.433  0.00  0.00    +0.149 HD
ATOM     23  O   UNL     1       3.490  -5.755  22.653  0.00  0.00    -0.270 OA
BRANCH  21  24
ATOM     24  C   UNL     1       2.302  -7.879  24.073  0.00  0.00    +0.073 C 
ATOM     25  C   UNL     1       1.000  -7.743  24.814  0.00  0.00    +0.024 C 
ATOM     26  C   UNL     1       1.778  -9.024  24.891  0.00  0.00    +0.024 C 
ENDBRANCH  21  24
ENDBRANCH  17  20
ENDBRANCH   1  15
BRANCH   9  27
ATOM     27  C   UNL     1       7.420   5.203  22.676  0.00  0.00    +0.119 C 
BRANCH  27  28
ATOM     28  C   UNL     1       8.784   5.884  22.926  0.00  0.00    +0.103 C 
BRANCH  28  29
ATOM     29  N   UNL     1       9.450   5.498  24.194  0.00  0.00    -0.297 NA
ATOM     30  C   UNL     1      10.736   6.220  24.348  0.00  0.00    +0.112 C 
ATOM     31  C   UNL     1      11.850   5.730  23.401  0.00  0.00    +0.175 C 
ATOM     32  O   UNL     1      12.060   4.315  23.507  0.00  0.00    -0.377 OA
ATOM     33  C   UNL     1      10.841   3.592  23.295  0.00  0.00    +0.175 C 
ATOM     34  C   UNL     1       9.751   4.049  24.278  0.00  0.00    +0.112 C 
ENDBRANCH  28  29
ENDBRANCH  27  28
ENDBRANCH   9  27
TORSDOF 6
ENDMDL
MODEL 7
REMARK VINA RESULT:      -6.7      3.805     10.460
REMARK  Name = 
REMARK  7 active torsions:
REMARK  status: ('A' for Active; 'I' for Inactive)
REMARK    1  A    between atoms: C_1  and  C_2
REMARK    2  A    between atoms: C_5  and  C_27
REMARK    3  A    between atoms: C_7  and  C_8
REMARK    4  A    between atoms: N_16  and  C_17
REMARK    5  A    between atoms: C_17  and  C_18
REMARK    6  A    between atoms: C_18  and  N_19
REMARK    7  A    between atoms: N_29  and  C_30
REMARK                            x       y       z     vdW  Elec       q    Type
REMARK                         _______ _______ _______ _____ _____    ______ ____
ROOT
ATOM      1  C   UNL     1       6.992  -3.941  24.440  0.00  0.00    -0.017 A 
ATOM      2  C   UNL     1       8.386  -4.027  24.619  0.00  0.00    +0.010 A 
ATOM      3  C   UNL     1       9.261  -2.993  24.220  0.00  0.00    +0.029 A 
ATOM      4  C   UNL     1       8.795  -1.811  23.662  0.00  0.00    +0.076 A 
ATOM      5  N   UNL     1       9.637  -0.826  23.295  0.00  0.00    -0.215 NA
ATOM      6  C   UNL     1       9.106   0.286  22.765  0.00  0.00    +0.216 A 
ATOM      7  N   UNL     1       7.793   0.487  22.616  0.00  0.00    -0.222 NA
ATOM      8  C   UNL     1       6.975  -0.509  22.985  0.00  0.00    +0.124 A 
ATOM      9  N   UNL     1       9.990   1.260  22.322  0.00  0.00    -0.312 N 
ATOM     10  H   UNL     1      10.875   1.118  22.801  0.00  0.00    +0.149 HD
ATOM     11  C   UNL     1       7.419  -1.709  23.501  0.00  0.00    +0.019 A 
ATOM     12  C   UNL     1       6.541  -2.759  23.844  0.00  0.00    +0.020 A 
ENDROOT
BRANCH   1  15
ATOM     13  C   UNL     1       5.488  -5.804  22.401  0.00  0.00    +0.044 C 
ATOM     14  C   UNL     1       5.400  -5.917  23.903  0.00  0.00    -0.043 A 
ATOM     15  C   UNL     1       6.070  -5.061  24.826  0.00  0.00    -0.014 A 
ATOM     16  C   UNL     1       5.830  -5.298  26.204  0.00  0.00    +0.021 A 
ATOM     17  C   UNL     1       4.953  -6.301  26.660  0.00  0.00    +0.037 A 
ATOM     18  C   UNL     1       4.351  -7.147  25.735  0.00  0.00    +0.013 A 
ATOM     19  C   UNL     1       4.577  -6.962  24.378  0.00  0.00    +0.005 A 
BRANCH  17  20
ATOM     20  C   UNL     1       4.636  -6.515  28.096  0.00  0.00    +0.244 C 
ATOM     21  N   UNL     1       3.435  -7.143  28.378  0.00  0.00    -0.308 N 
ATOM     22  H   UNL     1       2.875  -7.510  27.622  0.00  0.00    +0.149 HD
ATOM     23  O   UNL     1       5.448  -6.188  28.954  0.00  0.00    -0.270 OA
BRANCH  21  24
ATOM     24  C   UNL     1       3.083  -7.515  29.716  0.00  0.00    +0.073 C 
ATOM     25  C   UNL     1       1.747  -8.143  30.007  0.00  0.00    +0.024 C 
ATOM     26  C   UNL     1       2.042  -6.752  30.483  0.00  0.00    +0.024 C 
ENDBRANCH  21  24
ENDBRANCH  17  20
ENDBRANCH   1  15
BRANCH   9  27
ATOM     27  C   UNL     1       9.490   2.626  22.389  0.00  0.00    +0.119 C 
BRANCH  27  28
ATOM     28  C   UNL     1       9.531   3.165  23.837  0.00  0.00    +0.103 C 
BRANCH  28  29
ATOM     29  N   UNL     1       8.318   3.906  24.260  0.00  0.00    -0.297 NA
ATOM     30  C   UNL     1       7.863   4.819  23.182  0.00  0.00    +0.112 C 
ATOM     31  C   UNL     1       8.767   6.052  22.980  0.00  0.00    +0.175 C 
ATOM     32  O   UNL     1       8.961   6.781  24.200  0.00  0.00    -0.377 OA
ATOM     33  C   UNL     1       9.465   5.932  25.238  0.00  0.00    +0.175 C 
ATOM     34  C   UNL     1       8.530   4.733  25.471  0.00  0.00    +0.112 C 
ENDBRANCH  28  29
ENDBRANCH  27  28
ENDBRANCH   9  27
TORSDOF 6
ENDMDL
MODEL 8
REMARK VINA RESULT:      -6.5      3.826      5.754
REMARK  Name = 
REMARK  7 active torsions:
REMARK  status: ('A' for Active; 'I' for Inactive)
REMARK    1  A    between atoms: C_1  and  C_2
REMARK    2  A    between atoms: C_5  and  C_27
REMARK    3  A    between atoms: C_7  and  C_8
REMARK    4  A    between atoms: N_16  and  C_17
REMARK    5  A    between atoms: C_17  and  C_18
REMARK    6  A    between atoms: C_18  and  N_19
REMARK    7  A    between atoms: N_29  and  C_30
REMARK                            x       y       z     vdW  Elec       q    Type
REMARK                         _______ _______ _______ _____ _____    ______ ____
ROOT
ATOM      1  C   UNL     1       7.965  -0.952  24.608  0.00  0.00    -0.017 A 
ATOM      2  C   UNL     1       8.674  -1.766  25.513  0.00  0.00    +0.010 A 
ATOM      3  C   UNL     1       8.025  -2.680  26.371  0.00  0.00    +0.029 A 
ATOM      4  C   UNL     1       6.649  -2.860  26.346  0.00  0.00    +0.076 A 
ATOM      5  N   UNL     1       6.041  -3.744  27.160  0.00  0.00    -0.215 NA
ATOM      6  C   UNL     1       4.707  -3.860  27.074  0.00  0.00    +0.216 A 
ATOM      7  N   UNL     1       3.955  -3.179  26.202  0.00  0.00    -0.222 NA
ATOM      8  C   UNL     1       4.583  -2.304  25.404  0.00  0.00    +0.124 A 
ATOM      9  N   UNL     1       4.086  -4.717  27.971  0.00  0.00    -0.312 N 
ATOM     10  H   UNL     1       4.783  -5.378  28.302  0.00  0.00    +0.149 HD
ATOM     11  C   UNL     1       5.944  -2.077  25.442  0.00  0.00    +0.019 A 
ATOM     12  C   UNL     1       6.577  -1.121  24.621  0.00  0.00    +0.020 A 
ENDROOT
BRANCH   1  15
ATOM     13  C   UNL     1       9.410  -1.642  21.902  0.00  0.00    +0.044 C 
ATOM     14  C   UNL     1       9.298  -0.259  22.494  0.00  0.00    -0.043 A 
ATOM     15  C   UNL     1       8.656   0.049  23.729  0.00  0.00    -0.014 A 
ATOM     16  C   UNL     1       8.690   1.407  24.143  0.00  0.00    +0.021 A 
ATOM     17  C   UNL     1       9.345   2.409  23.403  0.00  0.00    +0.037 A 
ATOM     18  C   UNL     1       9.923   2.082  22.180  0.00  0.00    +0.013 A 
ATOM     19  C   UNL     1       9.892   0.770  21.730  0.00  0.00    +0.005 A 
BRANCH  17  20
ATOM     20  C   UNL     1       9.452   3.820  23.857  0.00  0.00    +0.244 C 
ATOM     21  N   UNL     1      10.615   4.491  23.527  0.00  0.00    -0.308 N 
ATOM     22  H   UNL     1      11.294   4.047  22.924  0.00  0.00    +0.149 HD
ATOM     23  O   UNL     1       8.510   4.342  24.444  0.00  0.00    -0.270 OA
BRANCH  21  24
ATOM     24  C   UNL     1      10.775   5.889  23.800  0.00  0.00    +0.073 C 
ATOM     25  C   UNL     1      12.056   6.409  24.395  0.00  0.00    +0.024 C 
ATOM     26  C   UNL     1      10.797   6.404  25.210  0.00  0.00    +0.024 C 
ENDBRANCH  21  24
ENDBRANCH  17  20
ENDBRANCH   1  15
BRANCH   9  27
ATOM     27  C   UNL     1       2.860  -5.337  27.488  0.00  0.00    +0.119 C 
BRANCH  27  28
ATOM     28  C   UNL     1       3.153  -6.344  26.354  0.00  0.00    +0.103 C 
BRANCH  28  29
ATOM     29  N   UNL     1       1.964  -6.772  25.578  0.00  0.00    -0.297 NA
ATOM     30  C   UNL     1       2.376  -7.506  24.356  0.00  0.00    +0.112 C 
ATOM     31  C   UNL     1       2.994  -6.612  23.263  0.00  0.00    +0.175 C 
ATOM     32  O   UNL     1       2.135  -5.516  22.918  0.00  0.00    -0.377 OA
ATOM     33  C   UNL     1       1.778  -4.751  24.075  0.00  0.00    +0.175 C 
ATOM     34  C   UNL     1       1.114  -5.640  25.139  0.00  0.00    +0.112 C 
ENDBRANCH  28  29
ENDBRANCH  27  28
ENDBRANCH   9  27
TORSDOF 6
ENDMDL
MODEL 9
REMARK VINA RESULT:      -6.4      2.872      4.792
REMARK  Name = 
REMARK  7 active torsions:
REMARK  status: ('A' for Active; 'I' for Inactive)
REMARK    1  A    between atoms: C_1  and  C_2
REMARK    2  A    between atoms: C_5  and  C_27
REMARK    3  A    between atoms: C_7  and  C_8
REMARK    4  A    between atoms: N_16  and  C_17
REMARK    5  A    between atoms: C_17  and  C_18
REMARK    6  A    between atoms: C_18  and  N_19
REMARK    7  A    between atoms: N_29  and  C_30
REMARK                            x       y       z     vdW  Elec       q    Type
REMARK                         _______ _______ _______ _____ _____    ______ ____
ROOT
ATOM      1  C   UNL     1       7.296   1.236  23.456  0.00  0.00    -0.017 A 
ATOM      2  C   UNL     1       7.920   0.441  22.475  0.00  0.00    +0.010 A 
ATOM      3  C   UNL     1       8.008  -0.963  22.591  0.00  0.00    +0.029 A 
ATOM      4  C   UNL     1       7.447  -1.649  23.659  0.00  0.00    +0.076 A 
ATOM      5  N   UNL     1       7.526  -2.991  23.753  0.00  0.00    -0.215 NA
ATOM      6  C   UNL     1       6.957  -3.578  24.817  0.00  0.00    +0.216 A 
ATOM      7  N   UNL     1       6.286  -2.914  25.764  0.00  0.00    -0.222 NA
ATOM      8  C   UNL     1       6.224  -1.580  25.650  0.00  0.00    +0.124 A 
ATOM      9  N   UNL     1       7.112  -4.951  24.940  0.00  0.00    -0.312 N 
ATOM     10  H   UNL     1       7.324  -5.324  24.018  0.00  0.00    +0.149 HD
ATOM     11  C   UNL     1       6.811  -0.874  24.620  0.00  0.00    +0.019 A 
ATOM     12  C   UNL     1       6.768   0.533  24.543  0.00  0.00    +0.020 A 
ENDROOT
BRANCH   1  15
ATOM     13  C   UNL     1       4.718   2.892  22.747  0.00  0.00    +0.044 C 
ATOM     14  C   UNL     1       6.073   3.486  23.045  0.00  0.00    -0.043 A 
ATOM     15  C   UNL     1       7.244   2.733  23.351  0.00  0.00    -0.014 A 
ATOM     16  C   UNL     1       8.439   3.470  23.561  0.00  0.00    +0.021 A 
ATOM     17  C   UNL     1       8.495   4.872  23.447  0.00  0.00    +0.037 A 
ATOM     18  C   UNL     1       7.324   5.580  23.192  0.00  0.00    +0.013 A 
ATOM     19  C   UNL     1       6.131   4.897  23.001  0.00  0.00    +0.005 A 
BRANCH  17  20
ATOM     20  C   UNL     1       9.750   5.653  23.594  0.00  0.00    +0.244 C 
ATOM     21  N   UNL     1      10.928   4.995  23.290  0.00  0.00    -0.308 N 
ATOM     22  H   UNL     1      10.893   4.064  22.898  0.00  0.00    +0.149 HD
ATOM     23  O   UNL     1       9.697   6.834  23.917  0.00  0.00    -0.270 OA
BRANCH  21  24
ATOM     24  C   UNL     1      12.186   5.682  23.272  0.00  0.00    +0.073 C 
ATOM     25  C   UNL     1      13.021   5.714  22.021  0.00  0.00    +0.024 C 
ATOM     26  C   UNL     1      13.481   4.925  23.211  0.00  0.00    +0.024 C 
ENDBRANCH  21  24
ENDBRANCH  17  20
ENDBRANCH   1  15
BRANCH   9  27
ATOM     27  C   UNL     1       6.025  -5.638  25.623  0.00  0.00    +0.119 C 
BRANCH  27  28
ATOM     28  C   UNL     1       4.926  -6.072  24.628  0.00  0.00    +0.103 C 
BRANCH  28  29
ATOM     29  N   UNL     1       3.551  -5.658  25.000  0.00  0.00    -0.297 NA
ATOM     30  C   UNL     1       2.845  -6.761  25.696  0.00  0.00    +0.112 C 
ATOM     31  C   UNL     1       2.440  -7.929  24.774  0.00  0.00    +0.175 C 
ATOM     32  O   UNL     1       1.673  -7.482  23.647  0.00  0.00    -0.377 OA
ATOM     33  C   UNL     1       2.366  -6.461  22.919  0.00  0.00    +0.175 C 
ATOM     34  C   UNL     1       2.720  -5.276  23.833  0.00  0.00    +0.112 C 
ENDBRANCH  28  29
ENDBRANCH  27  28
ENDBRANCH   9  27
TORSDOF 6
ENDMDL
