MODEL 1
REMARK VINA RESULT:      -6.9      0.000      0.000
REMARK  Name = 
REMARK  5 active torsions:
REMARK  status: ('A' for Active; 'I' for Inactive)
REMARK    1  A    between atoms: C_1  and  C_2
REMARK    2  A    between atoms: C_4  and  C_5
REMARK    3  A    between atoms: C_6  and  C_8
REMARK    4  A    between atoms: N_11  and  C_12
REMARK    5  A    between atoms: C_16  and  O_17
REMARK                            x       y       z     vdW  Elec       q    Type
REMARK                         _______ _______ _______ _____ _____    ______ ____
ROOT
ATOM      1  C   UNL     1       8.099  -2.875  24.133  0.00  0.00    +0.084 A 
ATOM      2  C   UNL     1       8.019  -2.905  22.756  0.00  0.00    +0.049 A 
ATOM      3  C   UNL     1       8.446  -1.781  22.103  0.00  0.00    +0.116 A 
ATOM      4  N   UNL     1       8.911  -0.698  22.737  0.00  0.00    -0.223 NA
ATOM      5  C   UNL     1       8.960  -0.732  24.076  0.00  0.00    +0.220 A 
ATOM      6  N   UNL     1       9.431   0.360  24.801  0.00  0.00    -0.284 N 
ATOM      7  H   UNL     1       9.458   0.131  25.782  0.00  0.00    +0.155 HD
ATOM      8  N   UNL     1       8.584  -1.801  24.795  0.00  0.00    -0.214 NA
ENDROOT
BRANCH   1  12
ATOM      9  C   UNL     1       5.223  -6.307  26.985  0.00  0.00    +0.073 C 
ATOM     10  C   UNL     1       6.323  -5.566  26.312  0.00  0.00    +0.076 A 
ATOM     11  S   UNL     1       5.960  -4.246  25.292  0.00  0.00    -0.071 S 
ATOM     12  C   UNL     1       7.643  -3.984  24.995  0.00  0.00    +0.060 A 
ATOM     13  C   UNL     1       8.364  -4.950  25.696  0.00  0.00    +0.055 A 
ATOM     14  C   UNL     1       9.842  -5.122  25.747  0.00  0.00    +0.067 C 
ATOM     15  N   UNL     1       7.599  -5.842  26.441  0.00  0.00    -0.249 NA
ENDBRANCH   1  12
BRANCH   6  16
ATOM     16  C   UNL     1       9.507   1.724  24.478  0.00  0.00    +0.037 A 
ATOM     17  C   UNL     1      10.571   2.293  23.770  0.00  0.00    +0.068 A 
ATOM     18  C   UNL     1      10.612   3.662  23.512  0.00  0.00    +0.119 A 
ATOM     19  C   UNL     1       9.607   4.504  23.966  0.00  0.00    +0.045 A 
ATOM     20  C   UNL     1       8.549   3.964  24.692  0.00  0.00    +0.005 A 
ATOM     21  C   UNL     1       8.505   2.589  24.950  0.00  0.00    +0.023 A 
BRANCH  18  22
ATOM     22  O   UNL     1      11.672   4.139  22.794  0.00  0.00    -0.507 OA
ATOM     23  H   UNL     1      11.443   5.017  22.452  0.00  0.00    +0.292 HD
ENDBRANCH  18  22
ENDBRANCH   6  16
TORSDOF 3
ENDMDL
MODEL 2
REMARK VINA RESULT:      -6.6      3.469      7.821
REMARK  Name = 
REMARK  5 active torsions:
REMARK  status: ('A' for Active; 'I' for Inactive)
REMARK    1  A    between atoms: C_1  and  C_2
REMARK    2  A    between atoms: C_4  and  C_5
REMARK    3  A    between atoms: C_6  and  C_8
REMARK    4  A    between atoms: N_11  and  C_12
REMARK    5  A    between atoms: C_16  and  O_17
REMARK                            x       y       z     vdW  Elec       q    Type
REMARK                         _______ _______ _______ _____ _____    ______ ____
ROOT
ATOM      1  C   UNL     1       8.846   1.341  22.701  0.00  0.00    +0.084 A 
ATOM      2  C   UNL     1       9.401   0.791  21.563  0.00  0.00    +0.049 A 
ATOM      3  C   UNL     1       9.362  -0.574  21.472  0.00  0.00    +0.116 A 
ATOM      4  N   UNL     1       8.831  -1.356  22.420  0.00  0.00    -0.223 NA
ATOM      5  C   UNL     1       8.312  -0.759  23.502  0.00  0.00    +0.220 A 
ATOM      6  N   UNL     1       7.744  -1.512  24.528  0.00  0.00    -0.284 N 
ATOM      7  H   UNL     1       7.348  -0.896  25.222  0.00  0.00    +0.155 HD
ATOM      8  N   UNL     1       8.285   0.573  23.663  0.00  0.00    -0.214 NA
ENDROOT
BRANCH   1  12
ATOM      9  C   UNL     1      10.081   6.281  24.201  0.00  0.00    +0.073 C 
ATOM     10  C   UNL     1       9.403   5.067  23.671  0.00  0.00    +0.076 A 
ATOM     11  S   UNL     1      10.229   3.574  23.647  0.00  0.00    -0.071 S 
ATOM     12  C   UNL     1       8.840   2.790  22.980  0.00  0.00    +0.060 A 
ATOM     13  C   UNL     1       7.841   3.748  22.810  0.00  0.00    +0.055 A 
ATOM     14  C   UNL     1       6.468   3.544  22.270  0.00  0.00    +0.067 C 
ATOM     15  N   UNL     1       8.176   5.038  23.209  0.00  0.00    -0.249 NA
ENDBRANCH   1  12
BRANCH   6  16
ATOM     16  C   UNL     1       7.943  -2.845  24.920  0.00  0.00    +0.037 A 
ATOM     17  C   UNL     1       9.186  -3.486  24.877  0.00  0.00    +0.068 A 
ATOM     18  C   UNL     1       9.317  -4.825  25.242  0.00  0.00    +0.119 A 
ATOM     19  C   UNL     1       8.215  -5.567  25.642  0.00  0.00    +0.045 A 
ATOM     20  C   UNL     1       6.964  -4.956  25.671  0.00  0.00    +0.005 A 
ATOM     21  C   UNL     1       6.831  -3.611  25.307  0.00  0.00    +0.023 A 
BRANCH  18  22
ATOM     22  O   UNL     1      10.567  -5.373  25.196  0.00  0.00    -0.507 OA
ATOM     23  H   UNL     1      10.839  -5.598  26.099  0.00  0.00    +0.292 HD
ENDBRANCH  18  22
ENDBRANCH   6  16
TORSDOF 3
ENDMDL
MODEL 3
REMARK VINA RESULT:      -6.5      2.026      3.071
REMARK  Name = 
REMARK  5 active torsions:
REMARK  status: ('A' for Active; 'I' for Inactive)
REMARK    1  A    between atoms: C_1  and  C_2
REMARK    2  A    between atoms: C_4  and  C_5
REMARK    3  A    between atoms: C_6  and  C_8
REMARK    4  A    between atoms: N_11  and  C_12
REMARK    5  A    between atoms: C_16  and  O_17
REMARK                            x       y       z     vdW  Elec       q    Type
REMARK                         _______ _______ _______ _____ _____    ______ ____
ROOT
ATOM      1  C   UNL     1       7.375  -4.752  25.266  0.00  0.00    +0.084 A 
ATOM      2  C   UNL     1       8.643  -5.281  25.144  0.00  0.00    +0.049 A 
ATOM      3  C   UNL     1       9.648  -4.387  24.891  0.00  0.00    +0.116 A 
ATOM      4  N   UNL     1       9.440  -3.071  24.757  0.00  0.00    -0.223 NA
ATOM      5  C   UNL     1       8.184  -2.622  24.884  0.00  0.00    +0.220 A 
ATOM      6  N   UNL     1       7.895  -1.265  24.756  0.00  0.00    -0.284 N 
ATOM      7  H   UNL     1       6.918  -1.106  24.948  0.00  0.00    +0.155 HD
ATOM      8  N   UNL     1       7.143  -3.424  25.156  0.00  0.00    -0.214 NA
ENDROOT
BRANCH   1  12
ATOM      9  C   UNL     1       2.913  -7.577  24.732  0.00  0.00    +0.073 C 
ATOM     10  C   UNL     1       4.115  -6.876  25.257  0.00  0.00    +0.076 A 
ATOM     11  S   UNL     1       5.185  -6.100  24.178  0.00  0.00    -0.071 S 
ATOM     12  C   UNL     1       6.172  -5.576  25.497  0.00  0.00    +0.060 A 
ATOM     13  C   UNL     1       5.608  -6.056  26.678  0.00  0.00    +0.055 A 
ATOM     14  C   UNL     1       6.103  -5.858  28.069  0.00  0.00    +0.067 C 
ATOM     15  N   UNL     1       4.438  -6.793  26.526  0.00  0.00    -0.249 NA
ENDBRANCH   1  12
BRANCH   6  16
ATOM     16  C   UNL     1       8.576  -0.230  24.095  0.00  0.00    +0.037 A 
ATOM     17  C   UNL     1       8.361   0.103  22.753  0.00  0.00    +0.068 A 
ATOM     18  C   UNL     1       9.096   1.116  22.139  0.00  0.00    +0.119 A 
ATOM     19  C   UNL     1      10.073   1.812  22.835  0.00  0.00    +0.045 A 
ATOM     20  C   UNL     1      10.320   1.482  24.165  0.00  0.00    +0.005 A 
ATOM     21  C   UNL     1       9.581   0.467  24.785  0.00  0.00    +0.023 A 
BRANCH  18  22
ATOM     22  O   UNL     1       8.812   1.399  20.833  0.00  0.00    -0.507 OA
ATOM     23  H   UNL     1       7.852   1.498  20.740  0.00  0.00    +0.292 HD
ENDBRANCH  18  22
ENDBRANCH   6  16
TORSDOF 3
ENDMDL
MODEL 4
REMARK VINA RESULT:      -6.5      2.176      3.012
REMARK  Name = 
REMARK  5 active torsions:
REMARK  status: ('A' for Active; 'I' for Inactive)
REMARK    1  A    between atoms: C_1  and  C_2
REMARK    2  A    between atoms: C_4  and  C_5
REMARK    3  A    between atoms: C_6  and  C_8
REMARK    4  A    between atoms: N_11  and  C_12
REMARK    5  A    between atoms: C_16  and  O_17
REMARK                            x       y       z     vdW  Elec       q    Type
REMARK                         _______ _______ _______ _____ _____    ______ ____
ROOT
ATOM      1  C   UNL     1       8.504  -1.114  23.155  0.00  0.00    +0.084 A 
ATOM      2  C   UNL     1       9.152  -1.136  21.937  0.00  0.00    +0.049 A 
ATOM      3  C   UNL     1       9.602   0.070  21.471  0.00  0.00    +0.116 A 
ATOM      4  N   UNL     1       9.429   1.220  22.133  0.00  0.00    -0.223 NA
ATOM      5  C   UNL     1       8.789   1.174  23.309  0.00  0.00    +0.220 A 
ATOM      6  N   UNL     1       8.573   2.333  24.050  0.00  0.00    -0.284 N 
ATOM      7  H   UNL     1       8.140   2.099  24.931  0.00  0.00    +0.155 HD
ATOM      8  N   UNL     1       8.337   0.033  23.852  0.00  0.00    -0.214 NA
ENDROOT
BRANCH   1  12
ATOM      9  C   UNL     1       7.494  -5.304  26.253  0.00  0.00    +0.073 C 
ATOM     10  C   UNL     1       7.452  -4.247  25.207  0.00  0.00    +0.076 A 
ATOM     11  S   UNL     1       8.626  -3.009  25.202  0.00  0.00    -0.071 S 
ATOM     12  C   UNL     1       7.921  -2.314  23.784  0.00  0.00    +0.060 A 
ATOM     13  C   UNL     1       6.815  -3.086  23.428  0.00  0.00    +0.055 A 
ATOM     14  C   UNL     1       5.895  -2.878  22.275  0.00  0.00    +0.067 C 
ATOM     15  N   UNL     1       6.562  -4.182  24.246  0.00  0.00    -0.249 NA
ENDBRANCH   1  12
BRANCH   6  16
ATOM     16  C   UNL     1       8.510   3.682  23.666  0.00  0.00    +0.037 A 
ATOM     17  C   UNL     1       7.531   4.195  22.806  0.00  0.00    +0.068 A 
ATOM     18  C   UNL     1       7.540   5.537  22.428  0.00  0.00    +0.119 A 
ATOM     19  C   UNL     1       8.530   6.398  22.877  0.00  0.00    +0.045 A 
ATOM     20  C   UNL     1       9.527   5.905  23.715  0.00  0.00    +0.005 A 
ATOM     21  C   UNL     1       9.517   4.559  24.099  0.00  0.00    +0.023 A 
BRANCH  18  22
ATOM     22  O   UNL     1       6.539   5.968  21.605  0.00  0.00    -0.507 OA
ATOM     23  H   UNL     1       6.894   6.655  21.020  0.00  0.00    +0.292 HD
ENDBRANCH  18  22
ENDBRANCH   6  16
TORSDOF 3
ENDMDL
MODEL 5
REMARK VINA RESULT:      -6.4      4.002      8.113
REMARK  Name = 
REMARK  5 active torsions:
REMARK  status: ('A' for Active; 'I' for Inactive)
REMARK    1  A    between atoms: C_1  and  C_2
REMARK    2  A    between atoms: C_4  and  C_5
REMARK    3  A    between atoms: C_6  and  C_8
REMARK    4  A    between atoms: N_11  and  C_12
REMARK    5  A    between atoms: C_16  and  O_17
REMARK                            x       y       z     vdW  Elec       q    Type
REMARK                         _______ _______ _______ _____ _____    ______ ____
ROOT
ATOM      1  C   UNL     1       8.742   1.052  22.539  0.00  0.00    +0.084 A 
ATOM      2  C   UNL     1       9.764   0.383  21.896  0.00  0.00    +0.049 A 
ATOM      3  C   UNL     1       9.575  -0.958  21.696  0.00  0.00    +0.116 A 
ATOM      4  N   UNL     1       8.476  -1.610  22.097  0.00  0.00    -0.223 NA
ATOM      5  C   UNL     1       7.523  -0.902  22.719  0.00  0.00    +0.220 A 
ATOM      6  N   UNL     1       6.355  -1.517  23.164  0.00  0.00    -0.284 N 
ATOM      7  H   UNL     1       5.729  -0.823  23.544  0.00  0.00    +0.155 HD
ATOM      8  N   UNL     1       7.615   0.419  22.935  0.00  0.00    -0.214 NA
ENDROOT
BRANCH   1  12
ATOM      9  C   UNL     1      10.169   5.866  24.260  0.00  0.00    +0.073 C 
ATOM     10  C   UNL     1       9.451   4.708  23.665  0.00  0.00    +0.076 A 
ATOM     11  S   UNL     1      10.202   3.177  23.611  0.00  0.00    -0.071 S 
ATOM     12  C   UNL     1       8.799   2.489  22.871  0.00  0.00    +0.060 A 
ATOM     13  C   UNL     1       7.855   3.502  22.706  0.00  0.00    +0.055 A 
ATOM     14  C   UNL     1       6.493   3.387  22.115  0.00  0.00    +0.067 C 
ATOM     15  N   UNL     1       8.239   4.758  23.163  0.00  0.00    -0.249 NA
ENDBRANCH   1  12
BRANCH   6  16
ATOM     16  C   UNL     1       6.078  -2.853  23.496  0.00  0.00    +0.037 A 
ATOM     17  C   UNL     1       5.513  -3.770  22.603  0.00  0.00    +0.068 A 
ATOM     18  C   UNL     1       5.224  -5.074  23.000  0.00  0.00    +0.119 A 
ATOM     19  C   UNL     1       5.471  -5.496  24.298  0.00  0.00    +0.045 A 
ATOM     20  C   UNL     1       6.012  -4.595  25.211  0.00  0.00    +0.005 A 
ATOM     21  C   UNL     1       6.306  -3.285  24.813  0.00  0.00    +0.023 A 
BRANCH  18  22
ATOM     22  O   UNL     1       4.695  -5.917  22.064  0.00  0.00    -0.507 OA
ATOM     23  H   UNL     1       5.153  -6.769  22.122  0.00  0.00    +0.292 HD
ENDBRANCH  18  22
ENDBRANCH   6  16
TORSDOF 3
ENDMDL
MODEL 6
REMARK VINA RESULT:      -6.4      2.281      2.824
REMARK  Name = 
REMARK  5 active torsions:
REMARK  status: ('A' for Active; 'I' for Inactive)
REMARK    1  A    between atoms: C_1  and  C_2
REMARK    2  A    between atoms: C_4  and  C_5
REMARK    3  A    between atoms: C_6  and  C_8
REMARK    4  A    between atoms: N_11  and  C_12
REMARK    5  A    between atoms: C_16  and  O_17
REMARK                            x       y       z     vdW  Elec       q    Type
REMARK                         _______ _______ _______ _____ _____    ______ ____
ROOT
ATOM      1  C   UNL     1       8.299  -1.174  22.827  0.00  0.00    +0.084 A 
ATOM      2  C   UNL     1       9.197  -1.153  21.779  0.00  0.00    +0.049 A 
ATOM      3  C   UNL     1       9.762   0.060  21.493  0.00  0.00    +0.116 A 
ATOM      4  N   UNL     1       9.473   1.179  22.169  0.00  0.00    -0.223 NA
ATOM      5  C   UNL     1       8.591   1.092  23.173  0.00  0.00    +0.220 A 
ATOM      6  N   UNL     1       8.242   2.217  23.917  0.00  0.00    -0.284 N 
ATOM      7  H   UNL     1       7.623   1.951  24.666  0.00  0.00    +0.155 HD
ATOM      8  N   UNL     1       8.007  -0.061  23.537  0.00  0.00    -0.214 NA
ENDROOT
BRANCH   1  12
ATOM      9  C   UNL     1       4.624  -4.910  23.672  0.00  0.00    +0.073 C 
ATOM     10  C   UNL     1       5.877  -4.109  23.636  0.00  0.00    +0.076 A 
ATOM     11  S   UNL     1       5.922  -2.638  22.773  0.00  0.00    -0.071 S 
ATOM     12  C   UNL     1       7.567  -2.386  23.242  0.00  0.00    +0.060 A 
ATOM     13  C   UNL     1       7.966  -3.471  24.022  0.00  0.00    +0.055 A 
ATOM     14  C   UNL     1       9.296  -3.696  24.653  0.00  0.00    +0.067 C 
ATOM     15  N   UNL     1       6.994  -4.443  24.238  0.00  0.00    -0.249 NA
ENDBRANCH   1  12
BRANCH   6  16
ATOM     16  C   UNL     1       8.292   3.586  23.607  0.00  0.00    +0.037 A 
ATOM     17  C   UNL     1       7.427   4.204  22.697  0.00  0.00    +0.068 A 
ATOM     18  C   UNL     1       7.549   5.561  22.400  0.00  0.00    +0.119 A 
ATOM     19  C   UNL     1       8.542   6.333  22.983  0.00  0.00    +0.045 A 
ATOM     20  C   UNL     1       9.428   5.734  23.874  0.00  0.00    +0.005 A 
ATOM     21  C   UNL     1       9.306   4.372  24.177  0.00  0.00    +0.023 A 
BRANCH  18  22
ATOM     22  O   UNL     1       6.652   6.097  21.520  0.00  0.00    -0.507 OA
ATOM     23  H   UNL     1       6.718   7.064  21.562  0.00  0.00    +0.292 HD
ENDBRANCH  18  22
ENDBRANCH   6  16
TORSDOF 3
ENDMDL
MODEL 7
REMARK VINA RESULT:      -6.3      3.953      7.885
REMARK  Name = 
REMARK  5 active torsions:
REMARK  status: ('A' for Active; 'I' for Inactive)
REMARK    1  A    between atoms: C_1  and  C_2
REMARK    2  A    between atoms: C_4  and  C_5
REMARK    3  A    between atoms: C_6  and  C_8
REMARK    4  A    between atoms: N_11  and  C_12
REMARK    5  A    between atoms: C_16  and  O_17
REMARK                            x       y       z     vdW  Elec       q    Type
REMARK                         _______ _______ _______ _____ _____    ______ ____
ROOT
ATOM      1  C   UNL     1       9.103   0.438  23.943  0.00  0.00    +0.084 A 
ATOM      2  C   UNL     1      10.139  -0.404  24.292  0.00  0.00    +0.049 A 
ATOM      3  C   UNL     1       9.924  -1.740  24.091  0.00  0.00    +0.116 A 
ATOM      4  N   UNL     1       8.781  -2.231  23.595  0.00  0.00    -0.223 NA
ATOM      5  C   UNL     1       7.813  -1.360  23.280  0.00  0.00    +0.220 A 
ATOM      6  N   UNL     1       6.597  -1.801  22.761  0.00  0.00    -0.284 N 
ATOM      7  H   UNL     1       6.022  -1.008  22.523  0.00  0.00    +0.155 HD
ATOM      8  N   UNL     1       7.947  -0.032  23.421  0.00  0.00    -0.214 NA
ENDROOT
BRANCH   1  12
ATOM      9  C   UNL     1      10.320   5.600  23.730  0.00  0.00    +0.073 C 
ATOM     10  C   UNL     1       9.709   4.280  24.038  0.00  0.00    +0.076 A 
ATOM     11  S   UNL     1      10.267   2.878  23.242  0.00  0.00    -0.071 S 
ATOM     12  C   UNL     1       9.150   1.901  24.131  0.00  0.00    +0.060 A 
ATOM     13  C   UNL     1       8.415   2.738  24.970  0.00  0.00    +0.055 A 
ATOM     14  C   UNL     1       7.339   2.350  25.924  0.00  0.00    +0.067 C 
ATOM     15  N   UNL     1       8.744   4.088  24.907  0.00  0.00    -0.249 NA
ENDBRANCH   1  12
BRANCH   6  16
ATOM     16  C   UNL     1       5.942  -3.039  22.857  0.00  0.00    +0.037 A 
ATOM     17  C   UNL     1       6.177  -4.107  21.983  0.00  0.00    +0.068 A 
ATOM     18  C   UNL     1       5.468  -5.301  22.103  0.00  0.00    +0.119 A 
ATOM     19  C   UNL     1       4.496  -5.460  23.080  0.00  0.00    +0.045 A 
ATOM     20  C   UNL     1       4.230  -4.403  23.947  0.00  0.00    +0.005 A 
ATOM     21  C   UNL     1       4.944  -3.204  23.830  0.00  0.00    +0.023 A 
BRANCH  18  22
ATOM     22  O   UNL     1       5.769  -6.305  21.227  0.00  0.00    -0.507 OA
ATOM     23  H   UNL     1       5.349  -6.108  20.375  0.00  0.00    +0.292 HD
ENDBRANCH  18  22
ENDBRANCH   6  16
TORSDOF 3
ENDMDL
MODEL 8
REMARK VINA RESULT:      -6.3      4.016      8.065
REMARK  Name = 
REMARK  5 active torsions:
REMARK  status: ('A' for Active; 'I' for Inactive)
REMARK    1  A    between atoms: C_1  and  C_2
REMARK    2  A    between atoms: C_4  and  C_5
REMARK    3  A    between atoms: C_6  and  C_8
REMARK    4  A    between atoms: N_11  and  C_12
REMARK    5  A    between atoms: C_16  and  O_17
REMARK                            x       y       z     vdW  Elec       q    Type
REMARK                         _______ _______ _______ _____ _____    ______ ____
ROOT
ATOM      1  C   UNL     1       8.237   0.553  22.431  0.00  0.00    +0.084 A 
ATOM      2  C   UNL     1       9.307  -0.117  21.873  0.00  0.00    +0.049 A 
ATOM      3  C   UNL     1       9.183  -1.476  21.776  0.00  0.00    +0.116 A 
ATOM      4  N   UNL     1       8.102  -2.144  22.197  0.00  0.00    -0.223 NA
ATOM      5  C   UNL     1       7.100  -1.435  22.733  0.00  0.00    +0.220 A 
ATOM      6  N   UNL     1       5.946  -2.065  23.194  0.00  0.00    -0.284 N 
ATOM      7  H   UNL     1       5.279  -1.373  23.499  0.00  0.00    +0.155 HD
ATOM      8  N   UNL     1       7.126  -0.098  22.845  0.00  0.00    -0.214 NA
ENDROOT
BRANCH   1  12
ATOM      9  C   UNL     1       6.989   5.712  22.520  0.00  0.00    +0.073 C 
ATOM     10  C   UNL     1       7.651   4.391  22.691  0.00  0.00    +0.076 A 
ATOM     11  S   UNL     1       6.882   2.975  22.127  0.00  0.00    -0.071 S 
ATOM     12  C   UNL     1       8.220   2.013  22.649  0.00  0.00    +0.060 A 
ATOM     13  C   UNL     1       9.160   2.859  23.237  0.00  0.00    +0.055 A 
ATOM     14  C   UNL     1      10.474   2.486  23.830  0.00  0.00    +0.067 C 
ATOM     15  N   UNL     1       8.822   4.209  23.252  0.00  0.00    -0.249 NA
ENDBRANCH   1  12
BRANCH   6  16
ATOM     16  C   UNL     1       5.717  -3.382  23.624  0.00  0.00    +0.037 A 
ATOM     17  C   UNL     1       4.914  -4.294  22.929  0.00  0.00    +0.068 A 
ATOM     18  C   UNL     1       4.691  -5.578  23.424  0.00  0.00    +0.119 A 
ATOM     19  C   UNL     1       5.244  -5.983  24.630  0.00  0.00    +0.045 A 
ATOM     20  C   UNL     1       6.029  -5.086  25.350  0.00  0.00    +0.005 A 
ATOM     21  C   UNL     1       6.256  -3.797  24.852  0.00  0.00    +0.023 A 
BRANCH  18  22
ATOM     22  O   UNL     1       3.915  -6.417  22.677  0.00  0.00    -0.507 OA
ATOM     23  H   UNL     1       4.418  -7.227  22.501  0.00  0.00    +0.292 HD
ENDBRANCH  18  22
ENDBRANCH   6  16
TORSDOF 3
ENDMDL
MODEL 9
REMARK VINA RESULT:      -6.3      3.669      7.883
REMARK  Name = 
REMARK  5 active torsions:
REMARK  status: ('A' for Active; 'I' for Inactive)
REMARK    1  A    between atoms: C_1  and  C_2
REMARK    2  A    between atoms: C_4  and  C_5
REMARK    3  A    between atoms: C_6  and  C_8
REMARK    4  A    between atoms: N_11  and  C_12
REMARK    5  A    between atoms: C_16  and  O_17
REMARK                            x       y       z     vdW  Elec       q    Type
REMARK                         _______ _______ _______ _____ _____    ______ ____
ROOT
ATOM      1  C   UNL     1       9.350   1.866  23.787  0.00  0.00    +0.084 A 
ATOM      2  C   UNL     1      10.687   1.792  24.123  0.00  0.00    +0.049 A 
ATOM      3  C   UNL     1      11.144   0.562  24.510  0.00  0.00    +0.116 A 
ATOM      4  N   UNL     1      10.361  -0.522  24.577  0.00  0.00    -0.223 NA
ATOM      5  C   UNL     1       9.071  -0.382  24.241  0.00  0.00    +0.220 A 
ATOM      6  N   UNL     1       8.199  -1.467  24.289  0.00  0.00    -0.284 N 
ATOM      7  H   UNL     1       7.294  -1.192  23.940  0.00  0.00    +0.155 HD
ATOM      8  N   UNL     1       8.544   0.781  23.827  0.00  0.00    -0.214 NA
ENDROOT
BRANCH   1  12
ATOM      9  C   UNL     1       7.833   6.926  23.263  0.00  0.00    +0.073 C 
ATOM     10  C   UNL     1       7.980   5.451  23.145  0.00  0.00    +0.076 A 
ATOM     11  S   UNL     1       9.203   4.645  24.021  0.00  0.00    -0.071 S 
ATOM     12  C   UNL     1       8.684   3.121  23.389  0.00  0.00    +0.060 A 
ATOM     13  C   UNL     1       7.608   3.351  22.531  0.00  0.00    +0.055 A 
ATOM     14  C   UNL     1       6.831   2.344  21.758  0.00  0.00    +0.067 C 
ATOM     15  N   UNL     1       7.219   4.681  22.404  0.00  0.00    -0.249 NA
ENDBRANCH   1  12
BRANCH   6  16
ATOM     16  C   UNL     1       8.246  -2.663  25.024  0.00  0.00    +0.037 A 
ATOM     17  C   UNL     1       9.142  -3.702  24.752  0.00  0.00    +0.068 A 
ATOM     18  C   UNL     1       9.117  -4.884  25.491  0.00  0.00    +0.119 A 
ATOM     19  C   UNL     1       8.190  -5.071  26.506  0.00  0.00    +0.045 A 
ATOM     20  C   UNL     1       7.273  -4.059  26.780  0.00  0.00    +0.005 A 
ATOM     21  C   UNL     1       7.299  -2.871  26.040  0.00  0.00    +0.023 A 
BRANCH  18  22
ATOM     22  O   UNL     1      10.039  -5.843  25.181  0.00  0.00    -0.507 OA
ATOM     23  H   UNL     1       9.573  -6.618  24.830  0.00  0.00    +0.292 HD
ENDBRANCH  18  22
ENDBRANCH   6  16
TORSDOF 3
ENDMDL
