MODEL 1
REMARK VINA RESULT:      -6.1      0.000      0.000
REMARK  Name = 
REMARK  12 active torsions:
REMARK  status: ('A' for Active; 'I' for Inactive)
REMARK    1  A    between atoms: C_1  and  C_2
REMARK    2  A    between atoms: N_4  and  C_5
REMARK    3  A    between atoms: C_7  and  O_9
REMARK    4  A    between atoms: C_11  and  O_12
REMARK    5  A    between atoms: C_11  and  C_24
REMARK    6  A    between atoms: C_14  and  C_16
REMARK    7  A    between atoms: C_16  and  O_18
REMARK    8  A    between atoms: C_16  and  C_19
REMARK    9  A    between atoms: C_19  and  O_21
REMARK   10  A    between atoms: C_19  and  C_22
REMARK   11  A    between atoms: C_22  and  O_23
REMARK   12  A    between atoms: C_24  and  O_25
REMARK                            x       y       z     vdW  Elec       q    Type
REMARK                         _______ _______ _______ _____ _____    ______ ____
ROOT
ATOM      1  C   UNL     1       7.320  -2.807  22.925  0.00  0.00    +0.133 C 
ATOM      2  C   UNL     1       8.772  -2.586  23.406  0.00  0.00    +0.176 C 
ATOM      3  O   UNL     1       9.034  -3.380  24.592  0.00  0.00    -0.332 OA
ATOM      4  C   UNL     1       8.118  -3.233  25.680  0.00  0.00    +0.270 C 
ATOM      5  C   UNL     1       6.643  -3.343  25.284  0.00  0.00    +0.110 C 
ATOM      6  C   UNL     1       6.341  -2.475  24.069  0.00  0.00    +0.143 C 
ENDROOT
BRANCH   1   9
ATOM      7  C   UNL     1       6.321  -5.945  21.004  0.00  0.00    +0.109 C 
ATOM      8  C   UNL     1       6.282  -4.493  21.413  0.00  0.00    +0.210 C 
ATOM      9  N   UNL     1       7.148  -4.186  22.438  0.00  0.00    -0.308 N 
ATOM     10  H   UNL     1       7.761  -4.912  22.795  0.00  0.00    +0.149 HD
ATOM     11  O   UNL     1       5.556  -3.670  20.870  0.00  0.00    -0.276 OA
ENDBRANCH   1   9
BRANCH   4  12
ATOM     12  O   UNL     1       8.371  -2.013  26.391  0.00  0.00    -0.356 OA
ATOM     13  H   UNL     1       7.511  -1.543  26.430  0.00  0.00    +0.213 HD
ENDBRANCH   4  12
BRANCH   4  14
ATOM     14  C   UNL     1       8.416  -4.377  26.698  0.00  0.00    +0.365 C 
ATOM     15  O   UNL     1       7.590  -4.908  27.429  0.00  0.00    -0.245 OA
BRANCH  14  16
ATOM     16  O   UNL     1       9.731  -4.739  26.686  0.00  0.00    -0.477 OA
ATOM     17  H   UNL     1       9.969  -4.973  27.616  0.00  0.00    +0.295 HD
ENDBRANCH  14  16
ENDBRANCH   4  14
BRANCH   6  18
ATOM     18  O   UNL     1       6.454  -1.107  24.483  0.00  0.00    -0.390 OA
ATOM     19  H   UNL     1       6.107  -0.559  23.740  0.00  0.00    +0.210 HD
ENDBRANCH   6  18
BRANCH   2  20
ATOM     20  C   UNL     1       9.281  -1.133  23.628  0.00  0.00    +0.176 C 
BRANCH  20  21
ATOM     21  O   UNL     1      10.277  -1.176  24.668  0.00  0.00    -0.387 OA
ATOM     22  H   UNL     1      10.207  -0.322  25.140  0.00  0.00    +0.210 HD
ENDBRANCH  20  21
BRANCH  20  23
ATOM     23  C   UNL     1       9.884  -0.442  22.395  0.00  0.00    +0.171 C 
BRANCH  23  24
ATOM     24  O   UNL     1      10.129  -1.388  21.344  0.00  0.00    -0.387 OA
ATOM     25  H   UNL     1      11.095  -1.337  21.178  0.00  0.00    +0.210 HD
ENDBRANCH  23  24
BRANCH  23  26
ATOM     26  C   UNL     1       8.937   0.629  21.836  0.00  0.00    +0.189 C 
BRANCH  26  27
ATOM     27  O   UNL     1       9.717   1.751  21.410  0.00  0.00    -0.392 OA
ATOM     28  H   UNL     1      10.638   1.443  21.332  0.00  0.00    +0.210 HD
ENDBRANCH  26  27
ENDBRANCH  23  26
ENDBRANCH  20  23
ENDBRANCH   2  20
TORSDOF 11
ENDMDL
MODEL 2
REMARK VINA RESULT:      -5.9      3.866      6.226
REMARK  Name = 
REMARK  12 active torsions:
REMARK  status: ('A' for Active; 'I' for Inactive)
REMARK    1  A    between atoms: C_1  and  C_2
REMARK    2  A    between atoms: N_4  and  C_5
REMARK    3  A    between atoms: C_7  and  O_9
REMARK    4  A    between atoms: C_11  and  O_12
REMARK    5  A    between atoms: C_11  and  C_24
REMARK    6  A    between atoms: C_14  and  C_16
REMARK    7  A    between atoms: C_16  and  O_18
REMARK    8  A    between atoms: C_16  and  C_19
REMARK    9  A    between atoms: C_19  and  O_21
REMARK   10  A    between atoms: C_19  and  C_22
REMARK   11  A    between atoms: C_22  and  O_23
REMARK   12  A    between atoms: C_24  and  O_25
REMARK                            x       y       z     vdW  Elec       q    Type
REMARK                         _______ _______ _______ _____ _____    ______ ____
ROOT
ATOM      1  C   UNL     1       8.757   2.156  24.777  0.00  0.00    +0.133 C 
ATOM      2  C   UNL     1       7.784   2.167  23.576  0.00  0.00    +0.176 C 
ATOM      3  O   UNL     1       7.846   0.902  22.869  0.00  0.00    -0.332 OA
ATOM      4  C   UNL     1       9.141   0.455  22.460  0.00  0.00    +0.270 C 
ATOM      5  C   UNL     1      10.202   0.498  23.563  0.00  0.00    +0.110 C 
ATOM      6  C   UNL     1      10.183   1.840  24.283  0.00  0.00    +0.143 C 
ENDROOT
BRANCH   1   9
ATOM      7  C   UNL     1       6.945   0.358  27.609  0.00  0.00    +0.109 C 
ATOM      8  C   UNL     1       7.332   1.511  26.716  0.00  0.00    +0.210 C 
ATOM      9  N   UNL     1       8.302   1.192  25.794  0.00  0.00    -0.308 N 
ATOM     10  H   UNL     1       8.635   0.235  25.745  0.00  0.00    +0.149 HD
ATOM     11  O   UNL     1       6.818   2.619  26.804  0.00  0.00    -0.276 OA
ENDBRANCH   1   9
BRANCH   4  12
ATOM     12  O   UNL     1       9.579   1.174  21.297  0.00  0.00    -0.356 OA
ATOM     13  H   UNL     1       8.761   1.478  20.848  0.00  0.00    +0.213 HD
ENDBRANCH   4  12
BRANCH   4  14
ATOM     14  C   UNL     1       9.001  -1.029  22.002  0.00  0.00    +0.365 C 
ATOM     15  O   UNL     1       8.018  -1.737  22.184  0.00  0.00    -0.245 OA
BRANCH  14  16
ATOM     16  O   UNL     1      10.117  -1.470  21.355  0.00  0.00    -0.477 OA
ATOM     17  H   UNL     1      10.882  -1.289  21.953  0.00  0.00    +0.295 HD
ENDBRANCH  14  16
ENDBRANCH   4  14
BRANCH   6  18
ATOM     18  O   UNL     1      10.654   2.829  23.357  0.00  0.00    -0.390 OA
ATOM     19  H   UNL     1      11.255   2.362  22.730  0.00  0.00    +0.210 HD
ENDBRANCH   6  18
BRANCH   2  20
ATOM     20  C   UNL     1       7.857   3.339  22.557  0.00  0.00    +0.176 C 
BRANCH  20  21
ATOM     21  O   UNL     1       6.706   3.239  21.697  0.00  0.00    -0.387 OA
ATOM     22  H   UNL     1       6.705   2.322  21.357  0.00  0.00    +0.210 HD
ENDBRANCH  20  21
BRANCH  20  23
ATOM     23  C   UNL     1       7.898   4.750  23.164  0.00  0.00    +0.171 C 
BRANCH  23  24
ATOM     24  O   UNL     1       9.202   5.334  23.021  0.00  0.00    -0.387 OA
ATOM     25  H   UNL     1       9.251   6.016  23.725  0.00  0.00    +0.210 HD
ENDBRANCH  23  24
BRANCH  23  26
ATOM     26  C   UNL     1       6.898   5.686  22.471  0.00  0.00    +0.189 C 
BRANCH  26  27
ATOM     27  O   UNL     1       7.493   6.176  21.264  0.00  0.00    -0.392 OA
ATOM     28  H   UNL     1       7.253   7.117  21.192  0.00  0.00    +0.210 HD
ENDBRANCH  26  27
ENDBRANCH  23  26
ENDBRANCH  20  23
ENDBRANCH   2  20
TORSDOF 11
ENDMDL
MODEL 3
REMARK VINA RESULT:      -5.7      2.480      5.676
REMARK  Name = 
REMARK  12 active torsions:
REMARK  status: ('A' for Active; 'I' for Inactive)
REMARK    1  A    between atoms: C_1  and  C_2
REMARK    2  A    between atoms: N_4  and  C_5
REMARK    3  A    between atoms: C_7  and  O_9
REMARK    4  A    between atoms: C_11  and  O_12
REMARK    5  A    between atoms: C_11  and  C_24
REMARK    6  A    between atoms: C_14  and  C_16
REMARK    7  A    between atoms: C_16  and  O_18
REMARK    8  A    between atoms: C_16  and  C_19
REMARK    9  A    between atoms: C_19  and  O_21
REMARK   10  A    between atoms: C_19  and  C_22
REMARK   11  A    between atoms: C_22  and  O_23
REMARK   12  A    between atoms: C_24  and  O_25
REMARK                            x       y       z     vdW  Elec       q    Type
REMARK                         _______ _______ _______ _____ _____    ______ ____
ROOT
ATOM      1  C   UNL     1       7.334  -1.065  25.015  0.00  0.00    +0.133 C 
ATOM      2  C   UNL     1       8.771  -1.581  24.781  0.00  0.00    +0.176 C 
ATOM      3  O   UNL     1       9.597  -0.528  24.224  0.00  0.00    -0.332 OA
ATOM      4  C   UNL     1       9.104   0.128  23.053  0.00  0.00    +0.270 C 
ATOM      5  C   UNL     1       7.649   0.594  23.156  0.00  0.00    +0.110 C 
ATOM      6  C   UNL     1       6.758  -0.519  23.693  0.00  0.00    +0.143 C 
ENDROOT
BRANCH   1   9
ATOM      7  C   UNL     1       6.744   0.927  28.213  0.00  0.00    +0.109 C 
ATOM      8  C   UNL     1       6.540  -0.176  27.203  0.00  0.00    +0.210 C 
ATOM      9  N   UNL     1       7.324  -0.047  26.080  0.00  0.00    -0.308 N 
ATOM     10  H   UNL     1       7.991   0.716  26.034  0.00  0.00    +0.149 HD
ATOM     11  O   UNL     1       5.758  -1.102  27.381  0.00  0.00    -0.276 OA
ENDBRANCH   1   9
BRANCH   4  12
ATOM     12  O   UNL     1       9.300  -0.695  21.894  0.00  0.00    -0.356 OA
ATOM     13  H   UNL     1       8.950  -1.580  22.132  0.00  0.00    +0.213 HD
ENDBRANCH   4  12
BRANCH   4  14
ATOM     14  C   UNL     1       9.986   1.393  22.819  0.00  0.00    +0.365 C 
ATOM     15  O   UNL     1      10.723   1.908  23.651  0.00  0.00    -0.245 OA
BRANCH  14  16
ATOM     16  O   UNL     1       9.853   1.878  21.551  0.00  0.00    -0.477 OA
ATOM     17  H   UNL     1      10.225   1.193  20.945  0.00  0.00    +0.295 HD
ENDBRANCH  14  16
ENDBRANCH   4  14
BRANCH   6  18
ATOM     18  O   UNL     1       6.692  -1.536  22.684  0.00  0.00    -0.390 OA
ATOM     19  H   UNL     1       7.228  -1.212  21.923  0.00  0.00    +0.210 HD
ENDBRANCH   6  18
BRANCH   2  20
ATOM     20  C   UNL     1       8.979  -2.892  23.970  0.00  0.00    +0.176 C 
BRANCH  20  21
ATOM     21  O   UNL     1      10.392  -3.034  23.730  0.00  0.00    -0.387 OA
ATOM     22  H   UNL     1      10.740  -2.125  23.636  0.00  0.00    +0.210 HD
ENDBRANCH  20  21
BRANCH  20  23
ATOM     23  C   UNL     1       8.459  -4.177  24.633  0.00  0.00    +0.171 C 
BRANCH  23  24
ATOM     24  O   UNL     1       8.442  -5.267  23.700  0.00  0.00    -0.387 OA
ATOM     25  H   UNL     1       7.495  -5.394  23.477  0.00  0.00    +0.210 HD
ENDBRANCH  23  24
BRANCH  23  26
ATOM     26  C   UNL     1       9.350  -4.597  25.811  0.00  0.00    +0.189 C 
BRANCH  26  27
ATOM     27  O   UNL     1      10.314  -5.544  25.339  0.00  0.00    -0.392 OA
ATOM     28  H   UNL     1      10.844  -5.094  24.658  0.00  0.00    +0.210 HD
ENDBRANCH  26  27
ENDBRANCH  23  26
ENDBRANCH  20  23
ENDBRANCH   2  20
TORSDOF 11
ENDMDL
MODEL 4
REMARK VINA RESULT:      -5.7      3.349      6.237
REMARK  Name = 
REMARK  12 active torsions:
REMARK  status: ('A' for Active; 'I' for Inactive)
REMARK    1  A    between atoms: C_1  and  C_2
REMARK    2  A    between atoms: N_4  and  C_5
REMARK    3  A    between atoms: C_7  and  O_9
REMARK    4  A    between atoms: C_11  and  O_12
REMARK    5  A    between atoms: C_11  and  C_24
REMARK    6  A    between atoms: C_14  and  C_16
REMARK    7  A    between atoms: C_16  and  O_18
REMARK    8  A    between atoms: C_16  and  C_19
REMARK    9  A    between atoms: C_19  and  O_21
REMARK   10  A    between atoms: C_19  and  C_22
REMARK   11  A    between atoms: C_22  and  O_23
REMARK   12  A    between atoms: C_24  and  O_25
REMARK                            x       y       z     vdW  Elec       q    Type
REMARK                         _______ _______ _______ _____ _____    ______ ____
ROOT
ATOM      1  C   UNL     1       7.510   1.165  23.287  0.00  0.00    +0.133 C 
ATOM      2  C   UNL     1       8.804   1.143  24.131  0.00  0.00    +0.176 C 
ATOM      3  O   UNL     1       9.198   2.495  24.479  0.00  0.00    -0.332 OA
ATOM      4  C   UNL     1       9.318   3.429  23.404  0.00  0.00    +0.270 C 
ATOM      5  C   UNL     1       8.117   3.456  22.454  0.00  0.00    +0.110 C 
ATOM      6  C   UNL     1       7.722   2.045  22.038  0.00  0.00    +0.143 C 
ENDROOT
BRANCH   1   9
ATOM      7  C   UNL     1       4.656   1.501  25.793  0.00  0.00    +0.109 C 
ATOM      8  C   UNL     1       5.728   0.806  24.990  0.00  0.00    +0.210 C 
ATOM      9  N   UNL     1       6.377   1.634  24.103  0.00  0.00    -0.308 N 
ATOM     10  H   UNL     1       6.137   2.619  24.088  0.00  0.00    +0.149 HD
ATOM     11  O   UNL     1       5.996  -0.381  25.131  0.00  0.00    -0.276 OA
ENDBRANCH   1   9
BRANCH   4  12
ATOM     12  O   UNL     1      10.540   3.216  22.683  0.00  0.00    -0.356 OA
ATOM     13  H   UNL     1      10.287   3.169  21.736  0.00  0.00    +0.213 HD
ENDBRANCH   4  12
BRANCH   4  14
ATOM     14  C   UNL     1       9.449   4.851  24.033  0.00  0.00    +0.365 C 
ATOM     15  O   UNL     1       9.085   5.164  25.159  0.00  0.00    -0.245 OA
BRANCH  14  16
ATOM     16  O   UNL     1      10.034   5.734  23.174  0.00  0.00    -0.477 OA
ATOM     17  H   UNL     1      10.221   5.239  22.341  0.00  0.00    +0.295 HD
ENDBRANCH  14  16
ENDBRANCH   4  14
BRANCH   6  18
ATOM     18  O   UNL     1       8.771   1.536  21.203  0.00  0.00    -0.390 OA
ATOM     19  H   UNL     1       9.548   1.384  21.791  0.00  0.00    +0.210 HD
ENDBRANCH   6  18
BRANCH   2  20
ATOM     20  C   UNL     1      10.039   0.361  23.598  0.00  0.00    +0.176 C 
BRANCH  20  21
ATOM     21  O   UNL     1      11.188   0.799  24.349  0.00  0.00    -0.387 OA
ATOM     22  H   UNL     1      11.585   1.526  23.829  0.00  0.00    +0.210 HD
ENDBRANCH  20  21
BRANCH  20  23
ATOM     23  C   UNL     1       9.947  -1.170  23.685  0.00  0.00    +0.171 C 
BRANCH  23  24
ATOM     24  O   UNL     1       9.007  -1.572  24.694  0.00  0.00    -0.387 OA
ATOM     25  H   UNL     1       9.549  -1.724  25.498  0.00  0.00    +0.210 HD
ENDBRANCH  23  24
BRANCH  23  26
ATOM     26  C   UNL     1       9.480  -1.779  22.356  0.00  0.00    +0.189 C 
BRANCH  26  27
ATOM     27  O   UNL     1       9.989  -0.979  21.283  0.00  0.00    -0.392 OA
ATOM     28  H   UNL     1       9.678  -1.385  20.455  0.00  0.00    +0.210 HD
ENDBRANCH  26  27
ENDBRANCH  23  26
ENDBRANCH  20  23
ENDBRANCH   2  20
TORSDOF 11
ENDMDL
MODEL 5
REMARK VINA RESULT:      -5.6      3.451      4.665
REMARK  Name = 
REMARK  12 active torsions:
REMARK  status: ('A' for Active; 'I' for Inactive)
REMARK    1  A    between atoms: C_1  and  C_2
REMARK    2  A    between atoms: N_4  and  C_5
REMARK    3  A    between atoms: C_7  and  O_9
REMARK    4  A    between atoms: C_11  and  O_12
REMARK    5  A    between atoms: C_11  and  C_24
REMARK    6  A    between atoms: C_14  and  C_16
REMARK    7  A    between atoms: C_16  and  O_18
REMARK    8  A    between atoms: C_16  and  C_19
REMARK    9  A    between atoms: C_19  and  O_21
REMARK   10  A    between atoms: C_19  and  C_22
REMARK   11  A    between atoms: C_22  and  O_23
REMARK   12  A    between atoms: C_24  and  O_25
REMARK                            x       y       z     vdW  Elec       q    Type
REMARK                         _______ _______ _______ _____ _____    ______ ____
ROOT
ATOM      1  C   UNL     1       5.146  -4.446  25.330  0.00  0.00    +0.133 C 
ATOM      2  C   UNL     1       6.234  -5.505  25.622  0.00  0.00    +0.176 C 
ATOM      3  O   UNL     1       5.814  -6.368  26.710  0.00  0.00    -0.332 OA
ATOM      4  C   UNL     1       5.401  -5.727  27.919  0.00  0.00    +0.270 C 
ATOM      5  C   UNL     1       4.389  -4.595  27.720  0.00  0.00    +0.110 C 
ATOM      6  C   UNL     1       4.841  -3.650  26.615  0.00  0.00    +0.143 C 
ENDROOT
BRANCH   1   9
ATOM      7  C   UNL     1       2.436  -5.900  23.076  0.00  0.00    +0.109 C 
ATOM      8  C   UNL     1       3.671  -5.112  23.436  0.00  0.00    +0.210 C 
ATOM      9  N   UNL     1       3.939  -5.092  24.785  0.00  0.00    -0.308 N 
ATOM     10  H   UNL     1       3.346  -5.627  25.410  0.00  0.00    +0.149 HD
ATOM     11  O   UNL     1       4.370  -4.556  22.597  0.00  0.00    -0.276 OA
ENDBRANCH   1   9
BRANCH   4  12
ATOM     12  O   UNL     1       6.541  -5.274  28.665  0.00  0.00    -0.356 OA
ATOM     13  H   UNL     1       7.299  -5.311  28.043  0.00  0.00    +0.213 HD
ENDBRANCH   4  12
BRANCH   4  14
ATOM     14  C   UNL     1       4.723  -6.809  28.814  0.00  0.00    +0.365 C 
ATOM     15  O   UNL     1       5.081  -7.122  29.942  0.00  0.00    -0.245 OA
BRANCH  14  16
ATOM     16  O   UNL     1       3.654  -7.386  28.193  0.00  0.00    -0.477 OA
ATOM     17  H   UNL     1       3.439  -6.818  27.414  0.00  0.00    +0.295 HD
ENDBRANCH  14  16
ENDBRANCH   4  14
BRANCH   6  18
ATOM     18  O   UNL     1       6.000  -2.954  27.094  0.00  0.00    -0.390 OA
ATOM     19  H   UNL     1       6.153  -2.203  26.474  0.00  0.00    +0.210 HD
ENDBRANCH   6  18
BRANCH   2  20
ATOM     20  C   UNL     1       7.697  -5.035  25.864  0.00  0.00    +0.176 C 
BRANCH  20  21
ATOM     21  O   UNL     1       8.339  -6.025  26.691  0.00  0.00    -0.387 OA
ATOM     22  H   UNL     1       7.997  -6.889  26.387  0.00  0.00    +0.210 HD
ENDBRANCH  20  21
BRANCH  20  23
ATOM     23  C   UNL     1       8.546  -4.821  24.601  0.00  0.00    +0.171 C 
BRANCH  23  24
ATOM     24  O   UNL     1       9.782  -5.546  24.683  0.00  0.00    -0.387 OA
ATOM     25  H   UNL     1      10.445  -4.965  24.251  0.00  0.00    +0.210 HD
ENDBRANCH  23  24
BRANCH  23  26
ATOM     26  C   UNL     1       7.811  -5.310  23.345  0.00  0.00    +0.189 C 
BRANCH  26  27
ATOM     27  O   UNL     1       7.409  -4.170  22.578  0.00  0.00    -0.392 OA
ATOM     28  H   UNL     1       6.553  -4.391  22.170  0.00  0.00    +0.210 HD
ENDBRANCH  26  27
ENDBRANCH  23  26
ENDBRANCH  20  23
ENDBRANCH   2  20
TORSDOF 11
ENDMDL
MODEL 6
REMARK VINA RESULT:      -5.5      2.700      5.198
REMARK  Name = 
REMARK  12 active torsions:
REMARK  status: ('A' for Active; 'I' for Inactive)
REMARK    1  A    between atoms: C_1  and  C_2
REMARK    2  A    between atoms: N_4  and  C_5
REMARK    3  A    between atoms: C_7  and  O_9
REMARK    4  A    between atoms: C_11  and  O_12
REMARK    5  A    between atoms: C_11  and  C_24
REMARK    6  A    between atoms: C_14  and  C_16
REMARK    7  A    between atoms: C_16  and  O_18
REMARK    8  A    between atoms: C_16  and  C_19
REMARK    9  A    between atoms: C_19  and  O_21
REMARK   10  A    between atoms: C_19  and  C_22
REMARK   11  A    between atoms: C_22  and  O_23
REMARK   12  A    between atoms: C_24  and  O_25
REMARK                            x       y       z     vdW  Elec       q    Type
REMARK                         _______ _______ _______ _____ _____    ______ ____
ROOT
ATOM      1  C   UNL     1       9.064  -1.392  25.142  0.00  0.00    +0.133 C 
ATOM      2  C   UNL     1       7.870  -2.353  25.339  0.00  0.00    +0.176 C 
ATOM      3  O   UNL     1       6.619  -1.625  25.240  0.00  0.00    -0.332 OA
ATOM      4  C   UNL     1       6.476  -0.473  26.073  0.00  0.00    +0.270 C 
ATOM      5  C   UNL     1       7.660   0.498  26.017  0.00  0.00    +0.110 C 
ATOM      6  C   UNL     1       8.980  -0.246  26.170  0.00  0.00    +0.143 C 
ENDROOT
BRANCH   1   9
ATOM      7  C   UNL     1       9.631  -0.894  21.404  0.00  0.00    +0.109 C 
ATOM      8  C   UNL     1       9.810  -1.515  22.768  0.00  0.00    +0.210 C 
ATOM      9  N   UNL     1       9.089  -0.887  23.758  0.00  0.00    -0.308 N 
ATOM     10  H   UNL     1       8.476  -0.119  23.505  0.00  0.00    +0.149 HD
ATOM     11  O   UNL     1      10.522  -2.492  22.963  0.00  0.00    -0.276 OA
ENDBRANCH   1   9
BRANCH   4  12
ATOM     12  O   UNL     1       6.192  -0.859  27.425  0.00  0.00    -0.356 OA
ATOM     13  H   UNL     1       5.283  -0.539  27.610  0.00  0.00    +0.213 HD
ENDBRANCH   4  12
BRANCH   4  14
ATOM     14  C   UNL     1       5.212   0.301  25.588  0.00  0.00    +0.365 C 
ATOM     15  O   UNL     1       4.194   0.479  26.244  0.00  0.00    -0.245 OA
BRANCH  14  16
ATOM     16  O   UNL     1       5.364   0.780  24.320  0.00  0.00    -0.477 OA
ATOM     17  H   UNL     1       6.317   1.019  24.219  0.00  0.00    +0.295 HD
ENDBRANCH  14  16
ENDBRANCH   4  14
BRANCH   6  18
ATOM     18  O   UNL     1       9.040  -0.737  27.516  0.00  0.00    -0.390 OA
ATOM     19  H   UNL     1       9.508  -0.048  28.045  0.00  0.00    +0.210 HD
ENDBRANCH   6  18
BRANCH   2  20
ATOM     20  C   UNL     1       7.841  -3.273  26.593  0.00  0.00    +0.176 C 
BRANCH  20  21
ATOM     21  O   UNL     1       6.488  -3.738  26.759  0.00  0.00    -0.387 OA
ATOM     22  H   UNL     1       6.020  -3.500  25.933  0.00  0.00    +0.210 HD
ENDBRANCH  20  21
BRANCH  20  23
ATOM     23  C   UNL     1       8.779  -4.489  26.550  0.00  0.00    +0.171 C 
BRANCH  23  24
ATOM     24  O   UNL     1       8.216  -5.599  27.265  0.00  0.00    -0.387 OA
ATOM     25  H   UNL     1       7.903  -6.216  26.569  0.00  0.00    +0.210 HD
ENDBRANCH  23  24
BRANCH  23  26
ATOM     26  C   UNL     1       9.026  -4.952  25.107  0.00  0.00    +0.189 C 
BRANCH  26  27
ATOM     27  O   UNL     1      10.342  -5.511  25.027  0.00  0.00    -0.392 OA
ATOM     28  H   UNL     1      10.783  -5.090  24.267  0.00  0.00    +0.210 HD
ENDBRANCH  26  27
ENDBRANCH  23  26
ENDBRANCH  20  23
ENDBRANCH   2  20
TORSDOF 11
ENDMDL
MODEL 7
REMARK VINA RESULT:      -5.5      1.960      4.675
REMARK  Name = 
REMARK  12 active torsions:
REMARK  status: ('A' for Active; 'I' for Inactive)
REMARK    1  A    between atoms: C_1  and  C_2
REMARK    2  A    between atoms: N_4  and  C_5
REMARK    3  A    between atoms: C_7  and  O_9
REMARK    4  A    between atoms: C_11  and  O_12
REMARK    5  A    between atoms: C_11  and  C_24
REMARK    6  A    between atoms: C_14  and  C_16
REMARK    7  A    between atoms: C_16  and  O_18
REMARK    8  A    between atoms: C_16  and  C_19
REMARK    9  A    between atoms: C_19  and  O_21
REMARK   10  A    between atoms: C_19  and  C_22
REMARK   11  A    between atoms: C_22  and  O_23
REMARK   12  A    between atoms: C_24  and  O_25
REMARK                            x       y       z     vdW  Elec       q    Type
REMARK                         _______ _______ _______ _____ _____    ______ ____
ROOT
ATOM      1  C   UNL     1       8.349  -1.775  22.966  0.00  0.00    +0.133 C 
ATOM      2  C   UNL     1       7.223  -2.437  23.791  0.00  0.00    +0.176 C 
ATOM      3  O   UNL     1       7.110  -1.799  25.088  0.00  0.00    -0.332 OA
ATOM      4  C   UNL     1       8.306  -1.698  25.864  0.00  0.00    +0.270 C 
ATOM      5  C   UNL     1       9.509  -1.138  25.100  0.00  0.00    +0.110 C 
ATOM      6  C   UNL     1       9.672  -1.834  23.756  0.00  0.00    +0.143 C 
ENDROOT
BRANCH   1   9
ATOM      7  C   UNL     1       8.165   1.735  21.487  0.00  0.00    +0.109 C 
ATOM      8  C   UNL     1       8.764   0.384  21.794  0.00  0.00    +0.210 C 
ATOM      9  N   UNL     1       7.980  -0.392  22.616  0.00  0.00    -0.308 N 
ATOM     10  H   UNL     1       7.072  -0.041  22.902  0.00  0.00    +0.149 HD
ATOM     11  O   UNL     1       9.841   0.018  21.341  0.00  0.00    -0.276 OA
ENDBRANCH   1   9
BRANCH   4  12
ATOM     12  O   UNL     1       8.623  -2.961  26.468  0.00  0.00    -0.356 OA
ATOM     13  H   UNL     1       8.847  -3.563  25.726  0.00  0.00    +0.213 HD
ENDBRANCH   4  12
BRANCH   4  14
ATOM     14  C   UNL     1       8.013  -0.731  27.052  0.00  0.00    +0.365 C 
ATOM     15  O   UNL     1       6.907  -0.312  27.369  0.00  0.00    -0.245 OA
BRANCH  14  16
ATOM     16  O   UNL     1       9.150  -0.394  27.725  0.00  0.00    -0.477 OA
ATOM     17  H   UNL     1       8.906  -0.332  28.680  0.00  0.00    +0.295 HD
ENDBRANCH  14  16
ENDBRANCH   4  14
BRANCH   6  18
ATOM     18  O   UNL     1      10.071  -3.186  24.020  0.00  0.00    -0.390 OA
ATOM     19  H   UNL     1       9.322  -3.609  24.503  0.00  0.00    +0.210 HD
ENDBRANCH   6  18
BRANCH   2  20
ATOM     20  C   UNL     1       7.227  -3.983  23.968  0.00  0.00    +0.176 C 
BRANCH  20  21
ATOM     21  O   UNL     1       6.191  -4.314  24.914  0.00  0.00    -0.387 OA
ATOM     22  H   UNL     1       5.370  -3.920  24.558  0.00  0.00    +0.210 HD
ENDBRANCH  20  21
BRANCH  20  23
ATOM     23  C   UNL     1       7.007  -4.802  22.688  0.00  0.00    +0.171 C 
BRANCH  23  24
ATOM     24  O   UNL     1       7.981  -5.850  22.573  0.00  0.00    -0.387 OA
ATOM     25  H   UNL     1       7.621  -6.457  21.891  0.00  0.00    +0.210 HD
ENDBRANCH  23  24
BRANCH  23  26
ATOM     26  C   UNL     1       5.621  -5.463  22.679  0.00  0.00    +0.189 C 
BRANCH  26  27
ATOM     27  O   UNL     1       4.638  -4.457  22.411  0.00  0.00    -0.392 OA
ATOM     28  H   UNL     1       4.462  -4.479  21.454  0.00  0.00    +0.210 HD
ENDBRANCH  26  27
ENDBRANCH  23  26
ENDBRANCH  20  23
ENDBRANCH   2  20
TORSDOF 11
ENDMDL
MODEL 8
REMARK VINA RESULT:      -5.4      2.206      4.842
REMARK  Name = 
REMARK  12 active torsions:
REMARK  status: ('A' for Active; 'I' for Inactive)
REMARK    1  A    between atoms: C_1  and  C_2
REMARK    2  A    between atoms: N_4  and  C_5
REMARK    3  A    between atoms: C_7  and  O_9
REMARK    4  A    between atoms: C_11  and  O_12
REMARK    5  A    between atoms: C_11  and  C_24
REMARK    6  A    between atoms: C_14  and  C_16
REMARK    7  A    between atoms: C_16  and  O_18
REMARK    8  A    between atoms: C_16  and  C_19
REMARK    9  A    between atoms: C_19  and  O_21
REMARK   10  A    between atoms: C_19  and  C_22
REMARK   11  A    between atoms: C_22  and  O_23
REMARK   12  A    between atoms: C_24  and  O_25
REMARK                            x       y       z     vdW  Elec       q    Type
REMARK                         _______ _______ _______ _____ _____    ______ ____
ROOT
ATOM      1  C   UNL     1       8.781  -3.957  24.554  0.00  0.00    +0.133 C 
ATOM      2  C   UNL     1       7.294  -4.238  24.243  0.00  0.00    +0.176 C 
ATOM      3  O   UNL     1       6.500  -4.135  25.452  0.00  0.00    -0.332 OA
ATOM      4  C   UNL     1       6.931  -4.908  26.575  0.00  0.00    +0.270 C 
ATOM      5  C   UNL     1       8.420  -4.767  26.905  0.00  0.00    +0.110 C 
ATOM      6  C   UNL     1       9.272  -4.924  25.651  0.00  0.00    +0.143 C 
ENDROOT
BRANCH   1   9
ATOM      7  C   UNL     1       9.679  -0.254  24.697  0.00  0.00    +0.109 C 
ATOM      8  C   UNL     1       9.689  -1.669  24.172  0.00  0.00    +0.210 C 
ATOM      9  N   UNL     1       8.963  -2.548  24.943  0.00  0.00    -0.308 N 
ATOM     10  H   UNL     1       8.452  -2.191  25.743  0.00  0.00    +0.149 HD
ATOM     11  O   UNL     1      10.280  -1.992  23.149  0.00  0.00    -0.276 OA
ENDBRANCH   1   9
BRANCH   4  12
ATOM     12  O   UNL     1       6.570  -6.286  26.408  0.00  0.00    -0.356 OA
ATOM     13  H   UNL     1       6.984  -6.571  25.565  0.00  0.00    +0.213 HD
ENDBRANCH   4  12
BRANCH   4  14
ATOM     14  C   UNL     1       6.128  -4.415  27.818  0.00  0.00    +0.365 C 
ATOM     15  O   UNL     1       6.084  -4.981  28.903  0.00  0.00    -0.245 OA
BRANCH  14  16
ATOM     16  O   UNL     1       5.463  -3.252  27.565  0.00  0.00    -0.477 OA
ATOM     17  H   UNL     1       4.655  -3.257  28.134  0.00  0.00    +0.295 HD
ENDBRANCH  14  16
ENDBRANCH   4  14
BRANCH   6  18
ATOM     18  O   UNL     1       9.170  -6.292  25.235  0.00  0.00    -0.390 OA
ATOM     19  H   UNL     1       8.302  -6.383  24.777  0.00  0.00    +0.210 HD
ENDBRANCH   6  18
BRANCH   2  20
ATOM     20  C   UNL     1       6.916  -5.541  23.481  0.00  0.00    +0.176 C 
BRANCH  20  21
ATOM     21  O   UNL     1       5.596  -5.928  23.911  0.00  0.00    -0.387 OA
ATOM     22  H   UNL     1       5.473  -6.847  23.602  0.00  0.00    +0.210 HD
ENDBRANCH  20  21
BRANCH  20  23
ATOM     23  C   UNL     1       6.927  -5.444  21.948  0.00  0.00    +0.171 C 
BRANCH  23  24
ATOM     24  O   UNL     1       6.024  -6.396  21.366  0.00  0.00    -0.387 OA
ATOM     25  H   UNL     1       6.601  -7.101  21.000  0.00  0.00    +0.210 HD
ENDBRANCH  23  24
BRANCH  23  26
ATOM     26  C   UNL     1       6.492  -4.051  21.473  0.00  0.00    +0.189 C 
BRANCH  26  27
ATOM     27  O   UNL     1       5.094  -3.894  21.739  0.00  0.00    -0.392 OA
ATOM     28  H   UNL     1       4.620  -4.148  20.927  0.00  0.00    +0.210 HD
ENDBRANCH  26  27
ENDBRANCH  23  26
ENDBRANCH  20  23
ENDBRANCH   2  20
TORSDOF 11
ENDMDL
MODEL 9
REMARK VINA RESULT:      -5.4      1.483      1.709
REMARK  Name = 
REMARK  12 active torsions:
REMARK  status: ('A' for Active; 'I' for Inactive)
REMARK    1  A    between atoms: C_1  and  C_2
REMARK    2  A    between atoms: N_4  and  C_5
REMARK    3  A    between atoms: C_7  and  O_9
REMARK    4  A    between atoms: C_11  and  O_12
REMARK    5  A    between atoms: C_11  and  C_24
REMARK    6  A    between atoms: C_14  and  C_16
REMARK    7  A    between atoms: C_16  and  O_18
REMARK    8  A    between atoms: C_16  and  C_19
REMARK    9  A    between atoms: C_19  and  O_21
REMARK   10  A    between atoms: C_19  and  C_22
REMARK   11  A    between atoms: C_22  and  O_23
REMARK   12  A    between atoms: C_24  and  O_25
REMARK                            x       y       z     vdW  Elec       q    Type
REMARK                         _______ _______ _______ _____ _____    ______ ____
ROOT
ATOM      1  C   UNL     1       6.294  -3.126  23.420  0.00  0.00    +0.133 C 
ATOM      2  C   UNL     1       7.628  -2.737  24.097  0.00  0.00    +0.176 C 
ATOM      3  O   UNL     1       7.892  -3.611  25.224  0.00  0.00    -0.332 OA
ATOM      4  C   UNL     1       6.854  -3.738  26.199  0.00  0.00    +0.270 C 
ATOM      5  C   UNL     1       5.470  -4.032  25.613  0.00  0.00    +0.110 C 
ATOM      6  C   UNL     1       5.156  -3.088  24.460  0.00  0.00    +0.143 C 
ENDROOT
BRANCH   1   9
ATOM      7  C   UNL     1       6.369  -6.056  20.981  0.00  0.00    +0.109 C 
ATOM      8  C   UNL     1       6.092  -4.653  21.462  0.00  0.00    +0.210 C 
ATOM      9  N   UNL     1       6.412  -4.450  22.785  0.00  0.00    -0.308 N 
ATOM     10  H   UNL     1       6.842  -5.207  23.306  0.00  0.00    +0.149 HD
ATOM     11  O   UNL     1       5.636  -3.780  20.733  0.00  0.00    -0.276 OA
ENDBRANCH   1   9
BRANCH   4  12
ATOM     12  O   UNL     1       6.817  -2.583  27.051  0.00  0.00    -0.356 OA
ATOM     13  H   UNL     1       7.003  -2.913  27.956  0.00  0.00    +0.213 HD
ENDBRANCH   4  12
BRANCH   4  14
ATOM     14  C   UNL     1       7.231  -4.930  27.131  0.00  0.00    +0.365 C 
ATOM     15  O   UNL     1       6.709  -5.179  28.210  0.00  0.00    -0.245 OA
BRANCH  14  16
ATOM     16  O   UNL     1       8.230  -5.693  26.602  0.00  0.00    -0.477 OA
ATOM     17  H   UNL     1       7.797  -6.358  26.014  0.00  0.00    +0.295 HD
ENDBRANCH  14  16
ENDBRANCH   4  14
BRANCH   6  18
ATOM     18  O   UNL     1       4.989  -1.776  25.015  0.00  0.00    -0.390 OA
ATOM     19  H   UNL     1       5.416  -1.792  25.904  0.00  0.00    +0.210 HD
ENDBRANCH   6  18
BRANCH   2  20
ATOM     20  C   UNL     1       7.855  -1.257  24.520  0.00  0.00    +0.176 C 
BRANCH  20  21
ATOM     21  O   UNL     1       9.144  -1.181  25.158  0.00  0.00    -0.387 OA
ATOM     22  H   UNL     1       9.754  -0.818  24.486  0.00  0.00    +0.210 HD
ENDBRANCH  20  21
BRANCH  20  23
ATOM     23  C   UNL     1       7.805  -0.224  23.384  0.00  0.00    +0.171 C 
BRANCH  23  24
ATOM     24  O   UNL     1       6.478   0.301  23.224  0.00  0.00    -0.387 OA
ATOM     25  H   UNL     1       6.574   1.039  22.585  0.00  0.00    +0.210 HD
ENDBRANCH  23  24
BRANCH  23  26
ATOM     26  C   UNL     1       8.735   0.963  23.668  0.00  0.00    +0.189 C 
BRANCH  26  27
ATOM     27  O   UNL     1      10.013   0.693  23.080  0.00  0.00    -0.392 OA
ATOM     28  H   UNL     1       9.862   0.066  22.350  0.00  0.00    +0.210 HD
ENDBRANCH  26  27
ENDBRANCH  23  26
ENDBRANCH  20  23
ENDBRANCH   2  20
TORSDOF 11
ENDMDL
