MODEL 1
REMARK VINA RESULT:      -7.7      0.000      0.000
REMARK  Name = 
REMARK  6 active torsions:
REMARK  status: ('A' for Active; 'I' for Inactive)
REMARK    1  A    between atoms: C_2  and  N_25
REMARK    2  A    between atoms: N_5  and  C_6
REMARK    3  A    between atoms: C_6  and  C_7
REMARK    4  A    between atoms: N_9  and  C_10
REMARK    5  A    between atoms: C_14  and  N_17
REMARK    6  A    between atoms: C_26  and  C_28
REMARK                            x       y       z     vdW  Elec       q    Type
REMARK                         _______ _______ _______ _____ _____    ______ ____
ROOT
ATOM      1  C   UNL     1       7.857  -2.236  22.876  0.00  0.00    +0.231 C 
ATOM      2  N   UNL     1       9.126  -1.773  22.585  0.00  0.00    -0.282 N 
ATOM      3  H   UNL     1       9.695  -2.379  22.000  0.00  0.00    +0.155 HD
ATOM      4  O   UNL     1       6.904  -1.527  23.192  0.00  0.00    -0.274 OA
ENDROOT
BRANCH   2   5
ATOM      5  C   UNL     1       9.538  -0.444  22.757  0.00  0.00    +0.069 A 
ATOM      6  C   UNL     1       9.455   0.488  21.722  0.00  0.00    +0.028 A 
ATOM      7  C   UNL     1       9.793   1.822  21.967  0.00  0.00    +0.028 A 
ATOM      8  C   UNL     1      10.294   2.210  23.217  0.00  0.00    +0.052 A 
ATOM      9  C   UNL     1      10.422   1.262  24.236  0.00  0.00    +0.066 A 
ATOM     10  C   UNL     1       9.987  -0.039  24.013  0.00  0.00    +0.146 A 
ATOM     11  F   UNL     1      10.049  -0.929  25.017  0.00  0.00    -0.203 F 
BRANCH   8  12
ATOM     12  N   UNL     1      10.643   3.569  23.460  0.00  0.00    -0.284 N 
ATOM     13  C   UNL     1       9.622   4.454  23.851  0.00  0.00    +0.256 A 
ATOM     14  O   UNL     1       8.437   4.167  24.013  0.00  0.00    -0.267 OA
ATOM     15  C   UNL     1      10.050   5.852  24.143  0.00  0.00    +0.071 A 
ATOM     16  C   UNL     1      11.326   6.220  23.987  0.00  0.00    +0.007 A 
ATOM     17  C   UNL     1      12.310   5.268  23.545  0.00  0.00    +0.018 A 
ATOM     18  C   UNL     1      11.958   3.996  23.323  0.00  0.00    +0.095 A 
ENDBRANCH   8  12
ENDBRANCH   2   5
BRANCH   1  19
ATOM     19  C   UNL     1       7.707  -3.749  22.678  0.00  0.00    +0.180 C 
BRANCH  19  22
ATOM     20  C   UNL     1       7.323  -3.507  26.150  0.00  0.00    +0.088 C 
ATOM     21  C   UNL     1       6.701  -4.094  24.874  0.00  0.00    +0.107 C 
ATOM     22  N   UNL     1       7.808  -4.466  23.969  0.00  0.00    -0.292 NA
ATOM     23  C   UNL     1       9.072  -4.147  24.656  0.00  0.00    +0.087 C 
ATOM     24  C   UNL     1       8.733  -4.079  26.133  0.00  0.00    +0.039 C 
BRANCH  20  25
ATOM     25  N   UNL     1       7.331  -2.048  26.160  0.00  0.00    -0.307 N 
ATOM     26  H   UNL     1       8.165  -1.561  25.864  0.00  0.00    +0.149 HD
ATOM     27  C   UNL     1       6.395  -1.318  26.861  0.00  0.00    +0.251 C 
ATOM     28  O   UNL     1       5.415  -1.864  27.367  0.00  0.00    -0.270 OA
BRANCH  27  29
ATOM     29  C   UNL     1       6.651   0.108  26.972  0.00  0.00    +0.075 A 
ATOM     30  S   UNL     1       6.445   0.969  28.445  0.00  0.00    -0.072 S 
ATOM     31  C   UNL     1       6.840   2.437  27.707  0.00  0.00    +0.079 A 
ATOM     32 CL   UNL     1       6.803   3.888  28.624  0.00  0.00    -0.076 Cl
ATOM     33  C   UNL     1       7.163   2.315  26.382  0.00  0.00    +0.028 A 
ATOM     34  C   UNL     1       7.055   0.958  25.954  0.00  0.00    +0.022 A 
ENDBRANCH  27  29
ENDBRANCH  20  25
ENDBRANCH  19  22
ENDBRANCH   1  19
TORSDOF 6
ENDMDL
MODEL 2
REMARK VINA RESULT:      -7.2      2.923      4.508
REMARK  Name = 
REMARK  6 active torsions:
REMARK  status: ('A' for Active; 'I' for Inactive)
REMARK    1  A    between atoms: C_2  and  N_25
REMARK    2  A    between atoms: N_5  and  C_6
REMARK    3  A    between atoms: C_6  and  C_7
REMARK    4  A    between atoms: N_9  and  C_10
REMARK    5  A    between atoms: C_14  and  N_17
REMARK    6  A    between atoms: C_26  and  C_28
REMARK                            x       y       z     vdW  Elec       q    Type
REMARK                         _______ _______ _______ _____ _____    ______ ____
ROOT
ATOM      1  C   UNL     1       5.879  -1.432  25.974  0.00  0.00    +0.231 C 
ATOM      2  N   UNL     1       6.904  -0.534  25.745  0.00  0.00    -0.282 N 
ATOM      3  H   UNL     1       7.845  -0.912  25.801  0.00  0.00    +0.155 HD
ATOM      4  O   UNL     1       4.726  -1.305  25.567  0.00  0.00    -0.274 OA
ENDROOT
BRANCH   2   5
ATOM      5  C   UNL     1       6.731   0.720  25.143  0.00  0.00    +0.069 A 
ATOM      6  C   UNL     1       6.747   1.899  25.889  0.00  0.00    +0.028 A 
ATOM      7  C   UNL     1       6.660   3.131  25.235  0.00  0.00    +0.028 A 
ATOM      8  C   UNL     1       6.472   3.186  23.846  0.00  0.00    +0.052 A 
ATOM      9  C   UNL     1       6.406   2.000  23.109  0.00  0.00    +0.066 A 
ATOM     10  C   UNL     1       6.596   0.786  23.757  0.00  0.00    +0.146 A 
ATOM     11  F   UNL     1       6.601  -0.346  23.033  0.00  0.00    -0.203 F 
BRANCH   8  12
ATOM     12  N   UNL     1       6.377   4.443  23.184  0.00  0.00    -0.284 N 
ATOM     13  C   UNL     1       5.127   5.087  23.164  0.00  0.00    +0.256 A 
ATOM     14  O   UNL     1       4.089   4.670  23.675  0.00  0.00    -0.267 OA
ATOM     15  C   UNL     1       5.094   6.423  22.504  0.00  0.00    +0.071 A 
ATOM     16  C   UNL     1       6.194   6.928  21.934  0.00  0.00    +0.007 A 
ATOM     17  C   UNL     1       7.430   6.193  21.958  0.00  0.00    +0.018 A 
ATOM     18  C   UNL     1       7.495   5.013  22.588  0.00  0.00    +0.095 A 
ENDBRANCH   8  12
ENDBRANCH   2   5
BRANCH   1  19
ATOM     19  C   UNL     1       6.335  -2.688  26.726  0.00  0.00    +0.180 C 
BRANCH  19  22
ATOM     20  C   UNL     1       8.887  -3.307  24.410  0.00  0.00    +0.088 C 
ATOM     21  C   UNL     1       8.401  -3.627  25.831  0.00  0.00    +0.107 C 
ATOM     22  N   UNL     1       6.926  -3.678  25.798  0.00  0.00    -0.292 NA
ATOM     23  C   UNL     1       6.502  -3.423  24.409  0.00  0.00    +0.087 C 
ATOM     24  C   UNL     1       7.710  -3.735  23.546  0.00  0.00    +0.039 C 
BRANCH  20  25
ATOM     25  N   UNL     1       9.211  -1.896  24.223  0.00  0.00    -0.307 N 
ATOM     26  H   UNL     1       8.623  -1.198  24.656  0.00  0.00    +0.149 HD
ATOM     27  C   UNL     1      10.062  -1.469  23.227  0.00  0.00    +0.251 C 
ATOM     28  O   UNL     1      10.716  -2.273  22.563  0.00  0.00    -0.270 OA
BRANCH  27  29
ATOM     29  C   UNL     1      10.119  -0.033  23.010  0.00  0.00    +0.075 A 
ATOM     30  S   UNL     1      10.561   1.070  24.252  0.00  0.00    -0.072 S 
ATOM     31  C   UNL     1      10.299   2.399  23.242  0.00  0.00    +0.079 A 
ATOM     32 CL   UNL     1      10.513   3.989  23.855  0.00  0.00    -0.076 Cl
ATOM     33  C   UNL     1       9.920   2.056  21.972  0.00  0.00    +0.028 A 
ATOM     34  C   UNL     1       9.817   0.639  21.836  0.00  0.00    +0.022 A 
ENDBRANCH  27  29
ENDBRANCH  20  25
ENDBRANCH  19  22
ENDBRANCH   1  19
TORSDOF 6
ENDMDL
MODEL 3
REMARK VINA RESULT:      -7.1      3.566      4.846
REMARK  Name = 
REMARK  6 active torsions:
REMARK  status: ('A' for Active; 'I' for Inactive)
REMARK    1  A    between atoms: C_2  and  N_25
REMARK    2  A    between atoms: N_5  and  C_6
REMARK    3  A    between atoms: C_6  and  C_7
REMARK    4  A    between atoms: N_9  and  C_10
REMARK    5  A    between atoms: C_14  and  N_17
REMARK    6  A    between atoms: C_26  and  C_28
REMARK                            x       y       z     vdW  Elec       q    Type
REMARK                         _______ _______ _______ _____ _____    ______ ____
ROOT
ATOM      1  C   UNL     1       8.303  -2.476  23.748  0.00  0.00    +0.231 C 
ATOM      2  N   UNL     1       9.329  -1.894  23.029  0.00  0.00    -0.282 N 
ATOM      3  H   UNL     1       9.680  -2.433  22.243  0.00  0.00    +0.155 HD
ATOM      4  O   UNL     1       7.488  -1.864  24.435  0.00  0.00    -0.274 OA
ENDROOT
BRANCH   2   5
ATOM      5  C   UNL     1       9.672  -0.537  23.105  0.00  0.00    +0.069 A 
ATOM      6  C   UNL     1       9.531   0.317  22.011  0.00  0.00    +0.028 A 
ATOM      7  C   UNL     1       9.801   1.680  22.160  0.00  0.00    +0.028 A 
ATOM      8  C   UNL     1      10.292   2.178  23.375  0.00  0.00    +0.052 A 
ATOM      9  C   UNL     1      10.480   1.310  24.454  0.00  0.00    +0.066 A 
ATOM     10  C   UNL     1      10.112  -0.024  24.325  0.00  0.00    +0.146 A 
ATOM     11  F   UNL     1      10.229  -0.839  25.386  0.00  0.00    -0.203 F 
BRANCH   8  12
ATOM     12  N   UNL     1      10.572   3.566  23.521  0.00  0.00    -0.284 N 
ATOM     13  C   UNL     1       9.525   4.412  23.929  0.00  0.00    +0.256 A 
ATOM     14  O   UNL     1       8.372   4.068  24.182  0.00  0.00    -0.267 OA
ATOM     15  C   UNL     1       9.884   5.847  24.116  0.00  0.00    +0.071 A 
ATOM     16  C   UNL     1      11.123   6.278  23.858  0.00  0.00    +0.007 A 
ATOM     17  C   UNL     1      12.134   5.361  23.405  0.00  0.00    +0.018 A 
ATOM     18  C   UNL     1      11.848   4.060  23.276  0.00  0.00    +0.095 A 
ENDBRANCH   8  12
ENDBRANCH   2   5
BRANCH   1  19
ATOM     19  C   UNL     1       8.205  -3.992  23.540  0.00  0.00    +0.180 C 
BRANCH  19  22
ATOM     20  C   UNL     1       5.039  -4.777  22.268  0.00  0.00    +0.088 C 
ATOM     21  C   UNL     1       6.097  -3.667  22.357  0.00  0.00    +0.107 C 
ATOM     22  N   UNL     1       7.425  -4.312  22.324  0.00  0.00    -0.292 NA
ATOM     23  C   UNL     1       7.212  -5.765  22.196  0.00  0.00    +0.087 C 
ATOM     24  C   UNL     1       5.810  -5.928  21.640  0.00  0.00    +0.039 C 
BRANCH  20  25
ATOM     25  N   UNL     1       4.485  -5.142  23.568  0.00  0.00    -0.307 N 
ATOM     26  H   UNL     1       5.116  -5.313  24.338  0.00  0.00    +0.149 HD
ATOM     27  C   UNL     1       3.188  -5.585  23.710  0.00  0.00    +0.251 C 
ATOM     28  O   UNL     1       2.393  -5.530  22.771  0.00  0.00    -0.270 OA
BRANCH  27  29
ATOM     29  C   UNL     1       2.838  -6.126  25.012  0.00  0.00    +0.075 A 
ATOM     30  S   UNL     1       3.776  -5.819  26.419  0.00  0.00    -0.072 S 
ATOM     31  C   UNL     1       2.786  -6.811  27.363  0.00  0.00    +0.079 A 
ATOM     32 CL   UNL     1       3.158  -7.054  29.022  0.00  0.00    -0.076 Cl
ATOM     33  C   UNL     1       1.736  -7.354  26.673  0.00  0.00    +0.028 A 
ATOM     34  C   UNL     1       1.765  -6.953  25.303  0.00  0.00    +0.022 A 
ENDBRANCH  27  29
ENDBRANCH  20  25
ENDBRANCH  19  22
ENDBRANCH   1  19
TORSDOF 6
ENDMDL
MODEL 4
REMARK VINA RESULT:      -7.0      3.996      5.197
REMARK  Name = 
REMARK  6 active torsions:
REMARK  status: ('A' for Active; 'I' for Inactive)
REMARK    1  A    between atoms: C_2  and  N_25
REMARK    2  A    between atoms: N_5  and  C_6
REMARK    3  A    between atoms: C_6  and  C_7
REMARK    4  A    between atoms: N_9  and  C_10
REMARK    5  A    between atoms: C_14  and  N_17
REMARK    6  A    between atoms: C_26  and  C_28
REMARK                            x       y       z     vdW  Elec       q    Type
REMARK                         _______ _______ _______ _____ _____    ______ ____
ROOT
ATOM      1  C   UNL     1       8.843  -2.403  23.842  0.00  0.00    +0.231 C 
ATOM      2  N   UNL     1       9.596  -1.347  24.319  0.00  0.00    -0.282 N 
ATOM      3  H   UNL     1      10.525  -1.582  24.655  0.00  0.00    +0.155 HD
ATOM      4  O   UNL     1       7.913  -2.302  23.045  0.00  0.00    -0.274 OA
ENDROOT
BRANCH   2   5
ATOM      5  C   UNL     1       9.305   0.002  24.073  0.00  0.00    +0.069 A 
ATOM      6  C   UNL     1       8.630   0.788  25.006  0.00  0.00    +0.028 A 
ATOM      7  C   UNL     1       8.441   2.149  24.755  0.00  0.00    +0.028 A 
ATOM      8  C   UNL     1       8.849   2.710  23.536  0.00  0.00    +0.052 A 
ATOM      9  C   UNL     1       9.480   1.906  22.581  0.00  0.00    +0.066 A 
ATOM     10  C   UNL     1       9.753   0.578  22.885  0.00  0.00    +0.146 A 
ATOM     11  F   UNL     1      10.421  -0.171  21.992  0.00  0.00    -0.203 F 
BRANCH   8  12
ATOM     12  N   UNL     1       8.648   4.096  23.280  0.00  0.00    -0.284 N 
ATOM     13  C   UNL     1       7.506   4.475  22.553  0.00  0.00    +0.256 A 
ATOM     14  O   UNL     1       6.643   3.719  22.112  0.00  0.00    -0.267 OA
ATOM     15  C   UNL     1       7.317   5.941  22.358  0.00  0.00    +0.071 A 
ATOM     16  C   UNL     1       8.222   6.812  22.818  0.00  0.00    +0.007 A 
ATOM     17  C   UNL     1       9.389   6.347  23.519  0.00  0.00    +0.018 A 
ATOM     18  C   UNL     1       9.555   5.039  23.749  0.00  0.00    +0.095 A 
ENDBRANCH   8  12
ENDBRANCH   2   5
BRANCH   1  19
ATOM     19  C   UNL     1       9.337  -3.767  24.336  0.00  0.00    +0.180 C 
BRANCH  19  22
ATOM     20  C   UNL     1       7.236  -5.372  26.632  0.00  0.00    +0.088 C 
ATOM     21  C   UNL     1       8.657  -5.365  26.050  0.00  0.00    +0.107 C 
ATOM     22  N   UNL     1       9.017  -3.961  25.769  0.00  0.00    -0.292 NA
ATOM     23  C   UNL     1       7.879  -3.118  26.177  0.00  0.00    +0.087 C 
ATOM     24  C   UNL     1       7.079  -3.954  27.159  0.00  0.00    +0.039 C 
BRANCH  20  25
ATOM     25  N   UNL     1       6.215  -5.697  25.640  0.00  0.00    -0.307 N 
ATOM     26  H   UNL     1       6.151  -5.135  24.803  0.00  0.00    +0.149 HD
ATOM     27  C   UNL     1       5.139  -6.503  25.937  0.00  0.00    +0.251 C 
ATOM     28  O   UNL     1       5.083  -7.120  27.001  0.00  0.00    -0.270 OA
BRANCH  27  29
ATOM     29  C   UNL     1       4.088  -6.560  24.935  0.00  0.00    +0.075 A 
ATOM     30  S   UNL     1       2.895  -7.797  24.920  0.00  0.00    -0.072 S 
ATOM     31  C   UNL     1       2.204  -7.191  23.502  0.00  0.00    +0.079 A 
ATOM     32 CL   UNL     1       0.869  -8.003  22.790  0.00  0.00    -0.076 Cl
ATOM     33  C   UNL     1       2.813  -6.055  23.038  0.00  0.00    +0.028 A 
ATOM     34  C   UNL     1       3.909  -5.687  23.874  0.00  0.00    +0.022 A 
ENDBRANCH  27  29
ENDBRANCH  20  25
ENDBRANCH  19  22
ENDBRANCH   1  19
TORSDOF 6
ENDMDL
MODEL 5
REMARK VINA RESULT:      -7.0      2.581      4.259
REMARK  Name = 
REMARK  6 active torsions:
REMARK  status: ('A' for Active; 'I' for Inactive)
REMARK    1  A    between atoms: C_2  and  N_25
REMARK    2  A    between atoms: N_5  and  C_6
REMARK    3  A    between atoms: C_6  and  C_7
REMARK    4  A    between atoms: N_9  and  C_10
REMARK    5  A    between atoms: C_14  and  N_17
REMARK    6  A    between atoms: C_26  and  C_28
REMARK                            x       y       z     vdW  Elec       q    Type
REMARK                         _______ _______ _______ _____ _____    ______ ____
ROOT
ATOM      1  C   UNL     1       7.216  -2.393  26.345  0.00  0.00    +0.231 C 
ATOM      2  N   UNL     1       6.259  -1.512  25.878  0.00  0.00    -0.282 N 
ATOM      3  H   UNL     1       5.294  -1.765  26.069  0.00  0.00    +0.155 HD
ATOM      4  O   UNL     1       8.385  -2.100  26.586  0.00  0.00    -0.274 OA
ENDROOT
BRANCH   2   5
ATOM      5  C   UNL     1       6.530  -0.198  25.474  0.00  0.00    +0.069 A 
ATOM      6  C   UNL     1       6.936   0.780  26.382  0.00  0.00    +0.028 A 
ATOM      7  C   UNL     1       7.281   2.052  25.919  0.00  0.00    +0.028 A 
ATOM      8  C   UNL     1       7.140   2.376  24.562  0.00  0.00    +0.052 A 
ATOM      9  C   UNL     1       6.685   1.408  23.662  0.00  0.00    +0.066 A 
ATOM     10  C   UNL     1       6.442   0.118  24.118  0.00  0.00    +0.146 A 
ATOM     11  F   UNL     1       6.071  -0.826  23.238  0.00  0.00    -0.203 F 
BRANCH   8  12
ATOM     12  N   UNL     1       7.487   3.676  24.095  0.00  0.00    -0.284 N 
ATOM     13  C   UNL     1       7.263   3.972  22.738  0.00  0.00    +0.256 A 
ATOM     14  O   UNL     1       6.785   3.210  21.900  0.00  0.00    -0.267 OA
ATOM     15  C   UNL     1       7.595   5.362  22.313  0.00  0.00    +0.071 A 
ATOM     16  C   UNL     1       8.115   6.234  23.182  0.00  0.00    +0.007 A 
ATOM     17  C   UNL     1       8.354   5.848  24.547  0.00  0.00    +0.018 A 
ATOM     18  C   UNL     1       8.019   4.620  24.964  0.00  0.00    +0.095 A 
ENDBRANCH   8  12
ENDBRANCH   2   5
BRANCH   1  19
ATOM     19  C   UNL     1       6.659  -3.792  26.633  0.00  0.00    +0.180 C 
BRANCH  19  22
ATOM     20  C   UNL     1       8.019  -4.143  23.426  0.00  0.00    +0.088 C 
ATOM     21  C   UNL     1       8.118  -4.645  24.873  0.00  0.00    +0.107 C 
ATOM     22  N   UNL     1       6.752  -4.657  25.435  0.00  0.00    -0.292 NA
ATOM     23  C   UNL     1       5.831  -4.202  24.378  0.00  0.00    +0.087 C 
ATOM     24  C   UNL     1       6.566  -4.419  23.069  0.00  0.00    +0.039 C 
BRANCH  20  25
ATOM     25  N   UNL     1       8.350  -2.727  23.290  0.00  0.00    -0.307 N 
ATOM     26  H   UNL     1       7.667  -2.103  22.885  0.00  0.00    +0.149 HD
ATOM     27  C   UNL     1       9.646  -2.269  23.375  0.00  0.00    +0.251 C 
ATOM     28  O   UNL     1      10.559  -3.012  23.736  0.00  0.00    -0.270 OA
BRANCH  27  29
ATOM     29  C   UNL     1       9.858  -0.882  22.999  0.00  0.00    +0.075 A 
ATOM     30  S   UNL     1      10.568   0.264  24.066  0.00  0.00    -0.072 S 
ATOM     31  C   UNL     1      10.365   1.515  22.948  0.00  0.00    +0.079 A 
ATOM     32 CL   UNL     1      10.841   3.112  23.361  0.00  0.00    -0.076 Cl
ATOM     33  C   UNL     1       9.809   1.107  21.765  0.00  0.00    +0.028 A 
ATOM     34  C   UNL     1       9.515  -0.289  21.794  0.00  0.00    +0.022 A 
ENDBRANCH  27  29
ENDBRANCH  20  25
ENDBRANCH  19  22
ENDBRANCH   1  19
TORSDOF 6
ENDMDL
MODEL 6
REMARK VINA RESULT:      -6.9      3.890      8.492
REMARK  Name = 
REMARK  6 active torsions:
REMARK  status: ('A' for Active; 'I' for Inactive)
REMARK    1  A    between atoms: C_2  and  N_25
REMARK    2  A    between atoms: N_5  and  C_6
REMARK    3  A    between atoms: C_6  and  C_7
REMARK    4  A    between atoms: N_9  and  C_10
REMARK    5  A    between atoms: C_14  and  N_17
REMARK    6  A    between atoms: C_26  and  C_28
REMARK                            x       y       z     vdW  Elec       q    Type
REMARK                         _______ _______ _______ _____ _____    ______ ____
ROOT
ATOM      1  C   UNL     1       8.694  -2.717  22.875  0.00  0.00    +0.231 C 
ATOM      2  N   UNL     1       7.488  -2.827  22.211  0.00  0.00    -0.282 N 
ATOM      3  H   UNL     1       7.453  -2.412  21.285  0.00  0.00    +0.155 HD
ATOM      4  O   UNL     1       9.075  -3.464  23.774  0.00  0.00    -0.274 OA
ENDROOT
BRANCH   2   5
ATOM      5  C   UNL     1       6.467  -3.716  22.575  0.00  0.00    +0.069 A 
ATOM      6  C   UNL     1       5.424  -3.330  23.417  0.00  0.00    +0.028 A 
ATOM      7  C   UNL     1       4.382  -4.223  23.680  0.00  0.00    +0.028 A 
ATOM      8  C   UNL     1       4.422  -5.530  23.173  0.00  0.00    +0.052 A 
ATOM      9  C   UNL     1       5.495  -5.929  22.371  0.00  0.00    +0.066 A 
ATOM     10  C   UNL     1       6.473  -5.001  22.033  0.00  0.00    +0.146 A 
ATOM     11  F   UNL     1       7.465  -5.370  21.206  0.00  0.00    -0.203 F 
BRANCH   8  12
ATOM     12  N   UNL     1       3.362  -6.439  23.449  0.00  0.00    -0.284 N 
ATOM     13  C   UNL     1       3.545  -7.373  24.485  0.00  0.00    +0.256 A 
ATOM     14  O   UNL     1       4.543  -7.483  25.193  0.00  0.00    -0.267 OA
ATOM     15  C   UNL     1       2.385  -8.267  24.766  0.00  0.00    +0.071 A 
ATOM     16  C   UNL     1       1.272  -8.190  24.029  0.00  0.00    +0.007 A 
ATOM     17  C   UNL     1       1.171  -7.235  22.958  0.00  0.00    +0.018 A 
ATOM     18  C   UNL     1       2.181  -6.390  22.718  0.00  0.00    +0.095 A 
ENDBRANCH   8  12
ENDBRANCH   2   5
BRANCH   1  19
ATOM     19  C   UNL     1       9.590  -1.604  22.320  0.00  0.00    +0.180 C 
BRANCH  19  22
ATOM     20  C   UNL     1       9.054  -0.390  25.560  0.00  0.00    +0.088 C 
ATOM     21  C   UNL     1      10.134  -0.654  24.500  0.00  0.00    +0.107 C 
ATOM     22  N   UNL     1       9.531  -0.398  23.176  0.00  0.00    -0.292 NA
ATOM     23  C   UNL     1       8.139   0.031  23.395  0.00  0.00    +0.087 C 
ATOM     24  C   UNL     1       8.079   0.522  24.829  0.00  0.00    +0.039 C 
BRANCH  20  25
ATOM     25  N   UNL     1       8.405  -1.610  26.029  0.00  0.00    -0.307 N 
ATOM     26  H   UNL     1       8.708  -2.499  25.657  0.00  0.00    +0.149 HD
ATOM     27  C   UNL     1       7.196  -1.586  26.689  0.00  0.00    +0.251 C 
ATOM     28  O   UNL     1       6.697  -0.524  27.060  0.00  0.00    -0.270 OA
BRANCH  27  29
ATOM     29  C   UNL     1       6.558  -2.875  26.898  0.00  0.00    +0.075 A 
ATOM     30  S   UNL     1       4.932  -3.021  27.436  0.00  0.00    -0.072 S 
ATOM     31  C   UNL     1       5.041  -4.707  27.484  0.00  0.00    +0.079 A 
ATOM     32 CL   UNL     1       3.697  -5.632  28.019  0.00  0.00    -0.076 Cl
ATOM     33  C   UNL     1       6.255  -5.190  27.074  0.00  0.00    +0.028 A 
ATOM     34  C   UNL     1       7.138  -4.122  26.731  0.00  0.00    +0.022 A 
ENDBRANCH  27  29
ENDBRANCH  20  25
ENDBRANCH  19  22
ENDBRANCH   1  19
TORSDOF 6
ENDMDL
MODEL 7
REMARK VINA RESULT:      -6.8      3.109      5.046
REMARK  Name = 
REMARK  6 active torsions:
REMARK  status: ('A' for Active; 'I' for Inactive)
REMARK    1  A    between atoms: C_2  and  N_25
REMARK    2  A    between atoms: N_5  and  C_6
REMARK    3  A    between atoms: C_6  and  C_7
REMARK    4  A    between atoms: N_9  and  C_10
REMARK    5  A    between atoms: C_14  and  N_17
REMARK    6  A    between atoms: C_26  and  C_28
REMARK                            x       y       z     vdW  Elec       q    Type
REMARK                         _______ _______ _______ _____ _____    ______ ____
ROOT
ATOM      1  C   UNL     1       5.237  -3.369  27.262  0.00  0.00    +0.231 C 
ATOM      2  N   UNL     1       4.784  -2.146  26.804  0.00  0.00    -0.282 N 
ATOM      3  H   UNL     1       3.833  -1.900  27.063  0.00  0.00    +0.155 HD
ATOM      4  O   UNL     1       6.418  -3.669  27.421  0.00  0.00    -0.274 OA
ENDROOT
BRANCH   2   5
ATOM      5  C   UNL     1       5.619  -1.131  26.315  0.00  0.00    +0.069 A 
ATOM      6  C   UNL     1       6.243  -0.221  27.168  0.00  0.00    +0.028 A 
ATOM      7  C   UNL     1       7.136   0.716  26.643  0.00  0.00    +0.028 A 
ATOM      8  C   UNL     1       7.343   0.803  25.259  0.00  0.00    +0.052 A 
ATOM      9  C   UNL     1       6.677  -0.079  24.403  0.00  0.00    +0.066 A 
ATOM     10  C   UNL     1       5.870  -1.073  24.945  0.00  0.00    +0.146 A 
ATOM     11  F   UNL     1       5.287  -1.961  24.122  0.00  0.00    -0.203 F 
BRANCH   8  12
ATOM     12  N   UNL     1       8.249   1.763  24.727  0.00  0.00    -0.284 N 
ATOM     13  C   UNL     1       7.760   3.054  24.457  0.00  0.00    +0.256 A 
ATOM     14  O   UNL     1       6.610   3.447  24.642  0.00  0.00    -0.267 OA
ATOM     15  C   UNL     1       8.761   4.036  23.950  0.00  0.00    +0.071 A 
ATOM     16  C   UNL     1      10.028   3.666  23.732  0.00  0.00    +0.007 A 
ATOM     17  C   UNL     1      10.448   2.315  23.993  0.00  0.00    +0.018 A 
ATOM     18  C   UNL     1       9.578   1.429  24.495  0.00  0.00    +0.095 A 
ENDBRANCH   8  12
ENDBRANCH   2   5
BRANCH   1  19
ATOM     19  C   UNL     1       4.103  -4.322  27.656  0.00  0.00    +0.180 C 
BRANCH  19  22
ATOM     20  C   UNL     1       5.413  -5.918  24.828  0.00  0.00    +0.088 C 
ATOM     21  C   UNL     1       5.052  -6.119  26.307  0.00  0.00    +0.107 C 
ATOM     22  N   UNL     1       3.847  -5.313  26.586  0.00  0.00    -0.292 NA
ATOM     23  C   UNL     1       3.453  -4.650  25.330  0.00  0.00    +0.087 C 
ATOM     24  C   UNL     1       4.098  -5.457  24.219  0.00  0.00    +0.039 C 
BRANCH  20  25
ATOM     25  N   UNL     1       6.475  -4.936  24.629  0.00  0.00    -0.307 N 
ATOM     26  H   UNL     1       6.496  -4.113  25.215  0.00  0.00    +0.149 HD
ATOM     27  C   UNL     1       7.239  -4.909  23.483  0.00  0.00    +0.251 C 
ATOM     28  O   UNL     1       7.170  -5.817  22.654  0.00  0.00    -0.270 OA
BRANCH  27  29
ATOM     29  C   UNL     1       8.100  -3.751  23.317  0.00  0.00    +0.075 A 
ATOM     30  S   UNL     1       7.940  -2.666  21.994  0.00  0.00    -0.072 S 
ATOM     31  C   UNL     1       9.272  -1.759  22.504  0.00  0.00    +0.079 A 
ATOM     32 CL   UNL     1       9.795  -0.415  21.572  0.00  0.00    -0.076 Cl
ATOM     33  C   UNL     1       9.831  -2.214  23.668  0.00  0.00    +0.028 A 
ATOM     34  C   UNL     1       9.147  -3.373  24.143  0.00  0.00    +0.022 A 
ENDBRANCH  27  29
ENDBRANCH  20  25
ENDBRANCH  19  22
ENDBRANCH   1  19
TORSDOF 6
ENDMDL
MODEL 8
REMARK VINA RESULT:      -6.6      3.454      8.200
REMARK  Name = 
REMARK  6 active torsions:
REMARK  status: ('A' for Active; 'I' for Inactive)
REMARK    1  A    between atoms: C_2  and  N_25
REMARK    2  A    between atoms: N_5  and  C_6
REMARK    3  A    between atoms: C_6  and  C_7
REMARK    4  A    between atoms: N_9  and  C_10
REMARK    5  A    between atoms: C_14  and  N_17
REMARK    6  A    between atoms: C_26  and  C_28
REMARK                            x       y       z     vdW  Elec       q    Type
REMARK                         _______ _______ _______ _____ _____    ______ ____
ROOT
ATOM      1  C   UNL     1       7.425   1.184  25.228  0.00  0.00    +0.231 C 
ATOM      2  N   UNL     1       7.675   0.373  26.318  0.00  0.00    -0.282 N 
ATOM      3  H   UNL     1       8.215   0.793  27.069  0.00  0.00    +0.155 HD
ATOM      4  O   UNL     1       6.494   1.039  24.440  0.00  0.00    -0.274 OA
ENDROOT
BRANCH   2   5
ATOM      5  C   UNL     1       6.985  -0.817  26.588  0.00  0.00    +0.069 A 
ATOM      6  C   UNL     1       5.727  -0.815  27.191  0.00  0.00    +0.028 A 
ATOM      7  C   UNL     1       5.039  -2.019  27.358  0.00  0.00    +0.028 A 
ATOM      8  C   UNL     1       5.639  -3.235  27.002  0.00  0.00    +0.052 A 
ATOM      9  C   UNL     1       6.921  -3.238  26.444  0.00  0.00    +0.066 A 
ATOM     10  C   UNL     1       7.553  -2.027  26.189  0.00  0.00    +0.146 A 
ATOM     11  F   UNL     1       8.755  -2.032  25.589  0.00  0.00    -0.203 F 
BRANCH   8  12
ATOM     12  N   UNL     1       4.937  -4.461  27.180  0.00  0.00    -0.284 N 
ATOM     13  C   UNL     1       5.398  -5.349  28.169  0.00  0.00    +0.256 A 
ATOM     14  O   UNL     1       6.360  -5.169  28.913  0.00  0.00    -0.267 OA
ATOM     15  C   UNL     1       4.598  -6.594  28.349  0.00  0.00    +0.071 A 
ATOM     16  C   UNL     1       3.539  -6.841  27.570  0.00  0.00    +0.007 A 
ATOM     17  C   UNL     1       3.150  -5.905  26.551  0.00  0.00    +0.018 A 
ATOM     18  C   UNL     1       3.824  -4.757  26.403  0.00  0.00    +0.095 A 
ENDBRANCH   8  12
ENDBRANCH   2   5
BRANCH   1  19
ATOM     19  C   UNL     1       8.386   2.374  25.130  0.00  0.00    +0.180 C 
BRANCH  19  22
ATOM     20  C   UNL     1       9.472   0.475  22.396  0.00  0.00    +0.088 C 
ATOM     21  C   UNL     1       9.070   1.889  22.839  0.00  0.00    +0.107 C 
ATOM     22  N   UNL     1       9.523   2.067  24.233  0.00  0.00    -0.292 NA
ATOM     23  C   UNL     1      10.202   0.824  24.643  0.00  0.00    +0.087 C 
ATOM     24  C   UNL     1      10.602   0.129  23.355  0.00  0.00    +0.039 C 
BRANCH  20  25
ATOM     25  N   UNL     1       8.375  -0.484  22.485  0.00  0.00    -0.307 N 
ATOM     26  H   UNL     1       7.521  -0.208  22.947  0.00  0.00    +0.149 HD
ATOM     27  C   UNL     1       8.565  -1.832  22.272  0.00  0.00    +0.251 C 
ATOM     28  O   UNL     1       9.632  -2.260  21.832  0.00  0.00    -0.270 OA
BRANCH  27  29
ATOM     29  C   UNL     1       7.447  -2.695  22.611  0.00  0.00    +0.075 A 
ATOM     30  S   UNL     1       7.634  -4.381  22.884  0.00  0.00    -0.072 S 
ATOM     31  C   UNL     1       5.972  -4.586  23.110  0.00  0.00    +0.079 A 
ATOM     32 CL   UNL     1       5.339  -6.155  23.407  0.00  0.00    -0.076 Cl
ATOM     33  C   UNL     1       5.259  -3.420  23.025  0.00  0.00    +0.028 A 
ATOM     34  C   UNL     1       6.119  -2.318  22.736  0.00  0.00    +0.022 A 
ENDBRANCH  27  29
ENDBRANCH  20  25
ENDBRANCH  19  22
ENDBRANCH   1  19
TORSDOF 6
ENDMDL
MODEL 9
REMARK VINA RESULT:      -6.5      4.060      9.081
REMARK  Name = 
REMARK  6 active torsions:
REMARK  status: ('A' for Active; 'I' for Inactive)
REMARK    1  A    between atoms: C_2  and  N_25
REMARK    2  A    between atoms: N_5  and  C_6
REMARK    3  A    between atoms: C_6  and  C_7
REMARK    4  A    between atoms: N_9  and  C_10
REMARK    5  A    between atoms: C_14  and  N_17
REMARK    6  A    between atoms: C_26  and  C_28
REMARK                            x       y       z     vdW  Elec       q    Type
REMARK                         _______ _______ _______ _____ _____    ______ ____
ROOT
ATOM      1  C   UNL     1       8.244  -4.242  24.393  0.00  0.00    +0.231 C 
ATOM      2  N   UNL     1       7.199  -3.845  25.205  0.00  0.00    -0.282 N 
ATOM      3  H   UNL     1       7.161  -2.854  25.425  0.00  0.00    +0.155 HD
ATOM      4  O   UNL     1       8.248  -5.254  23.694  0.00  0.00    -0.274 OA
ENDROOT
BRANCH   2   5
ATOM      5  C   UNL     1       6.060  -4.621  25.458  0.00  0.00    +0.069 A 
ATOM      6  C   UNL     1       4.870  -4.429  24.755  0.00  0.00    +0.028 A 
ATOM      7  C   UNL     1       3.789  -5.285  24.979  0.00  0.00    +0.028 A 
ATOM      8  C   UNL     1       3.864  -6.280  25.964  0.00  0.00    +0.052 A 
ATOM      9  C   UNL     1       5.041  -6.438  26.701  0.00  0.00    +0.066 A 
ATOM     10  C   UNL     1       6.143  -5.647  26.399  0.00  0.00    +0.146 A 
ATOM     11  F   UNL     1       7.293  -5.849  27.064  0.00  0.00    -0.203 F 
BRANCH   8  12
ATOM     12  N   UNL     1       2.758  -7.147  26.193  0.00  0.00    -0.284 N 
ATOM     13  C   UNL     1       2.445  -8.095  25.203  0.00  0.00    +0.256 A 
ATOM     14  O   UNL     1       3.043  -8.259  24.141  0.00  0.00    -0.267 OA
ATOM     15  C   UNL     1       1.311  -9.012  25.516  0.00  0.00    +0.071 A 
ATOM     16  C   UNL     1       0.626  -8.882  26.657  0.00  0.00    +0.007 A 
ATOM     17  C   UNL     1       0.978  -7.861  27.607  0.00  0.00    +0.018 A 
ATOM     18  C   UNL     1       2.023  -7.058  27.369  0.00  0.00    +0.095 A 
ENDBRANCH   8  12
ENDBRANCH   2   5
BRANCH   1  19
ATOM     19  C   UNL     1       9.401  -3.237  24.363  0.00  0.00    +0.180 C 
BRANCH  19  22
ATOM     20  C   UNL     1      10.118  -0.490  22.315  0.00  0.00    +0.088 C 
ATOM     21  C   UNL     1      10.725  -1.746  22.959  0.00  0.00    +0.107 C 
ATOM     22  N   UNL     1       9.677  -2.786  22.981  0.00  0.00    -0.292 NA
ATOM     23  C   UNL     1       8.469  -2.215  22.357  0.00  0.00    +0.087 C 
ATOM     24  C   UNL     1       8.951  -1.049  21.515  0.00  0.00    +0.039 C 
BRANCH  20  25
ATOM     25  N   UNL     1       9.678   0.497  23.296  0.00  0.00    -0.307 N 
ATOM     26  H   UNL     1       9.057   0.206  24.038  0.00  0.00    +0.149 HD
ATOM     27  C   UNL     1       9.795   1.852  23.071  0.00  0.00    +0.251 C 
ATOM     28  O   UNL     1      10.429   2.282  22.108  0.00  0.00    -0.270 OA
BRANCH  27  29
ATOM     29  C   UNL     1       9.116   2.716  24.022  0.00  0.00    +0.075 A 
ATOM     30  S   UNL     1       9.356   4.418  24.053  0.00  0.00    -0.072 S 
ATOM     31  C   UNL     1       8.344   4.592  25.395  0.00  0.00    +0.079 A 
ATOM     32 CL   UNL     1       8.108   6.145  26.088  0.00  0.00    -0.076 Cl
ATOM     33  C   UNL     1       7.788   3.415  25.819  0.00  0.00    +0.028 A 
ATOM     34  C   UNL     1       8.236   2.322  25.017  0.00  0.00    +0.022 A 
ENDBRANCH  27  29
ENDBRANCH  20  25
ENDBRANCH  19  22
ENDBRANCH   1  19
TORSDOF 6
ENDMDL
