MODEL 1
REMARK VINA RESULT:      -7.2      0.000      0.000
REMARK  Name = 
REMARK  7 active torsions:
REMARK  status: ('A' for Active; 'I' for Inactive)
REMARK    1  A    between atoms: O_1  and  C_2
REMARK    2  A    between atoms: C_2  and  C_4
REMARK    3  A    between atoms: N_6  and  C_7
REMARK    4  A    between atoms: N_6  and  C_16
REMARK    5  A    between atoms: C_12  and  C_13
REMARK    6  A    between atoms: C_13  and  O_14
REMARK    7  A    between atoms: C_23  and  O_24
REMARK                            x       y       z     vdW  Elec       q    Type
REMARK                         _______ _______ _______ _____ _____    ______ ____
ROOT
ATOM      1  C   UNL     1       8.412  -3.628  25.539  0.00  0.00    +0.332 C 
ATOM      2  N   UNL     1       7.833  -3.274  24.315  0.00  0.00    -0.230 N 
ATOM      3  O   UNL     1       8.688  -2.872  26.464  0.00  0.00    -0.262 OA
ENDROOT
BRANCH   2   4
ATOM      4  C   UNL     1       7.046  -4.199  23.555  0.00  0.00    +0.050 A 
ATOM      5  C   UNL     1       5.815  -4.714  24.063  0.00  0.00    +0.007 A 
ATOM      6  C   UNL     1       5.075  -5.618  23.263  0.00  0.00    -0.016 A 
ATOM      7  C   UNL     1       3.843  -6.122  23.723  0.00  0.00    +0.012 A 
ATOM      8  C   UNL     1       3.319  -5.742  24.959  0.00  0.00    +0.046 A 
ATOM      9  C   UNL     1       4.027  -4.846  25.737  0.00  0.00    +0.118 A 
ATOM     10  C   UNL     1       5.562  -5.993  22.003  0.00  0.00    +0.008 A 
ATOM     11  C   UNL     1       6.760  -5.476  21.512  0.00  0.00    +0.002 A 
ATOM     12  C   UNL     1       5.235  -4.326  25.290  0.00  0.00    +0.055 A 
ATOM     13  C   UNL     1       7.496  -4.580  22.281  0.00  0.00    +0.024 A 
BRANCH   9  14
ATOM     14  O   UNL     1       3.578  -4.429  26.954  0.00  0.00    -0.507 OA
ATOM     15  H   UNL     1       3.279  -3.508  26.876  0.00  0.00    +0.292 HD
ENDBRANCH   9  14
ENDBRANCH   2   4
BRANCH   2  16
ATOM     16  C   UNL     1       7.662  -1.890  24.007  0.00  0.00    +0.056 A 
ATOM     17  C   UNL     1       8.614  -1.170  23.246  0.00  0.00    +0.081 A 
ATOM     18  C   UNL     1       8.363   0.179  22.928  0.00  0.00    +0.017 A 
ATOM     19  C   UNL     1       7.190   0.805  23.353  0.00  0.00    +0.001 A 
ATOM     20  C   UNL     1       6.270   0.107  24.128  0.00  0.00    +0.002 A 
ATOM     21  C   UNL     1       6.502  -1.230  24.453  0.00  0.00    +0.025 A 
BRANCH  17  22
ATOM     22  C   UNL     1       9.829  -1.851  22.686  0.00  0.00    +0.339 C 
ATOM     23  O   UNL     1      10.511  -2.667  23.281  0.00  0.00    -0.245 OA
BRANCH  22  24
ATOM     24  O   UNL     1      10.050  -1.571  21.379  0.00  0.00    -0.477 OA
ATOM     25  H   UNL     1       9.701  -0.717  21.062  0.00  0.00    +0.295 HD
ENDBRANCH  22  24
ENDBRANCH  17  22
ENDBRANCH   2  16
BRANCH   1  26
ATOM     26  C   UNL     1       8.901  -5.088  25.607  0.00  0.00    +0.393 C 
ATOM     27  O   UNL     1       8.306  -5.962  26.210  0.00  0.00    -0.240 OA
BRANCH  26  28
ATOM     28  O   UNL     1      10.042  -5.251  24.908  0.00  0.00    -0.474 OA
ATOM     29  H   UNL     1      10.102  -6.163  24.520  0.00  0.00    +0.296 HD
ENDBRANCH  26  28
ENDBRANCH   1  26
TORSDOF 7
ENDMDL
MODEL 2
REMARK VINA RESULT:      -6.8      2.597      4.466
REMARK  Name = 
REMARK  7 active torsions:
REMARK  status: ('A' for Active; 'I' for Inactive)
REMARK    1  A    between atoms: O_1  and  C_2
REMARK    2  A    between atoms: C_2  and  C_4
REMARK    3  A    between atoms: N_6  and  C_7
REMARK    4  A    between atoms: N_6  and  C_16
REMARK    5  A    between atoms: C_12  and  C_13
REMARK    6  A    between atoms: C_13  and  O_14
REMARK    7  A    between atoms: C_23  and  O_24
REMARK                            x       y       z     vdW  Elec       q    Type
REMARK                         _______ _______ _______ _____ _____    ______ ____
ROOT
ATOM      1  C   UNL     1       8.201  -2.144  22.370  0.00  0.00    +0.332 C 
ATOM      2  N   UNL     1       8.076  -1.322  23.497  0.00  0.00    -0.230 N 
ATOM      3  O   UNL     1       9.126  -2.146  21.565  0.00  0.00    -0.262 OA
ENDROOT
BRANCH   2   4
ATOM      4  C   UNL     1       7.327  -1.725  24.649  0.00  0.00    +0.050 A 
ATOM      5  C   UNL     1       7.623  -2.942  25.334  0.00  0.00    +0.007 A 
ATOM      6  C   UNL     1       6.854  -3.286  26.473  0.00  0.00    -0.016 A 
ATOM      7  C   UNL     1       7.139  -4.464  27.188  0.00  0.00    +0.012 A 
ATOM      8  C   UNL     1       8.181  -5.311  26.806  0.00  0.00    +0.046 A 
ATOM      9  C   UNL     1       8.947  -4.973  25.708  0.00  0.00    +0.118 A 
ATOM     10  C   UNL     1       5.822  -2.437  26.897  0.00  0.00    +0.008 A 
ATOM     11  C   UNL     1       5.548  -1.247  26.227  0.00  0.00    +0.002 A 
ATOM     12  C   UNL     1       8.690  -3.805  25.002  0.00  0.00    +0.055 A 
ATOM     13  C   UNL     1       6.298  -0.889  25.111  0.00  0.00    +0.024 A 
BRANCH   9  14
ATOM     14  O   UNL     1       9.980  -5.751  25.277  0.00  0.00    -0.507 OA
ATOM     15  H   UNL     1       9.891  -5.882  24.318  0.00  0.00    +0.292 HD
ENDBRANCH   9  14
ENDBRANCH   2   4
BRANCH   2  16
ATOM     16  C   UNL     1       9.022  -0.268  23.690  0.00  0.00    +0.056 A 
ATOM     17  C   UNL     1       8.909   0.971  23.015  0.00  0.00    +0.081 A 
ATOM     18  C   UNL     1       9.840   1.992  23.289  0.00  0.00    +0.017 A 
ATOM     19  C   UNL     1      10.865   1.791  24.216  0.00  0.00    +0.001 A 
ATOM     20  C   UNL     1      10.995   0.563  24.855  0.00  0.00    +0.002 A 
ATOM     21  C   UNL     1      10.081  -0.459  24.596  0.00  0.00    +0.025 A 
BRANCH  17  22
ATOM     22  C   UNL     1       7.754   1.247  22.096  0.00  0.00    +0.339 C 
ATOM     23  O   UNL     1       6.595   1.386  22.449  0.00  0.00    -0.245 OA
BRANCH  22  24
ATOM     24  O   UNL     1       8.126   1.459  20.811  0.00  0.00    -0.477 OA
ATOM     25  H   UNL     1       8.842   0.887  20.476  0.00  0.00    +0.295 HD
ENDBRANCH  22  24
ENDBRANCH  17  22
ENDBRANCH   2  16
BRANCH   1  26
ATOM     26  C   UNL     1       6.942  -2.973  22.053  0.00  0.00    +0.393 C 
ATOM     27  O   UNL     1       6.952  -4.185  21.949  0.00  0.00    -0.240 OA
BRANCH  26  28
ATOM     28  O   UNL     1       5.858  -2.182  21.927  0.00  0.00    -0.474 OA
ATOM     29  H   UNL     1       5.777  -1.553  22.690  0.00  0.00    +0.296 HD
ENDBRANCH  26  28
ENDBRANCH   1  26
TORSDOF 7
ENDMDL
MODEL 3
REMARK VINA RESULT:      -6.5      2.175      3.141
REMARK  Name = 
REMARK  7 active torsions:
REMARK  status: ('A' for Active; 'I' for Inactive)
REMARK    1  A    between atoms: O_1  and  C_2
REMARK    2  A    between atoms: C_2  and  C_4
REMARK    3  A    between atoms: N_6  and  C_7
REMARK    4  A    between atoms: N_6  and  C_16
REMARK    5  A    between atoms: C_12  and  C_13
REMARK    6  A    between atoms: C_13  and  O_14
REMARK    7  A    between atoms: C_23  and  O_24
REMARK                            x       y       z     vdW  Elec       q    Type
REMARK                         _______ _______ _______ _____ _____    ______ ____
ROOT
ATOM      1  C   UNL     1       8.728  -3.890  24.973  0.00  0.00    +0.332 C 
ATOM      2  N   UNL     1       7.402  -3.681  25.370  0.00  0.00    -0.230 N 
ATOM      3  O   UNL     1       9.574  -3.027  24.765  0.00  0.00    -0.262 OA
ENDROOT
BRANCH   2   4
ATOM      4  C   UNL     1       6.672  -4.662  26.115  0.00  0.00    +0.050 A 
ATOM      5  C   UNL     1       5.651  -5.448  25.501  0.00  0.00    +0.007 A 
ATOM      6  C   UNL     1       4.967  -6.409  26.285  0.00  0.00    -0.016 A 
ATOM      7  C   UNL     1       3.975  -7.220  25.703  0.00  0.00    +0.012 A 
ATOM      8  C   UNL     1       3.648  -7.109  24.351  0.00  0.00    +0.046 A 
ATOM      9  C   UNL     1       4.323  -6.186  23.575  0.00  0.00    +0.118 A 
ATOM     10  C   UNL     1       5.298  -6.564  27.639  0.00  0.00    +0.008 A 
ATOM     11  C   UNL     1       6.304  -5.799  28.226  0.00  0.00    +0.002 A 
ATOM     12  C   UNL     1       5.316  -5.390  24.130  0.00  0.00    +0.055 A 
ATOM     13  C   UNL     1       6.991  -4.856  27.469  0.00  0.00    +0.024 A 
BRANCH   9  14
ATOM     14  O   UNL     1       4.057  -6.022  22.248  0.00  0.00    -0.507 OA
ATOM     15  H   UNL     1       4.865  -6.214  21.744  0.00  0.00    +0.292 HD
ENDBRANCH   9  14
ENDBRANCH   2   4
BRANCH   2  16
ATOM     16  C   UNL     1       6.896  -2.345  25.409  0.00  0.00    +0.056 A 
ATOM     17  C   UNL     1       6.542  -1.645  24.231  0.00  0.00    +0.081 A 
ATOM     18  C   UNL     1       5.997  -0.350  24.337  0.00  0.00    +0.017 A 
ATOM     19  C   UNL     1       5.802   0.240  25.587  0.00  0.00    +0.001 A 
ATOM     20  C   UNL     1       6.179  -0.435  26.743  0.00  0.00    +0.002 A 
ATOM     21  C   UNL     1       6.721  -1.718  26.657  0.00  0.00    +0.025 A 
BRANCH  17  22
ATOM     22  C   UNL     1       6.642  -2.300  22.885  0.00  0.00    +0.339 C 
ATOM     23  O   UNL     1       5.709  -2.791  22.273  0.00  0.00    -0.245 OA
BRANCH  22  24
ATOM     24  O   UNL     1       7.871  -2.195  22.323  0.00  0.00    -0.477 OA
ATOM     25  H   UNL     1       7.892  -1.859  21.407  0.00  0.00    +0.295 HD
ENDBRANCH  22  24
ENDBRANCH  17  22
ENDBRANCH   2  16
BRANCH   1  26
ATOM     26  C   UNL     1       9.050  -5.348  24.594  0.00  0.00    +0.393 C 
ATOM     27  O   UNL     1       8.667  -5.869  23.563  0.00  0.00    -0.240 OA
BRANCH  26  28
ATOM     28  O   UNL     1       9.810  -5.939  25.539  0.00  0.00    -0.474 OA
ATOM     29  H   UNL     1      10.595  -5.381  25.774  0.00  0.00    +0.296 HD
ENDBRANCH  26  28
ENDBRANCH   1  26
TORSDOF 7
ENDMDL
MODEL 4
REMARK VINA RESULT:      -6.5      1.907      5.464
REMARK  Name = 
REMARK  7 active torsions:
REMARK  status: ('A' for Active; 'I' for Inactive)
REMARK    1  A    between atoms: O_1  and  C_2
REMARK    2  A    between atoms: C_2  and  C_4
REMARK    3  A    between atoms: N_6  and  C_7
REMARK    4  A    between atoms: N_6  and  C_16
REMARK    5  A    between atoms: C_12  and  C_13
REMARK    6  A    between atoms: C_13  and  O_14
REMARK    7  A    between atoms: C_23  and  O_24
REMARK                            x       y       z     vdW  Elec       q    Type
REMARK                         _______ _______ _______ _____ _____    ______ ____
ROOT
ATOM      1  C   UNL     1       7.487  -2.348  26.193  0.00  0.00    +0.332 C 
ATOM      2  N   UNL     1       7.394  -2.423  24.798  0.00  0.00    -0.230 N 
ATOM      3  O   UNL     1       7.045  -3.158  27.001  0.00  0.00    -0.262 OA
ENDROOT
BRANCH   2   4
ATOM      4  C   UNL     1       8.361  -1.807  23.941  0.00  0.00    +0.050 A 
ATOM      5  C   UNL     1       8.066  -0.597  23.242  0.00  0.00    +0.007 A 
ATOM      6  C   UNL     1       9.064  -0.028  22.415  0.00  0.00    -0.016 A 
ATOM      7  C   UNL     1       8.815   1.179  21.735  0.00  0.00    +0.012 A 
ATOM      8  C   UNL     1       7.596   1.846  21.863  0.00  0.00    +0.046 A 
ATOM      9  C   UNL     1       6.624   1.307  22.682  0.00  0.00    +0.118 A 
ATOM     10  C   UNL     1      10.310  -0.661  22.293  0.00  0.00    +0.008 A 
ATOM     11  C   UNL     1      10.592  -1.836  22.987  0.00  0.00    +0.002 A 
ATOM     12  C   UNL     1       6.860   0.125  23.374  0.00  0.00    +0.055 A 
ATOM     13  C   UNL     1       9.625  -2.404  23.811  0.00  0.00    +0.024 A 
BRANCH   9  14
ATOM     14  O   UNL     1       5.410   1.902  22.857  0.00  0.00    -0.507 OA
ATOM     15  H   UNL     1       4.975   1.501  23.628  0.00  0.00    +0.292 HD
ENDBRANCH   9  14
ENDBRANCH   2   4
BRANCH   2  16
ATOM     16  C   UNL     1       6.589  -3.450  24.215  0.00  0.00    +0.056 A 
ATOM     17  C   UNL     1       6.977  -4.812  24.246  0.00  0.00    +0.081 A 
ATOM     18  C   UNL     1       6.116  -5.785  23.704  0.00  0.00    +0.017 A 
ATOM     19  C   UNL     1       4.891  -5.420  23.142  0.00  0.00    +0.001 A 
ATOM     20  C   UNL     1       4.525  -4.080  23.084  0.00  0.00    +0.002 A 
ATOM     21  C   UNL     1       5.365  -3.101  23.616  0.00  0.00    +0.025 A 
BRANCH  17  22
ATOM     22  C   UNL     1       8.238  -5.239  24.940  0.00  0.00    +0.339 C 
ATOM     23  O   UNL     1       9.362  -5.127  24.482  0.00  0.00    -0.245 OA
BRANCH  22  24
ATOM     24  O   UNL     1       8.037  -5.662  26.211  0.00  0.00    -0.477 OA
ATOM     25  H   UNL     1       8.789  -5.547  26.821  0.00  0.00    +0.295 HD
ENDBRANCH  22  24
ENDBRANCH  17  22
ENDBRANCH   2  16
BRANCH   1  26
ATOM     26  C   UNL     1       8.040  -1.009  26.716  0.00  0.00    +0.393 C 
ATOM     27  O   UNL     1       9.205  -0.846  27.029  0.00  0.00    -0.240 OA
BRANCH  26  28
ATOM     28  O   UNL     1       7.075  -0.068  26.761  0.00  0.00    -0.474 OA
ATOM     29  H   UNL     1       6.197  -0.461  27.004  0.00  0.00    +0.296 HD
ENDBRANCH  26  28
ENDBRANCH   1  26
TORSDOF 7
ENDMDL
MODEL 5
REMARK VINA RESULT:      -6.4      2.353      5.791
REMARK  Name = 
REMARK  7 active torsions:
REMARK  status: ('A' for Active; 'I' for Inactive)
REMARK    1  A    between atoms: O_1  and  C_2
REMARK    2  A    between atoms: C_2  and  C_4
REMARK    3  A    between atoms: N_6  and  C_7
REMARK    4  A    between atoms: N_6  and  C_16
REMARK    5  A    between atoms: C_12  and  C_13
REMARK    6  A    between atoms: C_13  and  O_14
REMARK    7  A    between atoms: C_23  and  O_24
REMARK                            x       y       z     vdW  Elec       q    Type
REMARK                         _______ _______ _______ _____ _____    ______ ____
ROOT
ATOM      1  C   UNL     1       8.564  -1.799  25.249  0.00  0.00    +0.332 C 
ATOM      2  N   UNL     1       7.736  -1.581  24.142  0.00  0.00    -0.230 N 
ATOM      3  O   UNL     1       8.745  -2.864  25.829  0.00  0.00    -0.262 OA
ENDROOT
BRANCH   2   4
ATOM      4  C   UNL     1       7.988  -0.528  23.204  0.00  0.00    +0.050 A 
ATOM      5  C   UNL     1       7.168   0.640  23.165  0.00  0.00    +0.007 A 
ATOM      6  C   UNL     1       7.470   1.652  22.222  0.00  0.00    -0.016 A 
ATOM      7  C   UNL     1       6.698   2.829  22.178  0.00  0.00    +0.012 A 
ATOM      8  C   UNL     1       5.634   3.033  23.057  0.00  0.00    +0.046 A 
ATOM      9  C   UNL     1       5.345   2.058  23.992  0.00  0.00    +0.118 A 
ATOM     10  C   UNL     1       8.553   1.487  21.348  0.00  0.00    +0.008 A 
ATOM     11  C   UNL     1       9.354   0.347  21.400  0.00  0.00    +0.002 A 
ATOM     12  C   UNL     1       6.107   0.899  24.060  0.00  0.00    +0.055 A 
ATOM     13  C   UNL     1       9.077  -0.654  22.326  0.00  0.00    +0.024 A 
BRANCH   9  14
ATOM     14  O   UNL     1       4.322   2.188  24.883  0.00  0.00    -0.507 OA
ATOM     15  H   UNL     1       3.958   3.086  24.810  0.00  0.00    +0.292 HD
ENDBRANCH   9  14
ENDBRANCH   2   4
BRANCH   2  16
ATOM     16  C   UNL     1       6.887  -2.641  23.696  0.00  0.00    +0.056 A 
ATOM     17  C   UNL     1       5.702  -2.990  24.388  0.00  0.00    +0.081 A 
ATOM     18  C   UNL     1       4.877  -4.007  23.869  0.00  0.00    +0.017 A 
ATOM     19  C   UNL     1       5.216  -4.665  22.685  0.00  0.00    +0.001 A 
ATOM     20  C   UNL     1       6.396  -4.344  22.023  0.00  0.00    +0.002 A 
ATOM     21  C   UNL     1       7.225  -3.339  22.522  0.00  0.00    +0.025 A 
BRANCH  17  22
ATOM     22  C   UNL     1       5.262  -2.224  25.601  0.00  0.00    +0.339 C 
ATOM     23  O   UNL     1       4.426  -1.338  25.606  0.00  0.00    -0.245 OA
BRANCH  22  24
ATOM     24  O   UNL     1       5.796  -2.691  26.756  0.00  0.00    -0.477 OA
ATOM     25  H   UNL     1       6.764  -2.607  26.842  0.00  0.00    +0.295 HD
ENDBRANCH  22  24
ENDBRANCH  17  22
ENDBRANCH   2  16
BRANCH   1  26
ATOM     26  C   UNL     1       9.132  -0.511  25.874  0.00  0.00    +0.393 C 
ATOM     27  O   UNL     1      10.172   0.004  25.509  0.00  0.00    -0.240 OA
BRANCH  26  28
ATOM     28  O   UNL     1       8.322  -0.045  26.846  0.00  0.00    -0.474 OA
ATOM     29  H   UNL     1       7.677   0.621  26.492  0.00  0.00    +0.296 HD
ENDBRANCH  26  28
ENDBRANCH   1  26
TORSDOF 7
ENDMDL
MODEL 6
REMARK VINA RESULT:      -6.4      2.271      4.036
REMARK  Name = 
REMARK  7 active torsions:
REMARK  status: ('A' for Active; 'I' for Inactive)
REMARK    1  A    between atoms: O_1  and  C_2
REMARK    2  A    between atoms: C_2  and  C_4
REMARK    3  A    between atoms: N_6  and  C_7
REMARK    4  A    between atoms: N_6  and  C_16
REMARK    5  A    between atoms: C_12  and  C_13
REMARK    6  A    between atoms: C_13  and  O_14
REMARK    7  A    between atoms: C_23  and  O_24
REMARK                            x       y       z     vdW  Elec       q    Type
REMARK                         _______ _______ _______ _____ _____    ______ ____
ROOT
ATOM      1  C   UNL     1       9.733  -0.587  23.939  0.00  0.00    +0.332 C 
ATOM      2  N   UNL     1       8.350  -0.610  24.157  0.00  0.00    -0.230 N 
ATOM      3  O   UNL     1      10.561   0.065  24.565  0.00  0.00    -0.262 OA
ENDROOT
BRANCH   2   4
ATOM      4  C   UNL     1       7.549  -1.748  23.815  0.00  0.00    +0.050 A 
ATOM      5  C   UNL     1       7.727  -3.002  24.472  0.00  0.00    +0.007 A 
ATOM      6  C   UNL     1       6.901  -4.090  24.099  0.00  0.00    -0.016 A 
ATOM      7  C   UNL     1       7.032  -5.332  24.748  0.00  0.00    +0.012 A 
ATOM      8  C   UNL     1       7.962  -5.522  25.772  0.00  0.00    +0.046 A 
ATOM      9  C   UNL     1       8.759  -4.461  26.154  0.00  0.00    +0.118 A 
ATOM     10  C   UNL     1       5.937  -3.918  23.095  0.00  0.00    +0.008 A 
ATOM     11  C   UNL     1       5.764  -2.686  22.467  0.00  0.00    +0.002 A 
ATOM     12  C   UNL     1       8.630  -3.224  25.536  0.00  0.00    +0.055 A 
ATOM     13  C   UNL     1       6.562  -1.605  22.827  0.00  0.00    +0.024 A 
BRANCH   9  14
ATOM     14  O   UNL     1       9.687  -4.571  27.146  0.00  0.00    -0.507 OA
ATOM     15  H   UNL     1      10.367  -3.890  27.012  0.00  0.00    +0.292 HD
ENDBRANCH   9  14
ENDBRANCH   2   4
BRANCH   2  16
ATOM     16  C   UNL     1       7.784   0.309  25.093  0.00  0.00    +0.056 A 
ATOM     17  C   UNL     1       7.278   1.568  24.691  0.00  0.00    +0.081 A 
ATOM     18  C   UNL     1       6.681   2.408  25.651  0.00  0.00    +0.017 A 
ATOM     19  C   UNL     1       6.583   2.009  26.985  0.00  0.00    +0.001 A 
ATOM     20  C   UNL     1       7.109   0.785  27.385  0.00  0.00    +0.002 A 
ATOM     21  C   UNL     1       7.704  -0.060  26.448  0.00  0.00    +0.025 A 
BRANCH  17  22
ATOM     22  C   UNL     1       7.274   1.973  23.246  0.00  0.00    +0.339 C 
ATOM     23  O   UNL     1       8.248   2.362  22.624  0.00  0.00    -0.245 OA
BRANCH  22  24
ATOM     24  O   UNL     1       6.089   1.749  22.626  0.00  0.00    -0.477 OA
ATOM     25  H   UNL     1       5.495   2.519  22.555  0.00  0.00    +0.295 HD
ENDBRANCH  22  24
ENDBRANCH  17  22
ENDBRANCH   2  16
BRANCH   1  26
ATOM     26  C   UNL     1      10.182  -1.323  22.662  0.00  0.00    +0.393 C 
ATOM     27  O   UNL     1      10.708  -2.420  22.675  0.00  0.00    -0.240 OA
BRANCH  26  28
ATOM     28  O   UNL     1       9.902  -0.598  21.560  0.00  0.00    -0.474 OA
ATOM     29  H   UNL     1       9.556  -1.172  20.828  0.00  0.00    +0.296 HD
ENDBRANCH  26  28
ENDBRANCH   1  26
TORSDOF 7
ENDMDL
MODEL 7
REMARK VINA RESULT:      -6.4      2.128      5.743
REMARK  Name = 
REMARK  7 active torsions:
REMARK  status: ('A' for Active; 'I' for Inactive)
REMARK    1  A    between atoms: O_1  and  C_2
REMARK    2  A    between atoms: C_2  and  C_4
REMARK    3  A    between atoms: N_6  and  C_7
REMARK    4  A    between atoms: N_6  and  C_16
REMARK    5  A    between atoms: C_12  and  C_13
REMARK    6  A    between atoms: C_13  and  O_14
REMARK    7  A    between atoms: C_23  and  O_24
REMARK                            x       y       z     vdW  Elec       q    Type
REMARK                         _______ _______ _______ _____ _____    ______ ____
ROOT
ATOM      1  C   UNL     1       9.597  -1.615  23.817  0.00  0.00    +0.332 C 
ATOM      2  N   UNL     1       8.268  -2.013  24.011  0.00  0.00    -0.230 N 
ATOM      3  O   UNL     1      10.404  -2.117  23.043  0.00  0.00    -0.262 OA
ENDROOT
BRANCH   2   4
ATOM      4  C   UNL     1       7.262  -1.098  24.460  0.00  0.00    +0.050 A 
ATOM      5  C   UNL     1       7.030   0.137  23.781  0.00  0.00    +0.007 A 
ATOM      6  C   UNL     1       6.016   0.999  24.264  0.00  0.00    -0.016 A 
ATOM      7  C   UNL     1       5.744   2.210  23.601  0.00  0.00    +0.012 A 
ATOM      8  C   UNL     1       6.449   2.586  22.457  0.00  0.00    +0.046 A 
ATOM      9  C   UNL     1       7.427   1.742  21.969  0.00  0.00    +0.118 A 
ATOM     10  C   UNL     1       5.271   0.631  25.393  0.00  0.00    +0.008 A 
ATOM     11  C   UNL     1       5.498  -0.581  26.042  0.00  0.00    +0.002 A 
ATOM     12  C   UNL     1       7.697   0.535  22.602  0.00  0.00    +0.055 A 
ATOM     13  C   UNL     1       6.485  -1.444  25.576  0.00  0.00    +0.024 A 
BRANCH   9  14
ATOM     14  O   UNL     1       8.156   2.042  20.857  0.00  0.00    -0.507 OA
ATOM     15  H   UNL     1       8.244   3.008  20.795  0.00  0.00    +0.292 HD
ENDBRANCH   9  14
ENDBRANCH   2   4
BRANCH   2  16
ATOM     16  C   UNL     1       7.806  -3.206  23.376  0.00  0.00    +0.056 A 
ATOM     17  C   UNL     1       8.161  -4.492  23.851  0.00  0.00    +0.081 A 
ATOM     18  C   UNL     1       7.628  -5.631  23.216  0.00  0.00    +0.017 A 
ATOM     19  C   UNL     1       6.758  -5.502  22.133  0.00  0.00    +0.001 A 
ATOM     20  C   UNL     1       6.434  -4.240  21.647  0.00  0.00    +0.002 A 
ATOM     21  C   UNL     1       6.952  -3.100  22.263  0.00  0.00    +0.025 A 
BRANCH  17  22
ATOM     22  C   UNL     1       9.008  -4.654  25.079  0.00  0.00    +0.339 C 
ATOM     23  O   UNL     1       8.588  -4.674  26.223  0.00  0.00    -0.245 OA
BRANCH  22  24
ATOM     24  O   UNL     1      10.311  -4.909  24.806  0.00  0.00    -0.477 OA
ATOM     25  H   UNL     1      10.934  -4.773  25.544  0.00  0.00    +0.295 HD
ENDBRANCH  22  24
ENDBRANCH  17  22
ENDBRANCH   2  16
BRANCH   1  26
ATOM     26  C   UNL     1      10.095  -0.566  24.828  0.00  0.00    +0.393 C 
ATOM     27  O   UNL     1       9.805  -0.590  26.010  0.00  0.00    -0.240 OA
BRANCH  26  28
ATOM     28  O   UNL     1      10.887   0.347  24.232  0.00  0.00    -0.474 OA
ATOM     29  H   UNL     1      11.008   0.147  23.267  0.00  0.00    +0.296 HD
ENDBRANCH  26  28
ENDBRANCH   1  26
TORSDOF 7
ENDMDL
MODEL 8
REMARK VINA RESULT:      -6.4      5.585      9.293
REMARK  Name = 
REMARK  7 active torsions:
REMARK  status: ('A' for Active; 'I' for Inactive)
REMARK    1  A    between atoms: O_1  and  C_2
REMARK    2  A    between atoms: C_2  and  C_4
REMARK    3  A    between atoms: N_6  and  C_7
REMARK    4  A    between atoms: N_6  and  C_16
REMARK    5  A    between atoms: C_12  and  C_13
REMARK    6  A    between atoms: C_13  and  O_14
REMARK    7  A    between atoms: C_23  and  O_24
REMARK                            x       y       z     vdW  Elec       q    Type
REMARK                         _______ _______ _______ _____ _____    ______ ____
ROOT
ATOM      1  C   UNL     1       6.651   3.035  23.024  0.00  0.00    +0.332 C 
ATOM      2  N   UNL     1       7.669   2.997  23.984  0.00  0.00    -0.230 N 
ATOM      3  O   UNL     1       6.104   2.072  22.499  0.00  0.00    -0.262 OA
ENDROOT
BRANCH   2   4
ATOM      4  C   UNL     1       7.857   4.055  24.931  0.00  0.00    +0.050 A 
ATOM      5  C   UNL     1       8.989   4.921  24.857  0.00  0.00    +0.007 A 
ATOM      6  C   UNL     1       9.118   5.956  25.815  0.00  0.00    -0.016 A 
ATOM      7  C   UNL     1      10.208   6.845  25.752  0.00  0.00    +0.012 A 
ATOM      8  C   UNL     1      11.175   6.739  24.751  0.00  0.00    +0.046 A 
ATOM      9  C   UNL     1      11.046   5.744  23.803  0.00  0.00    +0.118 A 
ATOM     10  C   UNL     1       8.145   6.105  26.813  0.00  0.00    +0.008 A 
ATOM     11  C   UNL     1       7.038   5.260  26.870  0.00  0.00    +0.002 A 
ATOM     12  C   UNL     1       9.967   4.869  23.840  0.00  0.00    +0.055 A 
ATOM     13  C   UNL     1       6.891   4.243  25.932  0.00  0.00    +0.024 A 
BRANCH   9  14
ATOM     14  O   UNL     1      11.950   5.580  22.796  0.00  0.00    -0.507 OA
ATOM     15  H   UNL     1      12.343   6.444  22.588  0.00  0.00    +0.292 HD
ENDBRANCH   9  14
ENDBRANCH   2   4
BRANCH   2  16
ATOM     16  C   UNL     1       8.262   1.738  24.311  0.00  0.00    +0.056 A 
ATOM     17  C   UNL     1       9.173   1.093  23.440  0.00  0.00    +0.081 A 
ATOM     18  C   UNL     1       9.768  -0.119  23.842  0.00  0.00    +0.017 A 
ATOM     19  C   UNL     1       9.469  -0.682  25.084  0.00  0.00    +0.001 A 
ATOM     20  C   UNL     1       8.551  -0.064  25.925  0.00  0.00    +0.002 A 
ATOM     21  C   UNL     1       7.952   1.137  25.544  0.00  0.00    +0.025 A 
BRANCH  17  22
ATOM     22  C   UNL     1       9.591   1.733  22.148  0.00  0.00    +0.339 C 
ATOM     23  O   UNL     1      10.617   2.370  21.981  0.00  0.00    -0.245 OA
BRANCH  22  24
ATOM     24  O   UNL     1       8.772   1.437  21.110  0.00  0.00    -0.477 OA
ATOM     25  H   UNL     1       9.173   1.493  20.223  0.00  0.00    +0.295 HD
ENDBRANCH  22  24
ENDBRANCH  17  22
ENDBRANCH   2  16
BRANCH   1  26
ATOM     26  C   UNL     1       6.359   4.443  22.472  0.00  0.00    +0.393 C 
ATOM     27  O   UNL     1       5.378   5.092  22.787  0.00  0.00    -0.240 OA
BRANCH  26  28
ATOM     28  O   UNL     1       7.328   4.845  21.626  0.00  0.00    -0.474 OA
ATOM     29  H   UNL     1       8.147   4.292  21.724  0.00  0.00    +0.296 HD
ENDBRANCH  26  28
ENDBRANCH   1  26
TORSDOF 7
ENDMDL
MODEL 9
REMARK VINA RESULT:      -6.3      2.730      4.227
REMARK  Name = 
REMARK  7 active torsions:
REMARK  status: ('A' for Active; 'I' for Inactive)
REMARK    1  A    between atoms: O_1  and  C_2
REMARK    2  A    between atoms: C_2  and  C_4
REMARK    3  A    between atoms: N_6  and  C_7
REMARK    4  A    between atoms: N_6  and  C_16
REMARK    5  A    between atoms: C_12  and  C_13
REMARK    6  A    between atoms: C_13  and  O_14
REMARK    7  A    between atoms: C_23  and  O_24
REMARK                            x       y       z     vdW  Elec       q    Type
REMARK                         _______ _______ _______ _____ _____    ______ ____
ROOT
ATOM      1  C   UNL     1       6.021  -1.244  24.781  0.00  0.00    +0.332 C 
ATOM      2  N   UNL     1       7.383  -1.564  24.755  0.00  0.00    -0.230 N 
ATOM      3  O   UNL     1       5.501  -0.225  24.339  0.00  0.00    -0.262 OA
ENDROOT
BRANCH   2   4
ATOM      4  C   UNL     1       7.842  -2.922  24.751  0.00  0.00    +0.050 A 
ATOM      5  C   UNL     1       7.498  -3.815  23.693  0.00  0.00    +0.007 A 
ATOM      6  C   UNL     1       7.987  -5.144  23.738  0.00  0.00    -0.016 A 
ATOM      7  C   UNL     1       7.690  -6.041  22.695  0.00  0.00    +0.012 A 
ATOM      8  C   UNL     1       6.923  -5.650  21.597  0.00  0.00    +0.046 A 
ATOM      9  C   UNL     1       6.459  -4.351  21.536  0.00  0.00    +0.118 A 
ATOM     10  C   UNL     1       8.785  -5.554  24.815  0.00  0.00    +0.008 A 
ATOM     11  C   UNL     1       9.124  -4.671  25.838  0.00  0.00    +0.002 A 
ATOM     12  C   UNL     1       6.757  -3.448  22.548  0.00  0.00    +0.055 A 
ATOM     13  C   UNL     1       8.659  -3.360  25.806  0.00  0.00    +0.024 A 
BRANCH   9  14
ATOM     14  O   UNL     1       5.705  -3.898  20.494  0.00  0.00    -0.507 OA
ATOM     15  H   UNL     1       6.184  -3.174  20.057  0.00  0.00    +0.292 HD
ENDBRANCH   9  14
ENDBRANCH   2   4
BRANCH   2  16
ATOM     16  C   UNL     1       8.316  -0.577  24.311  0.00  0.00    +0.056 A 
ATOM     17  C   UNL     1       8.765   0.463  25.161  0.00  0.00    +0.081 A 
ATOM     18  C   UNL     1       9.727   1.374  24.685  0.00  0.00    +0.017 A 
ATOM     19  C   UNL     1      10.239   1.259  23.391  0.00  0.00    +0.001 A 
ATOM     20  C   UNL     1       9.775   0.257  22.546  0.00  0.00    +0.002 A 
ATOM     21  C   UNL     1       8.822  -0.655  23.001  0.00  0.00    +0.025 A 
BRANCH  17  22
ATOM     22  C   UNL     1       8.310   0.542  26.589  0.00  0.00    +0.339 C 
ATOM     23  O   UNL     1       7.337   1.164  26.982  0.00  0.00    -0.245 OA
BRANCH  22  24
ATOM     24  O   UNL     1       9.015  -0.258  27.425  0.00  0.00    -0.477 OA
ATOM     25  H   UNL     1       9.184  -1.164  27.105  0.00  0.00    +0.295 HD
ENDBRANCH  22  24
ENDBRANCH  17  22
ENDBRANCH   2  16
BRANCH   1  26
ATOM     26  C   UNL     1       5.162  -2.208  25.621  0.00  0.00    +0.393 C 
ATOM     27  O   UNL     1       4.350  -2.973  25.135  0.00  0.00    -0.240 OA
BRANCH  26  28
ATOM     28  O   UNL     1       5.447  -2.094  26.934  0.00  0.00    -0.474 OA
ATOM     29  H   UNL     1       5.486  -1.143  27.215  0.00  0.00    +0.296 HD
ENDBRANCH  26  28
ENDBRANCH   1  26
TORSDOF 7
ENDMDL
