MODEL 1
REMARK VINA RESULT:      -6.6      0.000      0.000
REMARK  Name = 
REMARK  21 active torsions:
REMARK  status: ('A' for Active; 'I' for Inactive)
REMARK    1  A    between atoms: C_1  and  C_2
REMARK    2  A    between atoms: C_2  and  O_3
REMARK    3  A    between atoms: O_3  and  C_4
REMARK    4  A    between atoms: C_4  and  C_6
REMARK    5  A    between atoms: C_6  and  C_7
REMARK    6  A    between atoms: C_7  and  C_8
REMARK    7  A    between atoms: C_8  and  C_10
REMARK    8  A    between atoms: C_8  and  N_18
REMARK    9  A    between atoms: C_10  and  C_11
REMARK   10  A    between atoms: C_19  and  C_21
REMARK   11  A    between atoms: C_21  and  C_23
REMARK   12  A    between atoms: C_21  and  C_40
REMARK   13  A    between atoms: C_23  and  C_24
REMARK   14  A    between atoms: C_24  and  C_26
REMARK   15  A    between atoms: C_26  and  N_28
REMARK   16  A    between atoms: C_26  and  C_37
REMARK   17  A    between atoms: C_29  and  C_31
REMARK   18  A    between atoms: C_34  and  C_35
REMARK   19  A    between atoms: C_37  and  C_38
REMARK   20  A    between atoms: C_37  and  C_39
REMARK   21  A    between atoms: C_40  and  C_41
REMARK                            x       y       z     vdW  Elec       q    Type
REMARK                         _______ _______ _______ _____ _____    ______ ____
ROOT
ATOM      1  C   UNL     1       7.667  -2.252  23.084  0.00  0.00    +0.086 C 
ENDROOT
BRANCH   1   4
ATOM      2  N   UNL     1       6.238  -4.043  23.956  0.00  0.00    -0.312 N 
ATOM      3  H   UNL     1       5.758  -3.279  24.412  0.00  0.00    +0.149 HD
ATOM      4  C   UNL     1       7.164  -3.696  22.985  0.00  0.00    +0.217 C 
ATOM      5  O   UNL     1       7.582  -4.502  22.162  0.00  0.00    -0.275 OA
BRANCH   2   6
ATOM      6  C   UNL     1       5.592  -5.361  23.951  0.00  0.00    +0.074 C 
BRANCH   6   7
ATOM      7  C   UNL     1       5.443  -5.869  25.403  0.00  0.00    +0.033 C 
BRANCH   7   8
ATOM      8  C   UNL     1       5.712  -4.816  26.480  0.00  0.00    +0.122 C 
BRANCH   8   9
ATOM      9  C   UNL     1       7.048  -5.071  27.134  0.00  0.00    +0.307 C 
ATOM     10  O   UNL     1       7.282  -5.978  27.925  0.00  0.00    -0.251 OA
BRANCH   9  11
ATOM     11  O   UNL     1       7.942  -4.126  26.730  0.00  0.00    -0.465 OA
BRANCH  11  13
ATOM     12  C   UNL     1       9.316  -5.417  25.259  0.00  0.00    +0.048 C 
ATOM     13  C   UNL     1       9.283  -4.592  26.533  0.00  0.00    +0.229 C 
ENDBRANCH  11  13
ENDBRANCH   9  11
ENDBRANCH   8   9
ENDBRANCH   7   8
ENDBRANCH   6   7
BRANCH   6  14
ATOM     14  C   UNL     1       4.227  -5.304  23.222  0.00  0.00    +0.035 C 
BRANCH  14  15
ATOM     15  C   UNL     1       3.040  -5.780  24.075  0.00  0.00    +0.078 C 
ATOM     16  C   UNL     1       2.069  -4.648  24.354  0.00  0.00    +0.216 C 
ATOM     17  O   UNL     1       2.248  -3.702  25.097  0.00  0.00    -0.276 OA
ATOM     18  N   UNL     1       0.955  -4.819  23.566  0.00  0.00    -0.315 N 
ATOM     19  H   UNL     1       0.231  -4.111  23.547  0.00  0.00    +0.149 HD
ATOM     20  C   UNL     1       1.079  -5.922  22.668  0.00  0.00    +0.105 C 
ATOM     21  C   UNL     1       2.143  -6.782  23.324  0.00  0.00    +0.031 C 
ENDBRANCH  14  15
ENDBRANCH   6  14
ENDBRANCH   2   6
ENDBRANCH   1   4
BRANCH   1  22
ATOM     22  C   UNL     1       9.150  -2.091  22.732  0.00  0.00    +0.048 C 
BRANCH  22  23
ATOM     23  C   UNL     1       9.621  -0.665  22.845  0.00  0.00    -0.046 A 
ATOM     24  C   UNL     1       9.253   0.257  21.851  0.00  0.00    +0.006 A 
ATOM     25  C   UNL     1       9.652   1.585  21.943  0.00  0.00    +0.038 A 
ATOM     26  C   UNL     1      10.422   1.991  23.026  0.00  0.00    +0.123 A 
ATOM     27  F   UNL     1      10.801   3.271  23.119  0.00  0.00    -0.205 F 
ATOM     28  C   UNL     1      10.802   1.089  24.014  0.00  0.00    +0.038 A 
ATOM     29  C   UNL     1      10.398  -0.243  23.931  0.00  0.00    +0.006 A 
ENDBRANCH  22  23
ENDBRANCH   1  22
BRANCH   1  30
ATOM     30  C   UNL     1       7.344  -1.680  24.470  0.00  0.00    +0.089 C 
BRANCH  30  31
ATOM     31  C   UNL     1       6.268  -0.588  24.520  0.00  0.00    +0.154 C 
ATOM     32  O   UNL     1       5.104  -0.842  24.841  0.00  0.00    -0.295 OA
BRANCH  31  33
ATOM     33  C   UNL     1       6.714   0.883  24.446  0.00  0.00    +0.142 C 
BRANCH  33  34
ATOM     34  N   UNL     1       5.473   1.640  24.276  0.00  0.00    -0.300 N 
ATOM     35  H   UNL     1       4.643   1.386  24.803  0.00  0.00    +0.150 HD
ATOM     36  C   UNL     1       5.255   2.503  23.220  0.00  0.00    +0.266 C 
ATOM     37  O   UNL     1       6.122   2.831  22.418  0.00  0.00    -0.268 OA
BRANCH  36  38
ATOM     38  C   UNL     1       3.888   3.034  23.156  0.00  0.00    +0.168 A 
ATOM     39  C   UNL     1       3.303   3.790  22.107  0.00  0.00    +0.080 A 
ATOM     40  C   UNL     1       2.022   4.041  22.531  0.00  0.00    +0.135 A 
ATOM     41  C   UNL     1       0.869   4.748  21.943  0.00  0.00    +0.089 C 
ATOM     42  O   UNL     1       1.841   3.485  23.757  0.00  0.00    -0.359 OA
ATOM     43  N   UNL     1       3.006   2.853  24.159  0.00  0.00    -0.073 NA
ENDBRANCH  36  38
ENDBRANCH  33  34
BRANCH  33  44
ATOM     44  C   UNL     1       7.543   1.390  25.640  0.00  0.00    +0.010 C 
ATOM     45  C   UNL     1       6.813   1.153  26.968  0.00  0.00    +0.009 C 
ATOM     46  C   UNL     1       7.848   2.891  25.522  0.00  0.00    +0.009 C 
ENDBRANCH  33  44
ENDBRANCH  31  33
ENDBRANCH  30  31
ENDBRANCH   1  30
TORSDOF 17
ENDMDL
MODEL 2
REMARK VINA RESULT:      -6.6      3.401      5.903
REMARK  Name = 
REMARK  21 active torsions:
REMARK  status: ('A' for Active; 'I' for Inactive)
REMARK    1  A    between atoms: C_1  and  C_2
REMARK    2  A    between atoms: C_2  and  O_3
REMARK    3  A    between atoms: O_3  and  C_4
REMARK    4  A    between atoms: C_4  and  C_6
REMARK    5  A    between atoms: C_6  and  C_7
REMARK    6  A    between atoms: C_7  and  C_8
REMARK    7  A    between atoms: C_8  and  C_10
REMARK    8  A    between atoms: C_8  and  N_18
REMARK    9  A    between atoms: C_10  and  C_11
REMARK   10  A    between atoms: C_19  and  C_21
REMARK   11  A    between atoms: C_21  and  C_23
REMARK   12  A    between atoms: C_21  and  C_40
REMARK   13  A    between atoms: C_23  and  C_24
REMARK   14  A    between atoms: C_24  and  C_26
REMARK   15  A    between atoms: C_26  and  N_28
REMARK   16  A    between atoms: C_26  and  C_37
REMARK   17  A    between atoms: C_29  and  C_31
REMARK   18  A    between atoms: C_34  and  C_35
REMARK   19  A    between atoms: C_37  and  C_38
REMARK   20  A    between atoms: C_37  and  C_39
REMARK   21  A    between atoms: C_40  and  C_41
REMARK                            x       y       z     vdW  Elec       q    Type
REMARK                         _______ _______ _______ _____ _____    ______ ____
ROOT
ATOM      1  C   UNL     1       7.933  -2.045  25.274  0.00  0.00    +0.086 C 
ENDROOT
BRANCH   1   4
ATOM      2  N   UNL     1       5.837  -2.639  26.398  0.00  0.00    -0.312 N 
ATOM      3  H   UNL     1       5.415  -2.180  25.603  0.00  0.00    +0.149 HD
ATOM      4  C   UNL     1       7.195  -2.899  26.311  0.00  0.00    +0.217 C 
ATOM      5  O   UNL     1       7.757  -3.701  27.048  0.00  0.00    -0.275 OA
BRANCH   2   6
ATOM      6  C   UNL     1       4.969  -3.429  27.280  0.00  0.00    +0.074 C 
BRANCH   6   7
ATOM      7  C   UNL     1       4.243  -2.489  28.269  0.00  0.00    +0.033 C 
BRANCH   7   8
ATOM      8  C   UNL     1       2.872  -2.002  27.797  0.00  0.00    +0.122 C 
BRANCH   8   9
ATOM      9  C   UNL     1       2.955  -0.558  27.362  0.00  0.00    +0.307 C 
ATOM     10  O   UNL     1       2.068   0.051  26.776  0.00  0.00    -0.251 OA
BRANCH   9  11
ATOM     11  O   UNL     1       4.173  -0.050  27.699  0.00  0.00    -0.465 OA
BRANCH  11  13
ATOM     12  C   UNL     1       5.247   0.789  25.735  0.00  0.00    +0.048 C 
ATOM     13  C   UNL     1       4.541   1.161  27.026  0.00  0.00    +0.229 C 
ENDBRANCH  11  13
ENDBRANCH   9  11
ENDBRANCH   8   9
ENDBRANCH   7   8
ENDBRANCH   6   7
BRANCH   6  14
ATOM     14  C   UNL     1       3.968  -4.276  26.455  0.00  0.00    +0.035 C 
BRANCH  14  15
ATOM     15  C   UNL     1       4.636  -5.268  25.488  0.00  0.00    +0.078 C 
ATOM     16  C   UNL     1       4.965  -6.578  26.178  0.00  0.00    +0.216 C 
ATOM     17  O   UNL     1       5.839  -6.766  27.002  0.00  0.00    -0.276 OA
ATOM     18  N   UNL     1       4.060  -7.530  25.772  0.00  0.00    -0.315 N 
ATOM     19  H   UNL     1       4.064  -8.450  26.195  0.00  0.00    +0.149 HD
ATOM     20  C   UNL     1       3.041  -6.997  24.925  0.00  0.00    +0.105 C 
ATOM     21  C   UNL     1       3.678  -5.734  24.375  0.00  0.00    +0.031 C 
ENDBRANCH  14  15
ENDBRANCH   6  14
ENDBRANCH   2   6
ENDBRANCH   1   4
BRANCH   1  22
ATOM     22  C   UNL     1       8.747  -2.865  24.268  0.00  0.00    +0.048 C 
BRANCH  22  23
ATOM     23  C   UNL     1       7.883  -3.751  23.408  0.00  0.00    -0.046 A 
ATOM     24  C   UNL     1       7.023  -3.162  22.468  0.00  0.00    +0.006 A 
ATOM     25  C   UNL     1       6.234  -3.955  21.644  0.00  0.00    +0.038 A 
ATOM     26  C   UNL     1       6.302  -5.338  21.762  0.00  0.00    +0.123 A 
ATOM     27  F   UNL     1       5.548  -6.104  20.964  0.00  0.00    -0.205 F 
ATOM     28  C   UNL     1       7.143  -5.937  22.694  0.00  0.00    +0.038 A 
ATOM     29  C   UNL     1       7.943  -5.146  23.517  0.00  0.00    +0.006 A 
ENDBRANCH  22  23
ENDBRANCH   1  22
BRANCH   1  30
ATOM     30  C   UNL     1       8.794  -0.991  25.981  0.00  0.00    +0.089 C 
BRANCH  30  31
ATOM     31  C   UNL     1       9.505   0.023  25.077  0.00  0.00    +0.154 C 
ATOM     32  O   UNL     1      10.716  -0.050  24.851  0.00  0.00    -0.295 OA
BRANCH  31  33
ATOM     33  C   UNL     1       8.644   0.968  24.219  0.00  0.00    +0.142 C 
BRANCH  33  34
ATOM     34  N   UNL     1       9.539   2.073  23.872  0.00  0.00    -0.300 N 
ATOM     35  H   UNL     1      10.505   1.889  23.621  0.00  0.00    +0.150 HD
ATOM     36  C   UNL     1       9.246   3.395  24.147  0.00  0.00    +0.266 C 
ATOM     37  O   UNL     1       8.159   3.779  24.565  0.00  0.00    -0.268 OA
BRANCH  36  38
ATOM     38  C   UNL     1      10.347   4.322  23.860  0.00  0.00    +0.168 A 
ATOM     39  C   UNL     1      11.570   4.033  23.203  0.00  0.00    +0.080 A 
ATOM     40  C   UNL     1      12.248   5.226  23.189  0.00  0.00    +0.135 A 
ATOM     41  C   UNL     1      13.557   5.654  22.659  0.00  0.00    +0.089 C 
ATOM     42  O   UNL     1      11.495   6.174  23.805  0.00  0.00    -0.359 OA
ATOM     43  N   UNL     1      10.301   5.617  24.231  0.00  0.00    -0.073 NA
ENDBRANCH  36  38
ENDBRANCH  33  34
BRANCH  33  44
ATOM     44  C   UNL     1       7.996   0.334  22.974  0.00  0.00    +0.010 C 
ATOM     45  C   UNL     1       9.015   0.162  21.840  0.00  0.00    +0.009 C 
ATOM     46  C   UNL     1       6.831   1.185  22.447  0.00  0.00    +0.009 C 
ENDBRANCH  33  44
ENDBRANCH  31  33
ENDBRANCH  30  31
ENDBRANCH   1  30
TORSDOF 17
ENDMDL
MODEL 3
REMARK VINA RESULT:      -6.5      2.855      5.542
REMARK  Name = 
REMARK  21 active torsions:
REMARK  status: ('A' for Active; 'I' for Inactive)
REMARK    1  A    between atoms: C_1  and  C_2
REMARK    2  A    between atoms: C_2  and  O_3
REMARK    3  A    between atoms: O_3  and  C_4
REMARK    4  A    between atoms: C_4  and  C_6
REMARK    5  A    between atoms: C_6  and  C_7
REMARK    6  A    between atoms: C_7  and  C_8
REMARK    7  A    between atoms: C_8  and  C_10
REMARK    8  A    between atoms: C_8  and  N_18
REMARK    9  A    between atoms: C_10  and  C_11
REMARK   10  A    between atoms: C_19  and  C_21
REMARK   11  A    between atoms: C_21  and  C_23
REMARK   12  A    between atoms: C_21  and  C_40
REMARK   13  A    between atoms: C_23  and  C_24
REMARK   14  A    between atoms: C_24  and  C_26
REMARK   15  A    between atoms: C_26  and  N_28
REMARK   16  A    between atoms: C_26  and  C_37
REMARK   17  A    between atoms: C_29  and  C_31
REMARK   18  A    between atoms: C_34  and  C_35
REMARK   19  A    between atoms: C_37  and  C_38
REMARK   20  A    between atoms: C_37  and  C_39
REMARK   21  A    between atoms: C_40  and  C_41
REMARK                            x       y       z     vdW  Elec       q    Type
REMARK                         _______ _______ _______ _____ _____    ______ ____
ROOT
ATOM      1  C   UNL     1       6.229   1.218  25.688  0.00  0.00    +0.086 C 
ENDROOT
BRANCH   1   4
ATOM      2  N   UNL     1       5.860  -1.153  25.187  0.00  0.00    -0.312 N 
ATOM      3  H   UNL     1       6.867  -1.171  25.097  0.00  0.00    +0.149 HD
ATOM      4  C   UNL     1       5.311  -0.008  25.743  0.00  0.00    +0.217 C 
ATOM      5  O   UNL     1       4.167   0.024  26.181  0.00  0.00    -0.275 OA
BRANCH   2   6
ATOM      6  C   UNL     1       5.147  -2.436  25.236  0.00  0.00    +0.074 C 
BRANCH   6   7
ATOM      7  C   UNL     1       5.272  -3.149  23.870  0.00  0.00    +0.033 C 
BRANCH   7   8
ATOM      8  C   UNL     1       6.142  -2.419  22.845  0.00  0.00    +0.122 C 
BRANCH   8   9
ATOM      9  C   UNL     1       7.223  -3.339  22.331  0.00  0.00    +0.307 C 
ATOM     10  O   UNL     1       7.162  -4.563  22.332  0.00  0.00    -0.251 OA
BRANCH   9  11
ATOM     11  O   UNL     1       8.280  -2.601  21.893  0.00  0.00    -0.465 OA
BRANCH  11  13
ATOM     12  C   UNL     1      10.177  -2.152  23.279  0.00  0.00    +0.048 C 
ATOM     13  C   UNL     1       8.808  -1.662  22.840  0.00  0.00    +0.229 C 
ENDBRANCH  11  13
ENDBRANCH   9  11
ENDBRANCH   8   9
ENDBRANCH   7   8
ENDBRANCH   6   7
BRANCH   6  14
ATOM     14  C   UNL     1       5.677  -3.318  26.393  0.00  0.00    +0.035 C 
BRANCH  14  15
ATOM     15  C   UNL     1       6.146  -4.714  25.953  0.00  0.00    +0.078 C 
ATOM     16  C   UNL     1       7.648  -4.866  26.103  0.00  0.00    +0.216 C 
ATOM     17  O   UNL     1       8.505  -4.341  25.417  0.00  0.00    -0.276 OA
ATOM     18  N   UNL     1       7.904  -5.651  27.202  0.00  0.00    -0.315 N 
ATOM     19  H   UNL     1       8.856  -5.793  27.517  0.00  0.00    +0.149 HD
ATOM     20  C   UNL     1       6.719  -5.998  27.920  0.00  0.00    +0.105 C 
ATOM     21  C   UNL     1       5.626  -5.827  26.882  0.00  0.00    +0.031 C 
ENDBRANCH  14  15
ENDBRANCH   6  14
ENDBRANCH   2   6
ENDBRANCH   1   4
BRANCH   1  22
ATOM     22  C   UNL     1       7.709   0.891  25.917  0.00  0.00    +0.048 C 
BRANCH  22  23
ATOM     23  C   UNL     1       8.574   1.266  24.743  0.00  0.00    -0.046 A 
ATOM     24  C   UNL     1       7.965   1.726  23.565  0.00  0.00    +0.006 A 
ATOM     25  C   UNL     1       8.740   2.104  22.475  0.00  0.00    +0.038 A 
ATOM     26  C   UNL     1      10.123   2.017  22.560  0.00  0.00    +0.123 A 
ATOM     27  F   UNL     1      10.872   2.387  21.514  0.00  0.00    -0.205 F 
ATOM     28  C   UNL     1      10.742   1.555  23.717  0.00  0.00    +0.038 A 
ATOM     29  C   UNL     1       9.971   1.183  24.817  0.00  0.00    +0.006 A 
ENDBRANCH  22  23
ENDBRANCH   1  22
BRANCH   1  30
ATOM     30  C   UNL     1       5.725   2.292  26.660  0.00  0.00    +0.089 C 
BRANCH  30  31
ATOM     31  C   UNL     1       6.539   3.591  26.720  0.00  0.00    +0.154 C 
ATOM     32  O   UNL     1       7.482   3.727  27.504  0.00  0.00    -0.295 OA
BRANCH  31  33
ATOM     33  C   UNL     1       6.356   4.622  25.591  0.00  0.00    +0.142 C 
BRANCH  33  34
ATOM     34  N   UNL     1       7.709   4.866  25.088  0.00  0.00    -0.300 N 
ATOM     35  H   UNL     1       8.309   4.087  24.836  0.00  0.00    +0.150 HD
ATOM     36  C   UNL     1       8.348   6.084  25.209  0.00  0.00    +0.266 C 
ATOM     37  O   UNL     1       7.799   7.106  25.606  0.00  0.00    -0.268 OA
BRANCH  36  38
ATOM     38  C   UNL     1       9.753   6.065  24.782  0.00  0.00    +0.168 A 
ATOM     39  C   UNL     1      10.324   5.309  23.726  0.00  0.00    +0.080 A 
ATOM     40  C   UNL     1      11.655   5.642  23.739  0.00  0.00    +0.135 A 
ATOM     41  C   UNL     1      12.818   5.250  22.921  0.00  0.00    +0.089 C 
ATOM     42  O   UNL     1      11.882   6.532  24.741  0.00  0.00    -0.359 OA
ATOM     43  N   UNL     1      10.695   6.803  25.402  0.00  0.00    -0.073 NA
ENDBRANCH  36  38
ENDBRANCH  33  34
BRANCH  33  44
ATOM     44  C   UNL     1       5.385   4.215  24.467  0.00  0.00    +0.010 C 
ATOM     45  C   UNL     1       5.899   4.664  23.094  0.00  0.00    +0.009 C 
ATOM     46  C   UNL     1       3.989   4.822  24.679  0.00  0.00    +0.009 C 
ENDBRANCH  33  44
ENDBRANCH  31  33
ENDBRANCH  30  31
ENDBRANCH   1  30
TORSDOF 17
ENDMDL
MODEL 4
REMARK VINA RESULT:      -6.5      2.904      8.083
REMARK  Name = 
REMARK  21 active torsions:
REMARK  status: ('A' for Active; 'I' for Inactive)
REMARK    1  A    between atoms: C_1  and  C_2
REMARK    2  A    between atoms: C_2  and  O_3
REMARK    3  A    between atoms: O_3  and  C_4
REMARK    4  A    between atoms: C_4  and  C_6
REMARK    5  A    between atoms: C_6  and  C_7
REMARK    6  A    between atoms: C_7  and  C_8
REMARK    7  A    between atoms: C_8  and  C_10
REMARK    8  A    between atoms: C_8  and  N_18
REMARK    9  A    between atoms: C_10  and  C_11
REMARK   10  A    between atoms: C_19  and  C_21
REMARK   11  A    between atoms: C_21  and  C_23
REMARK   12  A    between atoms: C_21  and  C_40
REMARK   13  A    between atoms: C_23  and  C_24
REMARK   14  A    between atoms: C_24  and  C_26
REMARK   15  A    between atoms: C_26  and  N_28
REMARK   16  A    between atoms: C_26  and  C_37
REMARK   17  A    between atoms: C_29  and  C_31
REMARK   18  A    between atoms: C_34  and  C_35
REMARK   19  A    between atoms: C_37  and  C_38
REMARK   20  A    between atoms: C_37  and  C_39
REMARK   21  A    between atoms: C_40  and  C_41
REMARK                            x       y       z     vdW  Elec       q    Type
REMARK                         _______ _______ _______ _____ _____    ______ ____
ROOT
ATOM      1  C   UNL     1       6.817  -1.182  24.333  0.00  0.00    +0.086 C 
ENDROOT
BRANCH   1   4
ATOM      2  N   UNL     1       6.421   0.979  23.245  0.00  0.00    -0.312 N 
ATOM      3  H   UNL     1       5.882   0.422  22.596  0.00  0.00    +0.149 HD
ATOM      4  C   UNL     1       6.823   0.349  24.412  0.00  0.00    +0.217 C 
ATOM      5  O   UNL     1       7.206   0.972  25.396  0.00  0.00    -0.275 OA
BRANCH   2   6
ATOM      6  C   UNL     1       6.287   2.440  23.180  0.00  0.00    +0.074 C 
BRANCH   6   7
ATOM      7  C   UNL     1       7.414   3.023  22.298  0.00  0.00    +0.033 C 
BRANCH   7   8
ATOM      8  C   UNL     1       8.621   3.556  23.072  0.00  0.00    +0.122 C 
BRANCH   8   9
ATOM      9  C   UNL     1       9.740   2.543  23.052  0.00  0.00    +0.307 C 
ATOM     10  O   UNL     1      10.762   2.611  23.725  0.00  0.00    -0.251 OA
BRANCH   9  11
ATOM     11  O   UNL     1       9.448   1.560  22.156  0.00  0.00    -0.465 OA
BRANCH  11  13
ATOM     12  C   UNL     1       9.356  -0.747  21.531  0.00  0.00    +0.048 C 
ATOM     13  C   UNL     1       9.999   0.270  22.457  0.00  0.00    +0.229 C 
ENDBRANCH  11  13
ENDBRANCH   9  11
ENDBRANCH   8   9
ENDBRANCH   7   8
ENDBRANCH   6   7
BRANCH   6  14
ATOM     14  C   UNL     1       4.886   2.843  22.660  0.00  0.00    +0.035 C 
BRANCH  14  15
ATOM     15  C   UNL     1       4.017   3.571  23.699  0.00  0.00    +0.078 C 
ATOM     16  C   UNL     1       4.153   2.941  25.073  0.00  0.00    +0.216 C 
ATOM     17  O   UNL     1       3.709   1.866  25.428  0.00  0.00    -0.276 OA
ATOM     18  N   UNL     1       4.933   3.759  25.857  0.00  0.00    -0.315 N 
ATOM     19  H   UNL     1       5.210   3.461  26.784  0.00  0.00    +0.149 HD
ATOM     20  C   UNL     1       5.456   4.876  25.138  0.00  0.00    +0.105 C 
ATOM     21  C   UNL     1       4.503   5.008  23.965  0.00  0.00    +0.031 C 
ENDBRANCH  14  15
ENDBRANCH   6  14
ENDBRANCH   2   6
ENDBRANCH   1   4
BRANCH   1  22
ATOM     22  C   UNL     1       5.707  -1.748  23.441  0.00  0.00    +0.048 C 
BRANCH  22  23
ATOM     23  C   UNL     1       5.950  -3.184  23.053  0.00  0.00    -0.046 A 
ATOM     24  C   UNL     1       5.051  -4.170  23.489  0.00  0.00    +0.006 A 
ATOM     25  C   UNL     1       5.236  -5.498  23.125  0.00  0.00    +0.038 A 
ATOM     26  C   UNL     1       6.322  -5.842  22.330  0.00  0.00    +0.123 A 
ATOM     27  F   UNL     1       6.498  -7.120  21.973  0.00  0.00    -0.205 F 
ATOM     28  C   UNL     1       7.226  -4.878  21.897  0.00  0.00    +0.038 A 
ATOM     29  C   UNL     1       7.041  -3.542  22.252  0.00  0.00    +0.006 A 
ENDBRANCH  22  23
ENDBRANCH   1  22
BRANCH   1  30
ATOM     30  C   UNL     1       6.774  -1.778  25.746  0.00  0.00    +0.089 C 
BRANCH  30  31
ATOM     31  C   UNL     1       8.122  -2.195  26.348  0.00  0.00    +0.154 C 
ATOM     32  O   UNL     1       8.839  -1.389  26.947  0.00  0.00    -0.295 OA
BRANCH  31  33
ATOM     33  C   UNL     1       8.444  -3.697  26.453  0.00  0.00    +0.142 C 
BRANCH  33  34
ATOM     34  N   UNL     1       7.155  -4.367  26.271  0.00  0.00    -0.300 N 
ATOM     35  H   UNL     1       6.465  -3.982  25.634  0.00  0.00    +0.150 HD
ATOM     36  C   UNL     1       6.682  -5.336  27.133  0.00  0.00    +0.266 C 
ATOM     37  O   UNL     1       7.350  -5.832  28.034  0.00  0.00    -0.268 OA
BRANCH  36  38
ATOM     38  C   UNL     1       5.304  -5.760  26.855  0.00  0.00    +0.168 A 
ATOM     39  C   UNL     1       4.122  -4.986  26.978  0.00  0.00    +0.080 A 
ATOM     40  C   UNL     1       3.109  -5.834  26.607  0.00  0.00    +0.135 A 
ATOM     41  C   UNL     1       1.646  -5.693  26.486  0.00  0.00    +0.089 C 
ATOM     42  O   UNL     1       3.637  -7.046  26.290  0.00  0.00    -0.359 OA
ATOM     43  N   UNL     1       5.013  -7.009  26.444  0.00  0.00    -0.073 NA
ENDBRANCH  36  38
ENDBRANCH  33  34
BRANCH  33  44
ATOM     44  C   UNL     1       9.512  -4.219  25.474  0.00  0.00    +0.010 C 
ATOM     45  C   UNL     1       9.758  -3.226  24.332  0.00  0.00    +0.009 C 
ATOM     46  C   UNL     1       9.105  -5.567  24.859  0.00  0.00    +0.009 C 
ENDBRANCH  33  44
ENDBRANCH  31  33
ENDBRANCH  30  31
ENDBRANCH   1  30
TORSDOF 17
ENDMDL
MODEL 5
REMARK VINA RESULT:      -6.5      2.817      6.641
REMARK  Name = 
REMARK  21 active torsions:
REMARK  status: ('A' for Active; 'I' for Inactive)
REMARK    1  A    between atoms: C_1  and  C_2
REMARK    2  A    between atoms: C_2  and  O_3
REMARK    3  A    between atoms: O_3  and  C_4
REMARK    4  A    between atoms: C_4  and  C_6
REMARK    5  A    between atoms: C_6  and  C_7
REMARK    6  A    between atoms: C_7  and  C_8
REMARK    7  A    between atoms: C_8  and  C_10
REMARK    8  A    between atoms: C_8  and  N_18
REMARK    9  A    between atoms: C_10  and  C_11
REMARK   10  A    between atoms: C_19  and  C_21
REMARK   11  A    between atoms: C_21  and  C_23
REMARK   12  A    between atoms: C_21  and  C_40
REMARK   13  A    between atoms: C_23  and  C_24
REMARK   14  A    between atoms: C_24  and  C_26
REMARK   15  A    between atoms: C_26  and  N_28
REMARK   16  A    between atoms: C_26  and  C_37
REMARK   17  A    between atoms: C_29  and  C_31
REMARK   18  A    between atoms: C_34  and  C_35
REMARK   19  A    between atoms: C_37  and  C_38
REMARK   20  A    between atoms: C_37  and  C_39
REMARK   21  A    between atoms: C_40  and  C_41
REMARK                            x       y       z     vdW  Elec       q    Type
REMARK                         _______ _______ _______ _____ _____    ______ ____
ROOT
ATOM      1  C   UNL     1       7.489   1.265  25.719  0.00  0.00    +0.086 C 
ENDROOT
BRANCH   1   4
ATOM      2  N   UNL     1       5.650  -0.048  26.669  0.00  0.00    -0.312 N 
ATOM      3  H   UNL     1       5.718  -0.557  25.799  0.00  0.00    +0.149 HD
ATOM      4  C   UNL     1       6.680   0.837  26.948  0.00  0.00    +0.217 C 
ATOM      5  O   UNL     1       6.878   1.279  28.074  0.00  0.00    -0.275 OA
BRANCH   2   6
ATOM      6  C   UNL     1       4.834  -0.623  27.745  0.00  0.00    +0.074 C 
BRANCH   6   7
ATOM      7  C   UNL     1       3.397  -0.058  27.662  0.00  0.00    +0.033 C 
BRANCH   7   8
ATOM      8  C   UNL     1       3.258   1.401  28.100  0.00  0.00    +0.122 C 
BRANCH   8   9
ATOM      9  C   UNL     1       3.219   2.305  26.891  0.00  0.00    +0.307 C 
ATOM     10  O   UNL     1       3.310   1.928  25.729  0.00  0.00    -0.251 OA
BRANCH   9  11
ATOM     11  O   UNL     1       3.093   3.600  27.294  0.00  0.00    -0.465 OA
BRANCH  11  13
ATOM     12  C   UNL     1       5.331   4.435  27.210  0.00  0.00    +0.048 C 
ATOM     13  C   UNL     1       3.938   4.539  26.617  0.00  0.00    +0.229 C 
ENDBRANCH  11  13
ENDBRANCH   9  11
ENDBRANCH   8   9
ENDBRANCH   7   8
ENDBRANCH   6   7
BRANCH   6  14
ATOM     14  C   UNL     1       4.845  -2.170  27.679  0.00  0.00    +0.035 C 
BRANCH  14  15
ATOM     15  C   UNL     1       5.342  -2.736  26.339  0.00  0.00    +0.078 C 
ATOM     16  C   UNL     1       6.645  -3.496  26.508  0.00  0.00    +0.216 C 
ATOM     17  O   UNL     1       7.741  -3.020  26.734  0.00  0.00    -0.276 OA
ATOM     18  N   UNL     1       6.381  -4.844  26.433  0.00  0.00    -0.315 N 
ATOM     19  H   UNL     1       7.116  -5.517  26.613  0.00  0.00    +0.149 HD
ATOM     20  C   UNL     1       4.986  -5.128  26.326  0.00  0.00    +0.105 C 
ATOM     21  C   UNL     1       4.412  -3.832  25.785  0.00  0.00    +0.031 C 
ENDBRANCH  14  15
ENDBRANCH   6  14
ENDBRANCH   2   6
ENDBRANCH   1   4
BRANCH   1  22
ATOM     22  C   UNL     1       6.685   2.093  24.710  0.00  0.00    +0.048 C 
BRANCH  22  23
ATOM     23  C   UNL     1       7.409   3.341  24.275  0.00  0.00    -0.046 A 
ATOM     24  C   UNL     1       6.994   3.999  23.107  0.00  0.00    +0.006 A 
ATOM     25  C   UNL     1       7.626   5.167  22.697  0.00  0.00    +0.038 A 
ATOM     26  C   UNL     1       8.676   5.674  23.452  0.00  0.00    +0.123 A 
ATOM     27  F   UNL     1       9.282   6.802  23.062  0.00  0.00    -0.205 F 
ATOM     28  C   UNL     1       9.105   5.029  24.607  0.00  0.00    +0.038 A 
ATOM     29  C   UNL     1       8.469   3.862  25.028  0.00  0.00    +0.006 A 
ENDBRANCH  22  23
ENDBRANCH   1  22
BRANCH   1  30
ATOM     30  C   UNL     1       8.136   0.038  25.065  0.00  0.00    +0.089 C 
BRANCH  30  31
ATOM     31  C   UNL     1       9.550   0.233  24.504  0.00  0.00    +0.154 C 
ATOM     32  O   UNL     1      10.485   0.599  25.221  0.00  0.00    -0.295 OA
BRANCH  31  33
ATOM     33  C   UNL     1       9.861  -0.311  23.098  0.00  0.00    +0.142 C 
BRANCH  33  34
ATOM     34  N   UNL     1       8.978  -1.468  22.942  0.00  0.00    -0.300 N 
ATOM     35  H   UNL     1       7.999  -1.335  22.710  0.00  0.00    +0.150 HD
ATOM     36  C   UNL     1       9.310  -2.734  23.383  0.00  0.00    +0.266 C 
ATOM     37  O   UNL     1      10.421  -3.040  23.803  0.00  0.00    -0.268 OA
BRANCH  36  38
ATOM     38  C   UNL     1       8.219  -3.709  23.271  0.00  0.00    +0.168 A 
ATOM     39  C   UNL     1       6.963  -3.532  22.637  0.00  0.00    +0.080 A 
ATOM     40  C   UNL     1       6.311  -4.726  22.812  0.00  0.00    +0.135 A 
ATOM     41  C   UNL     1       4.992  -5.244  22.403  0.00  0.00    +0.089 C 
ATOM     42  O   UNL     1       7.111  -5.571  23.515  0.00  0.00    -0.359 OA
ATOM     43  N   UNL     1       8.309  -4.942  23.809  0.00  0.00    -0.073 NA
ENDBRANCH  36  38
ENDBRANCH  33  34
BRANCH  33  44
ATOM     44  C   UNL     1       9.705   0.697  21.944  0.00  0.00    +0.010 C 
ATOM     45  C   UNL     1      10.273   2.070  22.320  0.00  0.00    +0.009 C 
ATOM     46  C   UNL     1       8.232   0.879  21.547  0.00  0.00    +0.009 C 
ENDBRANCH  33  44
ENDBRANCH  31  33
ENDBRANCH  30  31
ENDBRANCH   1  30
TORSDOF 17
ENDMDL
MODEL 6
REMARK VINA RESULT:      -6.4      3.147      5.019
REMARK  Name = 
REMARK  21 active torsions:
REMARK  status: ('A' for Active; 'I' for Inactive)
REMARK    1  A    between atoms: C_1  and  C_2
REMARK    2  A    between atoms: C_2  and  O_3
REMARK    3  A    between atoms: O_3  and  C_4
REMARK    4  A    between atoms: C_4  and  C_6
REMARK    5  A    between atoms: C_6  and  C_7
REMARK    6  A    between atoms: C_7  and  C_8
REMARK    7  A    between atoms: C_8  and  C_10
REMARK    8  A    between atoms: C_8  and  N_18
REMARK    9  A    between atoms: C_10  and  C_11
REMARK   10  A    between atoms: C_19  and  C_21
REMARK   11  A    between atoms: C_21  and  C_23
REMARK   12  A    between atoms: C_21  and  C_40
REMARK   13  A    between atoms: C_23  and  C_24
REMARK   14  A    between atoms: C_24  and  C_26
REMARK   15  A    between atoms: C_26  and  N_28
REMARK   16  A    between atoms: C_26  and  C_37
REMARK   17  A    between atoms: C_29  and  C_31
REMARK   18  A    between atoms: C_34  and  C_35
REMARK   19  A    between atoms: C_37  and  C_38
REMARK   20  A    between atoms: C_37  and  C_39
REMARK   21  A    between atoms: C_40  and  C_41
REMARK                            x       y       z     vdW  Elec       q    Type
REMARK                         _______ _______ _______ _____ _____    ______ ____
ROOT
ATOM      1  C   UNL     1       7.235  -2.609  25.597  0.00  0.00    +0.086 C 
ENDROOT
BRANCH   1   4
ATOM      2  N   UNL     1       5.043  -3.506  26.231  0.00  0.00    -0.312 N 
ATOM      3  H   UNL     1       4.787  -3.227  25.294  0.00  0.00    +0.149 HD
ATOM      4  C   UNL     1       6.396  -3.487  26.532  0.00  0.00    +0.217 C 
ATOM      5  O   UNL     1       6.861  -4.076  27.501  0.00  0.00    -0.275 OA
BRANCH   2   6
ATOM      6  C   UNL     1       4.114  -4.365  26.975  0.00  0.00    +0.074 C 
BRANCH   6   7
ATOM      7  C   UNL     1       3.152  -3.487  27.807  0.00  0.00    +0.033 C 
BRANCH   7   8
ATOM      8  C   UNL     1       2.107  -2.729  26.986  0.00  0.00    +0.122 C 
BRANCH   8   9
ATOM      9  C   UNL     1       2.321  -1.240  27.119  0.00  0.00    +0.307 C 
ATOM     10  O   UNL     1       1.586  -0.476  27.733  0.00  0.00    -0.251 OA
BRANCH   9  11
ATOM     11  O   UNL     1       3.439  -0.878  26.431  0.00  0.00    -0.465 OA
BRANCH  11  13
ATOM     12  C   UNL     1       4.201   1.378  26.646  0.00  0.00    +0.048 C 
ATOM     13  C   UNL     1       4.360  -0.045  27.148  0.00  0.00    +0.229 C 
ENDBRANCH  11  13
ENDBRANCH   9  11
ENDBRANCH   8   9
ENDBRANCH   7   8
ENDBRANCH   6   7
BRANCH   6  14
ATOM     14  C   UNL     1       3.345  -5.307  26.016  0.00  0.00    +0.035 C 
BRANCH  14  15
ATOM     15  C   UNL     1       3.853  -5.275  24.565  0.00  0.00    +0.078 C 
ATOM     16  C   UNL     1       3.924  -6.670  23.973  0.00  0.00    +0.216 C 
ATOM     17  O   UNL     1       4.725  -7.540  24.254  0.00  0.00    -0.276 OA
ATOM     18  N   UNL     1       2.876  -6.830  23.097  0.00  0.00    -0.315 N 
ATOM     19  H   UNL     1       2.704  -7.731  22.668  0.00  0.00    +0.149 HD
ATOM     20  C   UNL     1       1.994  -5.707  23.081  0.00  0.00    +0.105 C 
ATOM     21  C   UNL     1       2.861  -4.581  23.612  0.00  0.00    +0.031 C 
ENDBRANCH  14  15
ENDBRANCH   6  14
ENDBRANCH   2   6
ENDBRANCH   1   4
BRANCH   1  22
ATOM     22  C   UNL     1       8.231  -3.398  24.741  0.00  0.00    +0.048 C 
BRANCH  22  23
ATOM     23  C   UNL     1       7.574  -4.089  23.574  0.00  0.00    -0.046 A 
ATOM     24  C   UNL     1       6.704  -3.358  22.750  0.00  0.00    +0.006 A 
ATOM     25  C   UNL     1       6.104  -3.963  21.651  0.00  0.00    +0.038 A 
ATOM     26  C   UNL     1       6.370  -5.298  21.380  0.00  0.00    +0.123 A 
ATOM     27  F   UNL     1       5.798  -5.881  20.319  0.00  0.00    -0.205 F 
ATOM     28  C   UNL     1       7.223  -6.039  22.192  0.00  0.00    +0.038 A 
ATOM     29  C   UNL     1       7.834  -5.436  23.290  0.00  0.00    +0.006 A 
ENDBRANCH  22  23
ENDBRANCH   1  22
BRANCH   1  30
ATOM     30  C   UNL     1       7.926  -1.500  26.400  0.00  0.00    +0.089 C 
BRANCH  30  31
ATOM     31  C   UNL     1       7.957  -0.111  25.752  0.00  0.00    +0.154 C 
ATOM     32  O   UNL     1       7.673   0.907  26.390  0.00  0.00    -0.295 OA
BRANCH  31  33
ATOM     33  C   UNL     1       8.627   0.039  24.374  0.00  0.00    +0.142 C 
BRANCH  33  34
ATOM     34  N   UNL     1       8.571   1.473  24.087  0.00  0.00    -0.300 N 
ATOM     35  H   UNL     1       8.648   2.148  24.841  0.00  0.00    +0.150 HD
ATOM     36  C   UNL     1       8.121   1.984  22.886  0.00  0.00    +0.266 C 
ATOM     37  O   UNL     1       7.871   1.295  21.903  0.00  0.00    -0.268 OA
BRANCH  36  38
ATOM     38  C   UNL     1       7.998   3.447  22.868  0.00  0.00    +0.168 A 
ATOM     39  C   UNL     1       7.073   4.227  22.128  0.00  0.00    +0.080 A 
ATOM     40  C   UNL     1       7.372   5.526  22.455  0.00  0.00    +0.135 A 
ATOM     41  C   UNL     1       6.809   6.834  22.072  0.00  0.00    +0.089 C 
ATOM     42  O   UNL     1       8.414   5.537  23.327  0.00  0.00    -0.359 OA
ATOM     43  N   UNL     1       8.814   4.238  23.592  0.00  0.00    -0.073 NA
ENDBRANCH  36  38
ENDBRANCH  33  34
BRANCH  33  44
ATOM     44  C   UNL     1      10.058  -0.519  24.264  0.00  0.00    +0.010 C 
ATOM     45  C   UNL     1      11.105   0.567  24.541  0.00  0.00    +0.009 C 
ATOM     46  C   UNL     1      10.332  -1.105  22.870  0.00  0.00    +0.009 C 
ENDBRANCH  33  44
ENDBRANCH  31  33
ENDBRANCH  30  31
ENDBRANCH   1  30
TORSDOF 17
ENDMDL
MODEL 7
REMARK VINA RESULT:      -6.4      2.948      5.254
REMARK  Name = 
REMARK  21 active torsions:
REMARK  status: ('A' for Active; 'I' for Inactive)
REMARK    1  A    between atoms: C_1  and  C_2
REMARK    2  A    between atoms: C_2  and  O_3
REMARK    3  A    between atoms: O_3  and  C_4
REMARK    4  A    between atoms: C_4  and  C_6
REMARK    5  A    between atoms: C_6  and  C_7
REMARK    6  A    between atoms: C_7  and  C_8
REMARK    7  A    between atoms: C_8  and  C_10
REMARK    8  A    between atoms: C_8  and  N_18
REMARK    9  A    between atoms: C_10  and  C_11
REMARK   10  A    between atoms: C_19  and  C_21
REMARK   11  A    between atoms: C_21  and  C_23
REMARK   12  A    between atoms: C_21  and  C_40
REMARK   13  A    between atoms: C_23  and  C_24
REMARK   14  A    between atoms: C_24  and  C_26
REMARK   15  A    between atoms: C_26  and  N_28
REMARK   16  A    between atoms: C_26  and  C_37
REMARK   17  A    between atoms: C_29  and  C_31
REMARK   18  A    between atoms: C_34  and  C_35
REMARK   19  A    between atoms: C_37  and  C_38
REMARK   20  A    between atoms: C_37  and  C_39
REMARK   21  A    between atoms: C_40  and  C_41
REMARK                            x       y       z     vdW  Elec       q    Type
REMARK                         _______ _______ _______ _____ _____    ______ ____
ROOT
ATOM      1  C   UNL     1       7.778  -1.966  25.477  0.00  0.00    +0.086 C 
ENDROOT
BRANCH   1   4
ATOM      2  N   UNL     1       5.759  -2.861  26.541  0.00  0.00    -0.312 N 
ATOM      3  H   UNL     1       6.158  -3.753  26.283  0.00  0.00    +0.149 HD
ATOM      4  C   UNL     1       6.587  -1.756  26.418  0.00  0.00    +0.217 C 
ATOM      5  O   UNL     1       6.343  -0.689  26.970  0.00  0.00    -0.275 OA
BRANCH   2   6
ATOM      6  C   UNL     1       4.622  -2.856  27.470  0.00  0.00    +0.074 C 
BRANCH   6   7
ATOM      7  C   UNL     1       3.300  -2.861  26.668  0.00  0.00    +0.033 C 
BRANCH   7   8
ATOM      8  C   UNL     1       3.462  -3.132  25.172  0.00  0.00    +0.122 C 
BRANCH   8   9
ATOM      9  C   UNL     1       2.684  -4.367  24.781  0.00  0.00    +0.307 C 
ATOM     10  O   UNL     1       1.785  -4.870  25.444  0.00  0.00    -0.251 OA
BRANCH   9  11
ATOM     11  O   UNL     1       3.154  -4.844  23.595  0.00  0.00    -0.465 OA
BRANCH  11  13
ATOM     12  C   UNL     1       4.517  -6.696  24.252  0.00  0.00    +0.048 C 
ATOM     13  C   UNL     1       3.263  -6.271  23.508  0.00  0.00    +0.229 C 
ENDBRANCH  11  13
ENDBRANCH   9  11
ENDBRANCH   8   9
ENDBRANCH   7   8
ENDBRANCH   6   7
BRANCH   6  14
ATOM     14  C   UNL     1       4.703  -4.053  28.448  0.00  0.00    +0.035 C 
BRANCH  14  15
ATOM     15  C   UNL     1       4.857  -5.418  27.756  0.00  0.00    +0.078 C 
ATOM     16  C   UNL     1       6.138  -6.112  28.180  0.00  0.00    +0.216 C 
ATOM     17  O   UNL     1       7.272  -5.804  27.865  0.00  0.00    -0.276 OA
ATOM     18  N   UNL     1       5.822  -7.126  29.053  0.00  0.00    -0.315 N 
ATOM     19  H   UNL     1       6.556  -7.649  29.515  0.00  0.00    +0.149 HD
ATOM     20  C   UNL     1       4.431  -7.163  29.376  0.00  0.00    +0.105 C 
ATOM     21  C   UNL     1       3.789  -6.430  28.213  0.00  0.00    +0.031 C 
ENDBRANCH  14  15
ENDBRANCH   6  14
ENDBRANCH   2   6
ENDBRANCH   1   4
BRANCH   1  22
ATOM     22  C   UNL     1       8.107  -3.441  25.220  0.00  0.00    +0.048 C 
BRANCH  22  23
ATOM     23  C   UNL     1       7.567  -3.935  23.903  0.00  0.00    -0.046 A 
ATOM     24  C   UNL     1       7.853  -5.248  23.497  0.00  0.00    +0.006 A 
ATOM     25  C   UNL     1       7.346  -5.738  22.300  0.00  0.00    +0.038 A 
ATOM     26  C   UNL     1       6.558  -4.915  21.506  0.00  0.00    +0.123 A 
ATOM     27  F   UNL     1       6.064  -5.388  20.355  0.00  0.00    -0.205 F 
ATOM     28  C   UNL     1       6.274  -3.609  21.889  0.00  0.00    +0.038 A 
ATOM     29  C   UNL     1       6.772  -3.114  23.093  0.00  0.00    +0.006 A 
ENDBRANCH  22  23
ENDBRANCH   1  22
BRANCH   1  30
ATOM     30  C   UNL     1       8.996  -1.191  25.995  0.00  0.00    +0.089 C 
BRANCH  30  31
ATOM     31  C   UNL     1       9.554  -0.104  25.068  0.00  0.00    +0.154 C 
ATOM     32  O   UNL     1      10.620   0.468  25.310  0.00  0.00    -0.295 OA
BRANCH  31  33
ATOM     33  C   UNL     1       8.917   0.069  23.677  0.00  0.00    +0.142 C 
BRANCH  33  34
ATOM     34  N   UNL     1       8.398   1.438  23.673  0.00  0.00    -0.300 N 
ATOM     35  H   UNL     1       9.036   2.226  23.727  0.00  0.00    +0.150 HD
ATOM     36  C   UNL     1       7.071   1.741  23.903  0.00  0.00    +0.266 C 
ATOM     37  O   UNL     1       6.183   0.899  23.980  0.00  0.00    -0.268 OA
BRANCH  36  38
ATOM     38  C   UNL     1       6.797   3.179  24.013  0.00  0.00    +0.168 A 
ATOM     39  C   UNL     1       5.556   3.839  23.825  0.00  0.00    +0.080 A 
ATOM     40  C   UNL     1       5.831   5.167  24.036  0.00  0.00    +0.135 A 
ATOM     41  C   UNL     1       5.018   6.397  24.020  0.00  0.00    +0.089 C 
ATOM     42  O   UNL     1       7.152   5.308  24.322  0.00  0.00    -0.359 OA
ATOM     43  N   UNL     1       7.767   4.067  24.310  0.00  0.00    -0.073 NA
ENDBRANCH  36  38
ENDBRANCH  33  34
BRANCH  33  44
ATOM     44  C   UNL     1       9.846  -0.201  22.480  0.00  0.00    +0.010 C 
ATOM     45  C   UNL     1       9.146   0.098  21.149  0.00  0.00    +0.009 C 
ATOM     46  C   UNL     1      10.324  -1.661  22.452  0.00  0.00    +0.009 C 
ENDBRANCH  33  44
ENDBRANCH  31  33
ENDBRANCH  30  31
ENDBRANCH   1  30
TORSDOF 17
ENDMDL
MODEL 8
REMARK VINA RESULT:      -6.3      2.641      7.490
REMARK  Name = 
REMARK  21 active torsions:
REMARK  status: ('A' for Active; 'I' for Inactive)
REMARK    1  A    between atoms: C_1  and  C_2
REMARK    2  A    between atoms: C_2  and  O_3
REMARK    3  A    between atoms: O_3  and  C_4
REMARK    4  A    between atoms: C_4  and  C_6
REMARK    5  A    between atoms: C_6  and  C_7
REMARK    6  A    between atoms: C_7  and  C_8
REMARK    7  A    between atoms: C_8  and  C_10
REMARK    8  A    between atoms: C_8  and  N_18
REMARK    9  A    between atoms: C_10  and  C_11
REMARK   10  A    between atoms: C_19  and  C_21
REMARK   11  A    between atoms: C_21  and  C_23
REMARK   12  A    between atoms: C_21  and  C_40
REMARK   13  A    between atoms: C_23  and  C_24
REMARK   14  A    between atoms: C_24  and  C_26
REMARK   15  A    between atoms: C_26  and  N_28
REMARK   16  A    between atoms: C_26  and  C_37
REMARK   17  A    between atoms: C_29  and  C_31
REMARK   18  A    between atoms: C_34  and  C_35
REMARK   19  A    between atoms: C_37  and  C_38
REMARK   20  A    between atoms: C_37  and  C_39
REMARK   21  A    between atoms: C_40  and  C_41
REMARK                            x       y       z     vdW  Elec       q    Type
REMARK                         _______ _______ _______ _____ _____    ______ ____
ROOT
ATOM      1  C   UNL     1       8.469   2.005  25.187  0.00  0.00    +0.086 C 
ENDROOT
BRANCH   1   4
ATOM      2  N   UNL     1       6.206   1.580  26.027  0.00  0.00    -0.312 N 
ATOM      3  H   UNL     1       6.359   0.661  25.637  0.00  0.00    +0.149 HD
ATOM      4  C   UNL     1       7.316   2.406  26.113  0.00  0.00    +0.217 C 
ATOM      5  O   UNL     1       7.338   3.403  26.826  0.00  0.00    -0.275 OA
BRANCH   2   6
ATOM      6  C   UNL     1       5.048   1.774  26.909  0.00  0.00    +0.074 C 
BRANCH   6   7
ATOM      7  C   UNL     1       3.795   2.078  26.057  0.00  0.00    +0.033 C 
BRANCH   7   8
ATOM      8  C   UNL     1       3.860   3.387  25.267  0.00  0.00    +0.122 C 
BRANCH   8   9
ATOM      9  C   UNL     1       2.587   3.582  24.479  0.00  0.00    +0.307 C 
ATOM     10  O   UNL     1       1.648   4.289  24.825  0.00  0.00    -0.251 OA
BRANCH   9  11
ATOM     11  O   UNL     1       2.635   2.834  23.343  0.00  0.00    -0.465 OA
BRANCH  11  13
ATOM     12  C   UNL     1       2.426   3.918  21.222  0.00  0.00    +0.048 C 
ATOM     13  C   UNL     1       3.397   3.398  22.267  0.00  0.00    +0.229 C 
ENDBRANCH  11  13
ENDBRANCH   9  11
ENDBRANCH   8   9
ENDBRANCH   7   8
ENDBRANCH   6   7
BRANCH   6  14
ATOM     14  C   UNL     1       4.836   0.540  27.820  0.00  0.00    +0.035 C 
BRANCH  14  15
ATOM     15  C   UNL     1       4.143  -0.642  27.122  0.00  0.00    +0.078 C 
ATOM     16  C   UNL     1       5.143  -1.709  26.717  0.00  0.00    +0.216 C 
ATOM     17  O   UNL     1       5.962  -1.636  25.821  0.00  0.00    -0.276 OA
ATOM     18  N   UNL     1       5.028  -2.772  27.582  0.00  0.00    -0.315 N 
ATOM     19  H   UNL     1       5.678  -3.547  27.526  0.00  0.00    +0.149 HD
ATOM     20  C   UNL     1       4.101  -2.524  28.639  0.00  0.00    +0.105 C 
ATOM     21  C   UNL     1       3.220  -1.426  28.075  0.00  0.00    +0.031 C 
ENDBRANCH  14  15
ENDBRANCH   6  14
ENDBRANCH   2   6
ENDBRANCH   1   4
BRANCH   1  22
ATOM     22  C   UNL     1       8.478   2.758  23.852  0.00  0.00    +0.048 C 
BRANCH  22  23
ATOM     23  C   UNL     1       9.620   3.735  23.744  0.00  0.00    -0.046 A 
ATOM     24  C   UNL     1       9.395   5.086  24.052  0.00  0.00    +0.006 A 
ATOM     25  C   UNL     1      10.437   6.003  23.987  0.00  0.00    +0.038 A 
ATOM     26  C   UNL     1      11.702   5.572  23.610  0.00  0.00    +0.123 A 
ATOM     27  F   UNL     1      12.708   6.453  23.552  0.00  0.00    -0.205 F 
ATOM     28  C   UNL     1      11.939   4.239  23.293  0.00  0.00    +0.038 A 
ATOM     29  C   UNL     1      10.901   3.312  23.365  0.00  0.00    +0.006 A 
ENDBRANCH  22  23
ENDBRANCH   1  22
BRANCH   1  30
ATOM     30  C   UNL     1       8.473   0.485  24.985  0.00  0.00    +0.089 C 
BRANCH  30  31
ATOM     31  C   UNL     1       9.826  -0.151  24.641  0.00  0.00    +0.154 C 
ATOM     32  O   UNL     1      10.875   0.241  25.159  0.00  0.00    -0.295 OA
BRANCH  31  33
ATOM     33  C   UNL     1       9.833  -1.477  23.859  0.00  0.00    +0.142 C 
BRANCH  33  34
ATOM     34  N   UNL     1       8.899  -2.341  24.583  0.00  0.00    -0.300 N 
ATOM     35  H   UNL     1       8.113  -1.937  25.083  0.00  0.00    +0.150 HD
ATOM     36  C   UNL     1       9.174  -3.659  24.888  0.00  0.00    +0.266 C 
ATOM     37  O   UNL     1      10.146  -4.270  24.458  0.00  0.00    -0.268 OA
BRANCH  36  38
ATOM     38  C   UNL     1       8.172  -4.292  25.755  0.00  0.00    +0.168 A 
ATOM     39  C   UNL     1       7.144  -5.192  25.372  0.00  0.00    +0.080 A 
ATOM     40  C   UNL     1       6.486  -5.486  26.539  0.00  0.00    +0.135 A 
ATOM     41  C   UNL     1       5.342  -6.353  26.880  0.00  0.00    +0.089 C 
ATOM     42  O   UNL     1       7.066  -4.805  27.562  0.00  0.00    -0.359 OA
ATOM     43  N   UNL     1       8.124  -4.052  27.080  0.00  0.00    -0.073 NA
ENDBRANCH  36  38
ENDBRANCH  33  34
BRANCH  33  44
ATOM     44  C   UNL     1       9.484  -1.372  22.363  0.00  0.00    +0.010 C 
ATOM     45  C   UNL     1       9.833   0.013  21.804  0.00  0.00    +0.009 C 
ATOM     46  C   UNL     1       7.991  -1.629  22.111  0.00  0.00    +0.009 C 
ENDBRANCH  33  44
ENDBRANCH  31  33
ENDBRANCH  30  31
ENDBRANCH   1  30
TORSDOF 17
ENDMDL
MODEL 9
REMARK VINA RESULT:      -6.3      2.912      5.071
REMARK  Name = 
REMARK  21 active torsions:
REMARK  status: ('A' for Active; 'I' for Inactive)
REMARK    1  A    between atoms: C_1  and  C_2
REMARK    2  A    between atoms: C_2  and  O_3
REMARK    3  A    between atoms: O_3  and  C_4
REMARK    4  A    between atoms: C_4  and  C_6
REMARK    5  A    between atoms: C_6  and  C_7
REMARK    6  A    between atoms: C_7  and  C_8
REMARK    7  A    between atoms: C_8  and  C_10
REMARK    8  A    between atoms: C_8  and  N_18
REMARK    9  A    between atoms: C_10  and  C_11
REMARK   10  A    between atoms: C_19  and  C_21
REMARK   11  A    between atoms: C_21  and  C_23
REMARK   12  A    between atoms: C_21  and  C_40
REMARK   13  A    between atoms: C_23  and  C_24
REMARK   14  A    between atoms: C_24  and  C_26
REMARK   15  A    between atoms: C_26  and  N_28
REMARK   16  A    between atoms: C_26  and  C_37
REMARK   17  A    between atoms: C_29  and  C_31
REMARK   18  A    between atoms: C_34  and  C_35
REMARK   19  A    between atoms: C_37  and  C_38
REMARK   20  A    between atoms: C_37  and  C_39
REMARK   21  A    between atoms: C_40  and  C_41
REMARK                            x       y       z     vdW  Elec       q    Type
REMARK                         _______ _______ _______ _____ _____    ______ ____
ROOT
ATOM      1  C   UNL     1       8.086  -2.343  25.210  0.00  0.00    +0.086 C 
ENDROOT
BRANCH   1   4
ATOM      2  N   UNL     1       5.848  -2.613  26.174  0.00  0.00    -0.312 N 
ATOM      3  H   UNL     1       5.548  -2.222  25.292  0.00  0.00    +0.149 HD
ATOM      4  C   UNL     1       7.178  -2.996  26.258  0.00  0.00    +0.217 C 
ATOM      5  O   UNL     1       7.590  -3.745  27.136  0.00  0.00    -0.275 OA
BRANCH   2   6
ATOM      6  C   UNL     1       4.831  -3.211  27.048  0.00  0.00    +0.074 C 
BRANCH   6   7
ATOM      7  C   UNL     1       4.071  -2.093  27.797  0.00  0.00    +0.033 C 
BRANCH   7   8
ATOM      8  C   UNL     1       4.173  -0.709  27.154  0.00  0.00    +0.122 C 
BRANCH   8   9
ATOM      9  C   UNL     1       5.165   0.144  27.908  0.00  0.00    +0.307 C 
ATOM     10  O   UNL     1       6.378   0.130  27.735  0.00  0.00    -0.251 OA
BRANCH   9  11
ATOM     11  O   UNL     1       4.506   0.907  28.824  0.00  0.00    -0.465 OA
BRANCH  11  13
ATOM     12  C   UNL     1       3.597   3.109  29.024  0.00  0.00    +0.048 C 
ATOM     13  C   UNL     1       3.507   1.785  28.288  0.00  0.00    +0.229 C 
ENDBRANCH  11  13
ENDBRANCH   9  11
ENDBRANCH   8   9
ENDBRANCH   7   8
ENDBRANCH   6   7
BRANCH   6  14
ATOM     14  C   UNL     1       3.869  -4.113  26.237  0.00  0.00    +0.035 C 
BRANCH  14  15
ATOM     15  C   UNL     1       4.544  -4.870  25.081  0.00  0.00    +0.078 C 
ATOM     16  C   UNL     1       5.013  -6.245  25.519  0.00  0.00    +0.216 C 
ATOM     17  O   UNL     1       5.949  -6.495  26.253  0.00  0.00    -0.276 OA
ATOM     18  N   UNL     1       4.156  -7.187  25.001  0.00  0.00    -0.315 N 
ATOM     19  H   UNL     1       4.254  -8.162  25.259  0.00  0.00    +0.149 HD
ATOM     20  C   UNL     1       3.049  -6.607  24.311  0.00  0.00    +0.105 C 
ATOM     21  C   UNL     1       3.554  -5.221  23.954  0.00  0.00    +0.031 C 
ENDBRANCH  14  15
ENDBRANCH   6  14
ENDBRANCH   2   6
ENDBRANCH   1   4
BRANCH   1  22
ATOM     22  C   UNL     1       8.864  -3.351  24.356  0.00  0.00    +0.048 C 
BRANCH  22  23
ATOM     23  C   UNL     1       7.980  -4.093  23.388  0.00  0.00    -0.046 A 
ATOM     24  C   UNL     1       7.158  -3.363  22.516  0.00  0.00    +0.006 A 
ATOM     25  C   UNL     1       6.353  -4.021  21.594  0.00  0.00    +0.038 A 
ATOM     26  C   UNL     1       6.366  -5.409  21.546  0.00  0.00    +0.123 A 
ATOM     27  F   UNL     1       5.596  -6.044  20.655  0.00  0.00    -0.205 F 
ATOM     28  C   UNL     1       7.169  -6.148  22.409  0.00  0.00    +0.038 A 
ATOM     29  C   UNL     1       7.985  -5.493  23.330  0.00  0.00    +0.006 A 
ENDBRANCH  22  23
ENDBRANCH   1  22
BRANCH   1  30
ATOM     30  C   UNL     1       9.017  -1.328  25.885  0.00  0.00    +0.089 C 
BRANCH  30  31
ATOM     31  C   UNL     1       9.431  -0.118  25.038  0.00  0.00    +0.154 C 
ATOM     32  O   UNL     1      10.474   0.502  25.263  0.00  0.00    -0.295 OA
BRANCH  31  33
ATOM     33  C   UNL     1       8.679   0.144  23.721  0.00  0.00    +0.142 C 
BRANCH  33  34
ATOM     34  N   UNL     1       7.704   1.185  24.050  0.00  0.00    -0.300 N 
ATOM     35  H   UNL     1       8.018   2.114  24.314  0.00  0.00    +0.150 HD
ATOM     36  C   UNL     1       6.376   0.917  24.317  0.00  0.00    +0.266 C 
ATOM     37  O   UNL     1       5.858  -0.183  24.160  0.00  0.00    -0.268 OA
BRANCH  36  38
ATOM     38  C   UNL     1       5.613   2.083  24.779  0.00  0.00    +0.168 A 
ATOM     39  C   UNL     1       6.116   3.247  25.415  0.00  0.00    +0.080 A 
ATOM     40  C   UNL     1       5.009   4.025  25.643  0.00  0.00    +0.135 A 
ATOM     41  C   UNL     1       4.797   5.355  26.246  0.00  0.00    +0.089 C 
ATOM     42  O   UNL     1       3.906   3.375  25.188  0.00  0.00    -0.359 OA
ATOM     43  N   UNL     1       4.274   2.155  24.645  0.00  0.00    -0.073 NA
ENDBRANCH  36  38
ENDBRANCH  33  34
BRANCH  33  44
ATOM     44  C   UNL     1       9.558   0.532  22.517  0.00  0.00    +0.010 C 
ATOM     45  C   UNL     1       9.022   1.785  21.814  0.00  0.00    +0.009 C 
ATOM     46  C   UNL     1       9.635  -0.602  21.483  0.00  0.00    +0.009 C 
ENDBRANCH  33  44
ENDBRANCH  31  33
ENDBRANCH  30  31
ENDBRANCH   1  30
TORSDOF 17
ENDMDL
