MODEL 1
REMARK VINA RESULT:      -8.0      0.000      0.000
REMARK  Name = 
REMARK  5 active torsions:
REMARK  status: ('A' for Active; 'I' for Inactive)
REMARK    1  A    between atoms: C_3  and  C_4
REMARK    2  A    between atoms: C_4  and  O_5
REMARK    3  A    between atoms: O_5  and  C_6
REMARK    4  A    between atoms: C_11  and  C_12
REMARK    5  A    between atoms: C_12  and  C_13
REMARK                            x       y       z     vdW  Elec       q    Type
REMARK                         _______ _______ _______ _____ _____    ______ ____
ROOT
ATOM      1  C   UNL     1       9.349   0.309  22.677  0.00  0.00    +0.122 A 
ATOM      2  C   UNL     1       8.021  -0.024  22.937  0.00  0.00    +0.054 A 
ATOM      3  C   UNL     1       7.669  -1.329  23.279  0.00  0.00    -0.014 A 
ATOM      4  C   UNL     1       8.661  -2.327  23.356  0.00  0.00    -0.017 A 
ATOM      5  C   UNL     1       8.287  -3.611  23.778  0.00  0.00    +0.012 A 
ATOM      6  C   UNL     1       6.953  -3.905  24.105  0.00  0.00    -0.045 A 
ATOM      7  C   UNL     1       5.978  -2.917  23.954  0.00  0.00    +0.004 A 
ATOM      8  C   UNL     1       9.986  -1.997  23.025  0.00  0.00    +0.012 A 
ATOM      9  C   UNL     1       6.335  -1.635  23.558  0.00  0.00    +0.009 A 
ATOM     10  C   UNL     1      10.324  -0.686  22.677  0.00  0.00    +0.046 A 
ENDROOT
BRANCH   1  11
ATOM     11  O   UNL     1       9.777   1.583  22.418  0.00  0.00    -0.487 OA
BRANCH  11  12
ATOM     12  C   UNL     1      10.523   2.169  23.493  0.00  0.00    +0.267 C 
BRANCH  12  19
ATOM     13  F   UNL     1      12.514   4.139  23.384  0.00  0.00    -0.205 F 
ATOM     14  C   UNL     1      11.247   4.558  23.539  0.00  0.00    +0.130 A 
ATOM     15  C   UNL     1      10.998   5.924  23.598  0.00  0.00    +0.039 A 
ATOM     16  C   UNL     1       9.686   6.380  23.732  0.00  0.00    +0.003 A 
ATOM     17  C   UNL     1       8.636   5.467  23.809  0.00  0.00    +0.001 A 
ATOM     18  C   UNL     1       8.892   4.097  23.755  0.00  0.00    +0.010 A 
ATOM     19  C   UNL     1      10.208   3.629  23.635  0.00  0.00    +0.025 A 
ENDBRANCH  12  19
ENDBRANCH  11  12
ENDBRANCH   1  11
BRANCH   6  20
ATOM     20  C   UNL     1       6.564  -5.253  24.655  0.00  0.00    +0.059 C 
BRANCH  20  21
ATOM     21  C   UNL     1       6.065  -5.254  26.102  0.00  0.00    +0.146 C 
ATOM     22  C   UNL     1       7.132  -5.439  27.167  0.00  0.00    +0.234 C 
ATOM     23  O   UNL     1       8.259  -4.963  27.141  0.00  0.00    -0.274 OA
ATOM     24  N   UNL     1       6.644  -6.136  28.235  0.00  0.00    -0.246 N 
ATOM     25  H   UNL     1       7.196  -6.267  29.068  0.00  0.00    +0.158 HD
ATOM     26  C   UNL     1       5.431  -6.724  28.123  0.00  0.00    +0.279 C 
ATOM     27  O   UNL     1       4.855  -7.334  29.008  0.00  0.00    -0.263 OA
ATOM     28  S   UNL     1       4.788  -6.491  26.516  0.00  0.00    -0.054 S 
ENDBRANCH  20  21
ENDBRANCH   6  20
TORSDOF 5
ENDMDL
MODEL 2
REMARK VINA RESULT:      -7.9      4.765      9.445
REMARK  Name = 
REMARK  5 active torsions:
REMARK  status: ('A' for Active; 'I' for Inactive)
REMARK    1  A    between atoms: C_3  and  C_4
REMARK    2  A    between atoms: C_4  and  O_5
REMARK    3  A    between atoms: O_5  and  C_6
REMARK    4  A    between atoms: C_11  and  C_12
REMARK    5  A    between atoms: C_12  and  C_13
REMARK                            x       y       z     vdW  Elec       q    Type
REMARK                         _______ _______ _______ _____ _____    ______ ____
ROOT
ATOM      1  C   UNL     1       9.265  -2.928  24.271  0.00  0.00    +0.122 A 
ATOM      2  C   UNL     1       9.342  -2.211  23.079  0.00  0.00    +0.054 A 
ATOM      3  C   UNL     1       9.035  -0.851  23.047  0.00  0.00    -0.014 A 
ATOM      4  C   UNL     1       8.635  -0.193  24.227  0.00  0.00    -0.017 A 
ATOM      5  C   UNL     1       8.409   1.190  24.178  0.00  0.00    +0.012 A 
ATOM      6  C   UNL     1       8.564   1.906  22.980  0.00  0.00    -0.045 A 
ATOM      7  C   UNL     1       8.893   1.219  21.810  0.00  0.00    +0.004 A 
ATOM      8  C   UNL     1       8.494  -0.940  25.409  0.00  0.00    +0.012 A 
ATOM      9  C   UNL     1       9.141  -0.146  21.846  0.00  0.00    +0.009 A 
ATOM     10  C   UNL     1       8.799  -2.304  25.426  0.00  0.00    +0.046 A 
ENDROOT
BRANCH   1  11
ATOM     11  O   UNL     1       9.631  -4.242  24.393  0.00  0.00    -0.487 OA
BRANCH  11  12
ATOM     12  C   UNL     1       8.593  -5.083  24.914  0.00  0.00    +0.267 C 
BRANCH  12  19
ATOM     13  F   UNL     1       5.946  -4.279  25.360  0.00  0.00    -0.205 F 
ATOM     14  C   UNL     1       6.221  -4.844  24.173  0.00  0.00    +0.130 A 
ATOM     15  C   UNL     1       5.201  -4.961  23.236  0.00  0.00    +0.039 A 
ATOM     16  C   UNL     1       5.474  -5.520  21.987  0.00  0.00    +0.003 A 
ATOM     17  C   UNL     1       6.761  -5.961  21.687  0.00  0.00    +0.001 A 
ATOM     18  C   UNL     1       7.779  -5.847  22.633  0.00  0.00    +0.010 A 
ATOM     19  C   UNL     1       7.513  -5.299  23.895  0.00  0.00    +0.025 A 
ENDBRANCH  12  19
ENDBRANCH  11  12
ENDBRANCH   1  11
BRANCH   6  20
ATOM     20  C   UNL     1       8.420   3.406  22.944  0.00  0.00    +0.059 C 
BRANCH  20  21
ATOM     21  C   UNL     1       9.520   4.189  23.665  0.00  0.00    +0.146 C 
ATOM     22  C   UNL     1       9.624   5.662  23.308  0.00  0.00    +0.234 C 
ATOM     23  O   UNL     1       8.683   6.414  23.094  0.00  0.00    -0.274 OA
ATOM     24  N   UNL     1      10.920   6.087  23.350  0.00  0.00    -0.246 N 
ATOM     25  H   UNL     1      11.154   7.059  23.227  0.00  0.00    +0.158 HD
ATOM     26  C   UNL     1      11.901   5.162  23.475  0.00  0.00    +0.279 C 
ATOM     27  O   UNL     1      13.092   5.401  23.573  0.00  0.00    -0.263 OA
ATOM     28  S   UNL     1      11.221   3.553  23.478  0.00  0.00    -0.054 S 
ENDBRANCH  20  21
ENDBRANCH   6  20
TORSDOF 5
ENDMDL
MODEL 3
REMARK VINA RESULT:      -7.9      1.940      2.101
REMARK  Name = 
REMARK  5 active torsions:
REMARK  status: ('A' for Active; 'I' for Inactive)
REMARK    1  A    between atoms: C_3  and  C_4
REMARK    2  A    between atoms: C_4  and  O_5
REMARK    3  A    between atoms: O_5  and  C_6
REMARK    4  A    between atoms: C_11  and  C_12
REMARK    5  A    between atoms: C_12  and  C_13
REMARK                            x       y       z     vdW  Elec       q    Type
REMARK                         _______ _______ _______ _____ _____    ______ ____
ROOT
ATOM      1  C   UNL     1      10.282   0.345  24.151  0.00  0.00    +0.122 A 
ATOM      2  C   UNL     1       9.516  -0.088  25.232  0.00  0.00    +0.054 A 
ATOM      3  C   UNL     1       8.959  -1.365  25.242  0.00  0.00    -0.014 A 
ATOM      4  C   UNL     1       9.160  -2.229  24.147  0.00  0.00    -0.017 A 
ATOM      5  C   UNL     1       8.652  -3.534  24.221  0.00  0.00    +0.012 A 
ATOM      6  C   UNL     1       7.946  -3.972  25.353  0.00  0.00    -0.045 A 
ATOM      7  C   UNL     1       7.700  -3.075  26.395  0.00  0.00    +0.004 A 
ATOM      8  C   UNL     1       9.875  -1.759  23.032  0.00  0.00    +0.012 A 
ATOM      9  C   UNL     1       8.214  -1.787  26.346  0.00  0.00    +0.009 A 
ATOM     10  C   UNL     1      10.424  -0.474  23.032  0.00  0.00    +0.046 A 
ENDROOT
BRANCH   1  11
ATOM     11  O   UNL     1      10.927   1.552  24.110  0.00  0.00    -0.487 OA
BRANCH  11  12
ATOM     12  C   UNL     1      10.403   2.452  23.126  0.00  0.00    +0.267 C 
BRANCH  12  19
ATOM     13  F   UNL     1      12.552   4.249  23.079  0.00  0.00    -0.205 F 
ATOM     14  C   UNL     1      11.393   4.696  23.590  0.00  0.00    +0.130 A 
ATOM     15  C   UNL     1      11.318   6.015  24.024  0.00  0.00    +0.039 A 
ATOM     16  C   UNL     1      10.115   6.505  24.533  0.00  0.00    +0.003 A 
ATOM     17  C   UNL     1       8.999   5.673  24.606  0.00  0.00    +0.001 A 
ATOM     18  C   UNL     1       9.082   4.350  24.174  0.00  0.00    +0.010 A 
ATOM     19  C   UNL     1      10.289   3.844  23.675  0.00  0.00    +0.025 A 
ENDBRANCH  12  19
ENDBRANCH  11  12
ENDBRANCH   1  11
BRANCH   6  20
ATOM     20  C   UNL     1       7.486  -5.401  25.481  0.00  0.00    +0.059 C 
BRANCH  20  21
ATOM     21  C   UNL     1       5.969  -5.607  25.474  0.00  0.00    +0.146 C 
ATOM     22  C   UNL     1       5.421  -6.509  26.567  0.00  0.00    +0.234 C 
ATOM     23  O   UNL     1       5.818  -6.553  27.723  0.00  0.00    -0.274 OA
ATOM     24  N   UNL     1       4.339  -7.213  26.125  0.00  0.00    -0.246 N 
ATOM     25  H   UNL     1       3.802  -7.790  26.752  0.00  0.00    +0.158 HD
ATOM     26  C   UNL     1       4.049  -7.191  24.803  0.00  0.00    +0.279 C 
ATOM     27  O   UNL     1       3.091  -7.733  24.279  0.00  0.00    -0.263 OA
ATOM     28  S   UNL     1       5.250  -6.268  23.933  0.00  0.00    -0.054 S 
ENDBRANCH  20  21
ENDBRANCH   6  20
TORSDOF 5
ENDMDL
MODEL 4
REMARK VINA RESULT:      -7.9      1.747      2.170
REMARK  Name = 
REMARK  5 active torsions:
REMARK  status: ('A' for Active; 'I' for Inactive)
REMARK    1  A    between atoms: C_3  and  C_4
REMARK    2  A    between atoms: C_4  and  O_5
REMARK    3  A    between atoms: O_5  and  C_6
REMARK    4  A    between atoms: C_11  and  C_12
REMARK    5  A    between atoms: C_12  and  C_13
REMARK                            x       y       z     vdW  Elec       q    Type
REMARK                         _______ _______ _______ _____ _____    ______ ____
ROOT
ATOM      1  C   UNL     1       9.619   1.297  22.962  0.00  0.00    +0.122 A 
ATOM      2  C   UNL     1       8.900   0.301  22.304  0.00  0.00    +0.054 A 
ATOM      3  C   UNL     1       8.807  -0.982  22.841  0.00  0.00    -0.014 A 
ATOM      4  C   UNL     1       9.451  -1.282  24.058  0.00  0.00    -0.017 A 
ATOM      5  C   UNL     1       9.274  -2.559  24.612  0.00  0.00    +0.012 A 
ATOM      6  C   UNL     1       8.484  -3.524  23.966  0.00  0.00    -0.045 A 
ATOM      7  C   UNL     1       7.913  -3.223  22.728  0.00  0.00    +0.004 A 
ATOM      8  C   UNL     1      10.230  -0.291  24.679  0.00  0.00    +0.012 A 
ATOM      9  C   UNL     1       8.062  -1.958  22.177  0.00  0.00    +0.009 A 
ATOM     10  C   UNL     1      10.321   0.989  24.126  0.00  0.00    +0.046 A 
ENDROOT
BRANCH   1  11
ATOM     11  O   UNL     1       9.683   2.597  22.537  0.00  0.00    -0.487 OA
BRANCH  11  12
ATOM     12  C   UNL     1       9.196   3.542  23.498  0.00  0.00    +0.267 C 
BRANCH  12  19
ATOM     13  F   UNL     1       8.619   5.796  25.060  0.00  0.00    -0.205 F 
ATOM     14  C   UNL     1       9.877   5.674  24.604  0.00  0.00    +0.130 A 
ATOM     15  C   UNL     1      10.813   6.638  24.959  0.00  0.00    +0.039 A 
ATOM     16  C   UNL     1      12.130   6.515  24.516  0.00  0.00    +0.003 A 
ATOM     17  C   UNL     1      12.500   5.432  23.721  0.00  0.00    +0.001 A 
ATOM     18  C   UNL     1      11.555   4.470  23.363  0.00  0.00    +0.010 A 
ATOM     19  C   UNL     1      10.226   4.592  23.791  0.00  0.00    +0.025 A 
ENDBRANCH  12  19
ENDBRANCH  11  12
ENDBRANCH   1  11
BRANCH   6  20
ATOM     20  C   UNL     1       8.208  -4.860  24.605  0.00  0.00    +0.059 C 
BRANCH  20  21
ATOM     21  C   UNL     1       6.840  -4.998  25.278  0.00  0.00    +0.146 C 
ATOM     22  C   UNL     1       6.831  -5.724  26.612  0.00  0.00    +0.234 C 
ATOM     23  O   UNL     1       7.687  -5.634  27.481  0.00  0.00    -0.274 OA
ATOM     24  N   UNL     1       5.676  -6.432  26.778  0.00  0.00    -0.246 N 
ATOM     25  H   UNL     1       5.470  -6.898  27.647  0.00  0.00    +0.158 HD
ATOM     26  C   UNL     1       4.845  -6.571  25.719  0.00  0.00    +0.279 C 
ATOM     27  O   UNL     1       3.764  -7.134  25.735  0.00  0.00    -0.263 OA
ATOM     28  S   UNL     1       5.538  -5.824  24.300  0.00  0.00    -0.054 S 
ENDBRANCH  20  21
ENDBRANCH   6  20
TORSDOF 5
ENDMDL
MODEL 5
REMARK VINA RESULT:      -7.8      2.342      2.763
REMARK  Name = 
REMARK  5 active torsions:
REMARK  status: ('A' for Active; 'I' for Inactive)
REMARK    1  A    between atoms: C_3  and  C_4
REMARK    2  A    between atoms: C_4  and  O_5
REMARK    3  A    between atoms: O_5  and  C_6
REMARK    4  A    between atoms: C_11  and  C_12
REMARK    5  A    between atoms: C_12  and  C_13
REMARK                            x       y       z     vdW  Elec       q    Type
REMARK                         _______ _______ _______ _____ _____    ______ ____
ROOT
ATOM      1  C   UNL     1      10.258   0.472  24.193  0.00  0.00    +0.122 A 
ATOM      2  C   UNL     1       9.441   0.041  25.236  0.00  0.00    +0.054 A 
ATOM      3  C   UNL     1       8.912  -1.249  25.238  0.00  0.00    -0.014 A 
ATOM      4  C   UNL     1       9.195  -2.127  24.172  0.00  0.00    -0.017 A 
ATOM      5  C   UNL     1       8.712  -3.441  24.241  0.00  0.00    +0.012 A 
ATOM      6  C   UNL     1       7.952  -3.876  25.339  0.00  0.00    -0.045 A 
ATOM      7  C   UNL     1       7.626  -2.967  26.348  0.00  0.00    +0.004 A 
ATOM      8  C   UNL     1       9.964  -1.659  23.091  0.00  0.00    +0.012 A 
ATOM      9  C   UNL     1       8.114  -1.668  26.304  0.00  0.00    +0.009 A 
ATOM     10  C   UNL     1      10.483  -0.362  23.100  0.00  0.00    +0.046 A 
ENDROOT
BRANCH   1  11
ATOM     11  O   UNL     1      10.878   1.692  24.167  0.00  0.00    -0.487 OA
BRANCH  11  12
ATOM     12  C   UNL     1      10.507   2.503  23.044  0.00  0.00    +0.267 C 
BRANCH  12  19
ATOM     13  F   UNL     1       8.470   1.759  21.269  0.00  0.00    -0.205 F 
ATOM     14  C   UNL     1       8.130   2.572  22.283  0.00  0.00    +0.130 A 
ATOM     15  C   UNL     1       6.802   2.959  22.412  0.00  0.00    +0.039 A 
ATOM     16  C   UNL     1       6.424   3.782  23.474  0.00  0.00    +0.003 A 
ATOM     17  C   UNL     1       7.377   4.212  24.395  0.00  0.00    +0.001 A 
ATOM     18  C   UNL     1       8.710   3.824  24.258  0.00  0.00    +0.010 A 
ATOM     19  C   UNL     1       9.102   3.010  23.187  0.00  0.00    +0.025 A 
ENDBRANCH  12  19
ENDBRANCH  11  12
ENDBRANCH   1  11
BRANCH   6  20
ATOM     20  C   UNL     1       7.517  -5.313  25.466  0.00  0.00    +0.059 C 
BRANCH  20  21
ATOM     21  C   UNL     1       6.003  -5.543  25.480  0.00  0.00    +0.146 C 
ATOM     22  C   UNL     1       5.485  -6.453  26.581  0.00  0.00    +0.234 C 
ATOM     23  O   UNL     1       5.899  -6.490  27.732  0.00  0.00    -0.274 OA
ATOM     24  N   UNL     1       4.408  -7.175  26.155  0.00  0.00    -0.246 N 
ATOM     25  H   UNL     1       3.889  -7.760  26.789  0.00  0.00    +0.158 HD
ATOM     26  C   UNL     1       4.100  -7.158  24.837  0.00  0.00    +0.279 C 
ATOM     27  O   UNL     1       3.143  -7.716  24.326  0.00  0.00    -0.263 OA
ATOM     28  S   UNL     1       5.273  -6.217  23.949  0.00  0.00    -0.054 S 
ENDBRANCH  20  21
ENDBRANCH   6  20
TORSDOF 5
ENDMDL
MODEL 6
REMARK VINA RESULT:      -7.7      4.514      8.928
REMARK  Name = 
REMARK  5 active torsions:
REMARK  status: ('A' for Active; 'I' for Inactive)
REMARK    1  A    between atoms: C_3  and  C_4
REMARK    2  A    between atoms: C_4  and  O_5
REMARK    3  A    between atoms: O_5  and  C_6
REMARK    4  A    between atoms: C_11  and  C_12
REMARK    5  A    between atoms: C_12  and  C_13
REMARK                            x       y       z     vdW  Elec       q    Type
REMARK                         _______ _______ _______ _____ _____    ______ ____
ROOT
ATOM      1  C   UNL     1       9.456  -2.543  24.139  0.00  0.00    +0.122 A 
ATOM      2  C   UNL     1       9.759  -1.710  23.064  0.00  0.00    +0.054 A 
ATOM      3  C   UNL     1       9.720  -0.324  23.205  0.00  0.00    -0.014 A 
ATOM      4  C   UNL     1       9.361   0.247  24.443  0.00  0.00    -0.017 A 
ATOM      5  C   UNL     1       9.405   1.642  24.575  0.00  0.00    +0.012 A 
ATOM      6  C   UNL     1       9.786   2.459  23.497  0.00  0.00    -0.045 A 
ATOM      7  C   UNL     1      10.069   1.872  22.262  0.00  0.00    +0.004 A 
ATOM      8  C   UNL     1       8.989  -0.601  25.501  0.00  0.00    +0.012 A 
ATOM      9  C   UNL     1      10.050   0.492  22.121  0.00  0.00    +0.009 A 
ATOM     10  C   UNL     1       9.027  -1.989  25.344  0.00  0.00    +0.046 A 
ENDROOT
BRANCH   1  11
ATOM     11  O   UNL     1       9.555  -3.908  24.096  0.00  0.00    -0.487 OA
BRANCH  11  12
ATOM     12  C   UNL     1       8.537  -4.583  24.846  0.00  0.00    +0.267 C 
BRANCH  12  19
ATOM     13  F   UNL     1       5.867  -3.957  25.420  0.00  0.00    -0.205 F 
ATOM     14  C   UNL     1       6.104  -4.640  24.288  0.00  0.00    +0.130 A 
ATOM     15  C   UNL     1       5.033  -4.957  23.462  0.00  0.00    +0.039 A 
ATOM     16  C   UNL     1       5.263  -5.642  22.268  0.00  0.00    +0.003 A 
ATOM     17  C   UNL     1       6.560  -6.006  21.913  0.00  0.00    +0.001 A 
ATOM     18  C   UNL     1       7.631  -5.689  22.749  0.00  0.00    +0.010 A 
ATOM     19  C   UNL     1       7.409  -5.014  23.956  0.00  0.00    +0.025 A 
ENDBRANCH  12  19
ENDBRANCH  11  12
ENDBRANCH   1  11
BRANCH   6  20
ATOM     20  C   UNL     1       9.932   3.949  23.663  0.00  0.00    +0.059 C 
BRANCH  20  21
ATOM     21  C   UNL     1       8.623   4.741  23.679  0.00  0.00    +0.146 C 
ATOM     22  C   UNL     1       7.943   4.865  25.032  0.00  0.00    +0.234 C 
ATOM     23  O   UNL     1       8.510   5.021  26.105  0.00  0.00    -0.274 OA
ATOM     24  N   UNL     1       6.585   4.880  24.899  0.00  0.00    -0.246 N 
ATOM     25  H   UNL     1       5.986   5.048  25.692  0.00  0.00    +0.158 HD
ATOM     26  C   UNL     1       6.049   4.580  23.693  0.00  0.00    +0.279 C 
ATOM     27  O   UNL     1       4.861   4.601  23.420  0.00  0.00    -0.263 OA
ATOM     28  S   UNL     1       7.307   4.152  22.559  0.00  0.00    -0.054 S 
ENDBRANCH  20  21
ENDBRANCH   6  20
TORSDOF 5
ENDMDL
MODEL 7
REMARK VINA RESULT:      -7.6      4.668      8.967
REMARK  Name = 
REMARK  5 active torsions:
REMARK  status: ('A' for Active; 'I' for Inactive)
REMARK    1  A    between atoms: C_3  and  C_4
REMARK    2  A    between atoms: C_4  and  O_5
REMARK    3  A    between atoms: O_5  and  C_6
REMARK    4  A    between atoms: C_11  and  C_12
REMARK    5  A    between atoms: C_12  and  C_13
REMARK                            x       y       z     vdW  Elec       q    Type
REMARK                         _______ _______ _______ _____ _____    ______ ____
ROOT
ATOM      1  C   UNL     1       9.738  -2.040  23.679  0.00  0.00    +0.122 A 
ATOM      2  C   UNL     1       9.400  -1.068  24.618  0.00  0.00    +0.054 A 
ATOM      3  C   UNL     1       9.257   0.266  24.239  0.00  0.00    -0.014 A 
ATOM      4  C   UNL     1       9.465   0.642  22.896  0.00  0.00    -0.017 A 
ATOM      5  C   UNL     1       9.238   1.977  22.532  0.00  0.00    +0.012 A 
ATOM      6  C   UNL     1       8.825   2.926  23.481  0.00  0.00    -0.045 A 
ATOM      7  C   UNL     1       8.694   2.543  24.818  0.00  0.00    +0.004 A 
ATOM      8  C   UNL     1       9.873  -0.335  21.972  0.00  0.00    +0.012 A 
ATOM      9  C   UNL     1       8.894   1.221  25.191  0.00  0.00    +0.009 A 
ATOM     10  C   UNL     1      10.018  -1.668  22.366  0.00  0.00    +0.046 A 
ENDROOT
BRANCH   1  11
ATOM     11  O   UNL     1       9.813  -3.378  23.963  0.00  0.00    -0.487 OA
BRANCH  11  12
ATOM     12  C   UNL     1       8.610  -3.914  24.529  0.00  0.00    +0.267 C 
BRANCH  12  19
ATOM     13  F   UNL     1       6.546  -2.300  23.534  0.00  0.00    -0.205 F 
ATOM     14  C   UNL     1       6.687  -3.518  22.986  0.00  0.00    +0.130 A 
ATOM     15  C   UNL     1       5.840  -3.886  21.947  0.00  0.00    +0.039 A 
ATOM     16  C   UNL     1       5.989  -5.136  21.347  0.00  0.00    +0.003 A 
ATOM     17  C   UNL     1       6.981  -6.009  21.790  0.00  0.00    +0.001 A 
ATOM     18  C   UNL     1       7.825  -5.636  22.837  0.00  0.00    +0.010 A 
ATOM     19  C   UNL     1       7.675  -4.389  23.455  0.00  0.00    +0.025 A 
ENDBRANCH  12  19
ENDBRANCH  11  12
ENDBRANCH   1  11
BRANCH   6  20
ATOM     20  C   UNL     1       8.484   4.336  23.076  0.00  0.00    +0.059 C 
BRANCH  20  21
ATOM     21  C   UNL     1       7.138   4.509  22.368  0.00  0.00    +0.146 C 
ATOM     22  C   UNL     1       6.642   5.939  22.232  0.00  0.00    +0.234 C 
ATOM     23  O   UNL     1       7.338   6.917  21.997  0.00  0.00    -0.274 OA
ATOM     24  N   UNL     1       5.281   5.996  22.308  0.00  0.00    -0.246 N 
ATOM     25  H   UNL     1       4.786   6.858  22.146  0.00  0.00    +0.158 HD
ATOM     26  C   UNL     1       4.607   4.886  22.690  0.00  0.00    +0.279 C 
ATOM     27  O   UNL     1       3.394   4.780  22.755  0.00  0.00    -0.263 OA
ATOM     28  S   UNL     1       5.725   3.603  23.085  0.00  0.00    -0.054 S 
ENDBRANCH  20  21
ENDBRANCH   6  20
TORSDOF 5
ENDMDL
MODEL 8
REMARK VINA RESULT:      -7.6      2.271      2.937
REMARK  Name = 
REMARK  5 active torsions:
REMARK  status: ('A' for Active; 'I' for Inactive)
REMARK    1  A    between atoms: C_3  and  C_4
REMARK    2  A    between atoms: C_4  and  O_5
REMARK    3  A    between atoms: O_5  and  C_6
REMARK    4  A    between atoms: C_11  and  C_12
REMARK    5  A    between atoms: C_12  and  C_13
REMARK                            x       y       z     vdW  Elec       q    Type
REMARK                         _______ _______ _______ _____ _____    ______ ____
ROOT
ATOM      1  C   UNL     1       9.379  -1.813  22.984  0.00  0.00    +0.122 A 
ATOM      2  C   UNL     1       8.218  -2.167  22.299  0.00  0.00    +0.054 A 
ATOM      3  C   UNL     1       7.468  -3.273  22.696  0.00  0.00    -0.014 A 
ATOM      4  C   UNL     1       7.888  -4.049  23.795  0.00  0.00    -0.017 A 
ATOM      5  C   UNL     1       7.071  -5.108  24.217  0.00  0.00    +0.012 A 
ATOM      6  C   UNL     1       5.867  -5.401  23.556  0.00  0.00    -0.045 A 
ATOM      7  C   UNL     1       5.509  -4.660  22.428  0.00  0.00    +0.004 A 
ATOM      8  C   UNL     1       9.096  -3.724  24.435  0.00  0.00    +0.012 A 
ATOM      9  C   UNL     1       6.296  -3.596  22.010  0.00  0.00    +0.009 A 
ATOM     10  C   UNL     1       9.842  -2.617  24.023  0.00  0.00    +0.046 A 
ENDROOT
BRANCH   1  11
ATOM     11  O   UNL     1      10.117  -0.694  22.702  0.00  0.00    -0.487 OA
BRANCH  11  12
ATOM     12  C   UNL     1      10.616  -0.026  23.868  0.00  0.00    +0.267 C 
BRANCH  12  19
ATOM     13  F   UNL     1       8.327   0.237  25.463  0.00  0.00    -0.205 F 
ATOM     14  C   UNL     1       8.812   1.357  24.901  0.00  0.00    +0.130 A 
ATOM     15  C   UNL     1       8.183   2.566  25.171  0.00  0.00    +0.039 A 
ATOM     16  C   UNL     1       8.688   3.743  24.618  0.00  0.00    +0.003 A 
ATOM     17  C   UNL     1       9.815   3.701  23.799  0.00  0.00    +0.001 A 
ATOM     18  C   UNL     1      10.439   2.484  23.528  0.00  0.00    +0.010 A 
ATOM     19  C   UNL     1       9.931   1.294  24.067  0.00  0.00    +0.025 A 
ENDBRANCH  12  19
ENDBRANCH  11  12
ENDBRANCH   1  11
BRANCH   6  20
ATOM     20  C   UNL     1       4.938  -6.472  24.067  0.00  0.00    +0.059 C 
BRANCH  20  21
ATOM     21  C   UNL     1       4.113  -6.093  25.299  0.00  0.00    +0.146 C 
ATOM     22  C   UNL     1       4.583  -6.687  26.616  0.00  0.00    +0.234 C 
ATOM     23  O   UNL     1       5.748  -6.840  26.956  0.00  0.00    -0.274 OA
ATOM     24  N   UNL     1       3.527  -6.948  27.441  0.00  0.00    -0.246 N 
ATOM     25  H   UNL     1       3.671  -7.261  28.388  0.00  0.00    +0.158 HD
ATOM     26  C   UNL     1       2.275  -6.862  26.936  0.00  0.00    +0.279 C 
ATOM     27  O   UNL     1       1.243  -7.021  27.567  0.00  0.00    -0.263 OA
ATOM     28  S   UNL     1       2.331  -6.486  25.231  0.00  0.00    -0.054 S 
ENDBRANCH  20  21
ENDBRANCH   6  20
TORSDOF 5
ENDMDL
MODEL 9
REMARK VINA RESULT:      -7.6      4.895      9.470
REMARK  Name = 
REMARK  5 active torsions:
REMARK  status: ('A' for Active; 'I' for Inactive)
REMARK    1  A    between atoms: C_3  and  C_4
REMARK    2  A    between atoms: C_4  and  O_5
REMARK    3  A    between atoms: O_5  and  C_6
REMARK    4  A    between atoms: C_11  and  C_12
REMARK    5  A    between atoms: C_12  and  C_13
REMARK                            x       y       z     vdW  Elec       q    Type
REMARK                         _______ _______ _______ _____ _____    ______ ____
ROOT
ATOM      1  C   UNL     1       8.495  -2.824  23.197  0.00  0.00    +0.122 A 
ATOM      2  C   UNL     1       8.613  -1.814  22.244  0.00  0.00    +0.054 A 
ATOM      3  C   UNL     1       9.131  -0.567  22.591  0.00  0.00    -0.014 A 
ATOM      4  C   UNL     1       9.533  -0.317  23.919  0.00  0.00    -0.017 A 
ATOM      5  C   UNL     1      10.121   0.920  24.219  0.00  0.00    +0.012 A 
ATOM      6  C   UNL     1      10.298   1.897  23.225  0.00  0.00    -0.045 A 
ATOM      7  C   UNL     1       9.828   1.650  21.933  0.00  0.00    +0.004 A 
ATOM      8  C   UNL     1       9.345  -1.319  24.887  0.00  0.00    +0.012 A 
ATOM      9  C   UNL     1       9.263   0.423  21.615  0.00  0.00    +0.009 A 
ATOM     10  C   UNL     1       8.818  -2.562  24.527  0.00  0.00    +0.046 A 
ENDROOT
BRANCH   1  11
ATOM     11  O   UNL     1       8.075  -4.095  22.910  0.00  0.00    -0.487 OA
BRANCH  11  12
ATOM     12  C   UNL     1       7.445  -4.756  24.015  0.00  0.00    +0.267 C 
BRANCH  12  19
ATOM     13  F   UNL     1       6.128  -6.658  22.433  0.00  0.00    -0.205 F 
ATOM     14  C   UNL     1       5.361  -5.763  23.077  0.00  0.00    +0.130 A 
ATOM     15  C   UNL     1       3.980  -5.855  22.953  0.00  0.00    +0.039 A 
ATOM     16  C   UNL     1       3.166  -4.951  23.636  0.00  0.00    +0.003 A 
ATOM     17  C   UNL     1       3.739  -3.963  24.434  0.00  0.00    +0.001 A 
ATOM     18  C   UNL     1       5.126  -3.872  24.550  0.00  0.00    +0.010 A 
ATOM     19  C   UNL     1       5.952  -4.766  23.857  0.00  0.00    +0.025 A 
ENDBRANCH  12  19
ENDBRANCH  11  12
ENDBRANCH   1  11
BRANCH   6  20
ATOM     20  C   UNL     1      11.020   3.186  23.519  0.00  0.00    +0.059 C 
BRANCH  20  21
ATOM     21  C   UNL     1      10.134   4.432  23.599  0.00  0.00    +0.146 C 
ATOM     22  C   UNL     1      10.846   5.725  23.960  0.00  0.00    +0.234 C 
ATOM     23  O   UNL     1      11.959   6.059  23.578  0.00  0.00    -0.274 OA
ATOM     24  N   UNL     1      10.039   6.540  24.700  0.00  0.00    -0.246 N 
ATOM     25  H   UNL     1      10.325   7.474  24.945  0.00  0.00    +0.158 HD
ATOM     26  C   UNL     1       8.874   6.038  25.175  0.00  0.00    +0.279 C 
ATOM     27  O   UNL     1       8.039   6.662  25.806  0.00  0.00    -0.263 OA
ATOM     28  S   UNL     1       8.725   4.349  24.756  0.00  0.00    -0.054 S 
ENDBRANCH  20  21
ENDBRANCH   6  20
TORSDOF 5
ENDMDL
