MODEL 1
REMARK VINA RESULT:      -5.0      0.000      0.000
REMARK  Name = 
REMARK  5 active torsions:
REMARK  status: ('A' for Active; 'I' for Inactive)
REMARK    1  A    between atoms: N_1  and  CA_2
REMARK    2  A    between atoms: CA_2  and  CB_4
REMARK    3  A    between atoms: CA_2  and  C_11
REMARK    4  A    between atoms: CB_4  and  CG_5
REMARK    5  A    between atoms: C_11  and  O_12
REMARK                            x       y       z     vdW  Elec       q    Type
REMARK                         _______ _______ _______ _____ _____    ______ ____
ROOT
ATOM      1  CA  PHE A   1      11.134   4.915  23.744  0.00  0.00    +0.161 C 
ENDROOT
BRANCH   1   2
ATOM      2  N   PHE A   1      10.099   5.724  23.019  0.00  0.00    -0.318 NA
ATOM      3  H1  PHE A   1      10.034   6.640  23.478  0.00  0.00    +0.119 HD
ATOM      4  H2  PHE A   1      10.464   5.937  22.086  0.00  0.00    +0.119 HD
ENDBRANCH   1   2
BRANCH   1   5
ATOM      5  C   PHE A   1      12.498   5.607  23.503  0.00  0.00    +0.322 C 
ATOM      6  OXT PHE A   1      13.183   5.536  22.498  0.00  0.00    -0.249 OA
BRANCH   5   7
ATOM      7  O   PHE A   1      12.887   6.297  24.612  0.00  0.00    -0.480 OA
ATOM      8  H   PHE A   1      13.841   6.065  24.746  0.00  0.00    +0.295 HD
ENDBRANCH   5   7
ENDBRANCH   1   5
BRANCH   1   9
ATOM      9  CB  PHE A   1      11.072   3.451  23.279  0.00  0.00    +0.033 C 
BRANCH   9  10
ATOM     10  CG  PHE A   1       9.755   2.699  23.619  0.00  0.00    -0.009 C 
ATOM     11  CD2 PHE A   1      10.013   1.494  24.546  0.00  0.00    +0.003 C 
ATOM     12  CE2 PHE A   1      10.632   0.293  23.834  0.00  0.00    +0.000 C 
ATOM     13  CZ  PHE A   1       9.842  -0.109  22.593  0.00  0.00    +0.000 C 
ATOM     14  CE1 PHE A   1       9.607   1.072  21.656  0.00  0.00    +0.000 C 
ATOM     15  CD1 PHE A   1       8.957   2.244  22.386  0.00  0.00    +0.003 C 
ENDBRANCH   9  10
ENDBRANCH   1   9
TORSDOF 5
ENDMDL
MODEL 2
REMARK VINA RESULT:      -4.8      8.517      9.233
REMARK  Name = 
REMARK  5 active torsions:
REMARK  status: ('A' for Active; 'I' for Inactive)
REMARK    1  A    between atoms: N_1  and  CA_2
REMARK    2  A    between atoms: CA_2  and  CB_4
REMARK    3  A    between atoms: CA_2  and  C_11
REMARK    4  A    between atoms: CB_4  and  CG_5
REMARK    5  A    between atoms: C_11  and  O_12
REMARK                            x       y       z     vdW  Elec       q    Type
REMARK                         _______ _______ _______ _____ _____    ______ ____
ROOT
ATOM      1  CA  PHE A   1       8.038  -5.325  25.641  0.00  0.00    +0.161 C 
ENDROOT
BRANCH   1   2
ATOM      2  N   PHE A   1       8.107  -5.590  27.116  0.00  0.00    -0.318 NA
ATOM      3  H1  PHE A   1       9.005  -6.047  27.315  0.00  0.00    +0.119 HD
ATOM      4  H2  PHE A   1       8.174  -4.686  27.594  0.00  0.00    +0.119 HD
ENDBRANCH   1   2
BRANCH   1   5
ATOM      5  C   PHE A   1       9.445  -4.853  25.201  0.00  0.00    +0.322 C 
ATOM      6  OXT PHE A   1       9.700  -3.959  24.414  0.00  0.00    -0.249 OA
BRANCH   5   7
ATOM      7  O   PHE A   1      10.411  -5.619  25.783  0.00  0.00    -0.480 OA
ATOM      8  H   PHE A   1      11.208  -5.524  25.203  0.00  0.00    +0.295 HD
ENDBRANCH   5   7
ENDBRANCH   1   5
BRANCH   1   9
ATOM      9  CB  PHE A   1       6.908  -4.327  25.341  0.00  0.00    +0.033 C 
BRANCH   9  10
ATOM     10  CG  PHE A   1       5.793  -4.847  24.391  0.00  0.00    -0.009 C 
ATOM     11  CD2 PHE A   1       6.378  -5.682  23.234  0.00  0.00    +0.003 C 
ATOM     12  CE2 PHE A   1       7.050  -4.843  22.150  0.00  0.00    +0.000 C 
ATOM     13  CZ  PHE A   1       6.140  -3.731  21.638  0.00  0.00    +0.000 C 
ATOM     14  CE1 PHE A   1       5.580  -2.881  22.775  0.00  0.00    +0.000 C 
ATOM     15  CD1 PHE A   1       4.885  -3.743  23.827  0.00  0.00    +0.003 C 
ENDBRANCH   9  10
ENDBRANCH   1   9
TORSDOF 5
ENDMDL
MODEL 3
REMARK VINA RESULT:      -4.7      7.211      8.384
REMARK  Name = 
REMARK  5 active torsions:
REMARK  status: ('A' for Active; 'I' for Inactive)
REMARK    1  A    between atoms: N_1  and  CA_2
REMARK    2  A    between atoms: CA_2  and  CB_4
REMARK    3  A    between atoms: CA_2  and  C_11
REMARK    4  A    between atoms: CB_4  and  CG_5
REMARK    5  A    between atoms: C_11  and  O_12
REMARK                            x       y       z     vdW  Elec       q    Type
REMARK                         _______ _______ _______ _____ _____    ______ ____
ROOT
ATOM      1  CA  PHE A   1       9.136  -4.496  25.512  0.00  0.00    +0.161 C 
ENDROOT
BRANCH   1   2
ATOM      2  N   PHE A   1      10.191  -5.548  25.340  0.00  0.00    -0.318 NA
ATOM      3  H1  PHE A   1       9.723  -6.458  25.264  0.00  0.00    +0.119 HD
ATOM      4  H2  PHE A   1      10.624  -5.411  24.421  0.00  0.00    +0.119 HD
ENDBRANCH   1   2
BRANCH   1   5
ATOM      5  C   PHE A   1       7.842  -5.222  25.954  0.00  0.00    +0.322 C 
ATOM      6  OXT PHE A   1       6.764  -5.199  25.388  0.00  0.00    -0.249 OA
BRANCH   5   7
ATOM      7  O   PHE A   1       8.042  -5.882  27.130  0.00  0.00    -0.480 OA
ATOM      8  H   PHE A   1       7.688  -6.795  26.983  0.00  0.00    +0.295 HD
ENDBRANCH   5   7
ENDBRANCH   1   5
BRANCH   1   9
ATOM      9  CB  PHE A   1       8.997  -3.678  24.217  0.00  0.00    +0.033 C 
BRANCH   9  10
ATOM     10  CG  PHE A   1       9.714  -2.299  24.219  0.00  0.00    -0.009 C 
ATOM     11  CD2 PHE A   1       8.841  -1.207  24.871  0.00  0.00    +0.003 C 
ATOM     12  CE2 PHE A   1       7.697  -0.724  23.981  0.00  0.00    +0.000 C 
ATOM     13  CZ  PHE A   1       8.183  -0.306  22.597  0.00  0.00    +0.000 C 
ATOM     14  CE1 PHE A   1       9.023  -1.393  21.933  0.00  0.00    +0.000 C 
ATOM     15  CD1 PHE A   1      10.178  -1.832  22.830  0.00  0.00    +0.003 C 
ENDBRANCH   9  10
ENDBRANCH   1   9
TORSDOF 5
ENDMDL
MODEL 4
REMARK VINA RESULT:      -4.7      4.771      5.900
REMARK  Name = 
REMARK  5 active torsions:
REMARK  status: ('A' for Active; 'I' for Inactive)
REMARK    1  A    between atoms: N_1  and  CA_2
REMARK    2  A    between atoms: CA_2  and  CB_4
REMARK    3  A    between atoms: CA_2  and  C_11
REMARK    4  A    between atoms: CB_4  and  CG_5
REMARK    5  A    between atoms: C_11  and  O_12
REMARK                            x       y       z     vdW  Elec       q    Type
REMARK                         _______ _______ _______ _____ _____    ______ ____
ROOT
ATOM      1  CA  PHE A   1      10.172  -1.263  22.970  0.00  0.00    +0.161 C 
ENDROOT
BRANCH   1   2
ATOM      2  N   PHE A   1      10.124  -1.546  21.497  0.00  0.00    -0.318 NA
ATOM      3  H1  PHE A   1       9.186  -1.896  21.271  0.00  0.00    +0.119 HD
ATOM      4  H2  PHE A   1      10.183  -0.650  21.004  0.00  0.00    +0.119 HD
ENDBRANCH   1   2
BRANCH   1   5
ATOM      5  C   PHE A   1       9.538  -2.482  23.683  0.00  0.00    +0.322 C 
ATOM      6  OXT PHE A   1      10.127  -3.449  24.134  0.00  0.00    -0.249 OA
BRANCH   5   7
ATOM      7  O   PHE A   1       8.180  -2.371  23.707  0.00  0.00    -0.480 OA
ATOM      8  H   PHE A   1       7.848  -3.052  23.070  0.00  0.00    +0.295 HD
ENDBRANCH   5   7
ENDBRANCH   1   5
BRANCH   1   9
ATOM      9  CB  PHE A   1       9.482   0.078  23.267  0.00  0.00    +0.033 C 
BRANCH   9  10
ATOM     10  CG  PHE A   1       9.738   1.204  22.226  0.00  0.00    -0.009 C 
ATOM     11  CD2 PHE A   1      10.359   2.454  22.884  0.00  0.00    +0.003 C 
ATOM     12  CE2 PHE A   1       9.361   3.285  23.687  0.00  0.00    +0.000 C 
ATOM     13  CZ  PHE A   1       8.119   3.634  22.874  0.00  0.00    +0.000 C 
ATOM     14  CE1 PHE A   1       7.481   2.400  22.244  0.00  0.00    +0.000 C 
ATOM     15  CD1 PHE A   1       8.493   1.607  21.420  0.00  0.00    +0.003 C 
ENDBRANCH   9  10
ENDBRANCH   1   9
TORSDOF 5
ENDMDL
MODEL 5
REMARK VINA RESULT:      -4.7      5.512      6.913
REMARK  Name = 
REMARK  5 active torsions:
REMARK  status: ('A' for Active; 'I' for Inactive)
REMARK    1  A    between atoms: N_1  and  CA_2
REMARK    2  A    between atoms: CA_2  and  CB_4
REMARK    3  A    between atoms: CA_2  and  C_11
REMARK    4  A    between atoms: CB_4  and  CG_5
REMARK    5  A    between atoms: C_11  and  O_12
REMARK                            x       y       z     vdW  Elec       q    Type
REMARK                         _______ _______ _______ _____ _____    ______ ____
ROOT
ATOM      1  CA  PHE A   1       8.555  -2.798  24.214  0.00  0.00    +0.161 C 
ENDROOT
BRANCH   1   2
ATOM      2  N   PHE A   1       9.860  -3.534  24.289  0.00  0.00    -0.318 NA
ATOM      3  H1  PHE A   1      10.333  -3.254  25.156  0.00  0.00    +0.119 HD
ATOM      4  H2  PHE A   1       9.652  -4.527  24.426  0.00  0.00    +0.119 HD
ENDBRANCH   1   2
BRANCH   1   5
ATOM      5  C   PHE A   1       7.766  -3.398  23.025  0.00  0.00    +0.322 C 
ATOM      6  OXT PHE A   1       7.207  -2.781  22.136  0.00  0.00    -0.249 OA
BRANCH   5   7
ATOM      7  O   PHE A   1       7.722  -4.758  23.117  0.00  0.00    -0.480 OA
ATOM      8  H   PHE A   1       7.836  -5.088  22.190  0.00  0.00    +0.295 HD
ENDBRANCH   5   7
ENDBRANCH   1   5
BRANCH   1   9
ATOM      9  CB  PHE A   1       8.813  -1.286  24.110  0.00  0.00    +0.033 C 
BRANCH   9  10
ATOM     10  CG  PHE A   1      10.159  -0.883  23.447  0.00  0.00    -0.009 C 
ATOM     11  CD2 PHE A   1      10.747   0.392  24.086  0.00  0.00    +0.003 C 
ATOM     12  CE2 PHE A   1      10.038   1.675  23.659  0.00  0.00    +0.000 C 
ATOM     13  CZ  PHE A   1       9.939   1.799  22.142  0.00  0.00    +0.000 C 
ATOM     14  CE1 PHE A   1       9.331   0.553  21.504  0.00  0.00    +0.000 C 
ATOM     15  CD1 PHE A   1      10.080  -0.710  21.921  0.00  0.00    +0.003 C 
ENDBRANCH   9  10
ENDBRANCH   1   9
TORSDOF 5
ENDMDL
MODEL 6
REMARK VINA RESULT:      -4.6      6.476      7.914
REMARK  Name = 
REMARK  5 active torsions:
REMARK  status: ('A' for Active; 'I' for Inactive)
REMARK    1  A    between atoms: N_1  and  CA_2
REMARK    2  A    between atoms: CA_2  and  CB_4
REMARK    3  A    between atoms: CA_2  and  C_11
REMARK    4  A    between atoms: CB_4  and  CG_5
REMARK    5  A    between atoms: C_11  and  O_12
REMARK                            x       y       z     vdW  Elec       q    Type
REMARK                         _______ _______ _______ _____ _____    ______ ____
ROOT
ATOM      1  CA  PHE A   1       9.241  -4.140  24.897  0.00  0.00    +0.161 C 
ENDROOT
BRANCH   1   2
ATOM      2  N   PHE A   1      10.304  -5.189  25.038  0.00  0.00    -0.318 NA
ATOM      3  H1  PHE A   1      10.659  -5.154  26.000  0.00  0.00    +0.119 HD
ATOM      4  H2  PHE A   1       9.851  -6.105  24.971  0.00  0.00    +0.119 HD
ENDBRANCH   1   2
BRANCH   1   5
ATOM      5  C   PHE A   1       8.000  -4.834  24.286  0.00  0.00    +0.322 C 
ATOM      6  OXT PHE A   1       7.768  -5.001  23.102  0.00  0.00    -0.249 OA
BRANCH   5   7
ATOM      7  O   PHE A   1       7.130  -5.211  25.266  0.00  0.00    -0.480 OA
ATOM      8  H   PHE A   1       6.311  -4.676  25.112  0.00  0.00    +0.295 HD
ENDBRANCH   5   7
ENDBRANCH   1   5
BRANCH   1   9
ATOM      9  CB  PHE A   1       9.779  -2.957  24.076  0.00  0.00    +0.033 C 
BRANCH   9  10
ATOM     10  CG  PHE A   1       8.868  -1.698  24.043  0.00  0.00    -0.009 C 
ATOM     11  CD2 PHE A   1       8.362  -1.401  22.617  0.00  0.00    +0.003 C 
ATOM     12  CE2 PHE A   1       9.421  -0.782  21.707  0.00  0.00    +0.000 C 
ATOM     13  CZ  PHE A   1      10.077   0.441  22.338  0.00  0.00    +0.000 C 
ATOM     14  CE1 PHE A   1      10.607   0.147  23.738  0.00  0.00    +0.000 C 
ATOM     15  CD1 PHE A   1       9.519  -0.438  24.636  0.00  0.00    +0.003 C 
ENDBRANCH   9  10
ENDBRANCH   1   9
TORSDOF 5
ENDMDL
MODEL 7
REMARK VINA RESULT:      -4.5      4.198      5.493
REMARK  Name = 
REMARK  5 active torsions:
REMARK  status: ('A' for Active; 'I' for Inactive)
REMARK    1  A    between atoms: N_1  and  CA_2
REMARK    2  A    between atoms: CA_2  and  CB_4
REMARK    3  A    between atoms: CA_2  and  C_11
REMARK    4  A    between atoms: CB_4  and  CG_5
REMARK    5  A    between atoms: C_11  and  O_12
REMARK                            x       y       z     vdW  Elec       q    Type
REMARK                         _______ _______ _______ _____ _____    ______ ____
ROOT
ATOM      1  CA  PHE A   1       9.204  -0.646  23.546  0.00  0.00    +0.161 C 
ENDROOT
BRANCH   1   2
ATOM      2  N   PHE A   1       8.407  -1.075  24.743  0.00  0.00    -0.318 NA
ATOM      3  H1  PHE A   1       8.132  -0.232  25.260  0.00  0.00    +0.119 HD
ATOM      4  H2  PHE A   1       7.520  -1.463  24.406  0.00  0.00    +0.119 HD
ENDBRANCH   1   2
BRANCH   1   5
ATOM      5  C   PHE A   1      10.004  -1.883  23.070  0.00  0.00    +0.322 C 
ATOM      6  OXT PHE A   1      10.285  -2.867  23.732  0.00  0.00    -0.249 OA
BRANCH   5   7
ATOM      7  O   PHE A   1      10.421  -1.717  21.783  0.00  0.00    -0.480 OA
ATOM      8  H   PHE A   1       9.828  -2.293  21.238  0.00  0.00    +0.295 HD
ENDBRANCH   5   7
ENDBRANCH   1   5
BRANCH   1   9
ATOM      9  CB  PHE A   1      10.068   0.574  23.904  0.00  0.00    +0.033 C 
BRANCH   9  10
ATOM     10  CG  PHE A   1      10.234   1.627  22.774  0.00  0.00    -0.009 C 
ATOM     11  CD2 PHE A   1      10.605   3.014  23.341  0.00  0.00    +0.003 C 
ATOM     12  CE2 PHE A   1       9.431   3.745  23.988  0.00  0.00    +0.000 C 
ATOM     13  CZ  PHE A   1       8.220   3.820  23.064  0.00  0.00    +0.000 C 
ATOM     14  CE1 PHE A   1       7.829   2.448  22.521  0.00  0.00    +0.000 C 
ATOM     15  CD1 PHE A   1       9.012   1.755  21.850  0.00  0.00    +0.003 C 
ENDBRANCH   9  10
ENDBRANCH   1   9
TORSDOF 5
ENDMDL
MODEL 8
REMARK VINA RESULT:      -4.5      7.763      9.097
REMARK  Name = 
REMARK  5 active torsions:
REMARK  status: ('A' for Active; 'I' for Inactive)
REMARK    1  A    between atoms: N_1  and  CA_2
REMARK    2  A    between atoms: CA_2  and  CB_4
REMARK    3  A    between atoms: CA_2  and  C_11
REMARK    4  A    between atoms: CB_4  and  CG_5
REMARK    5  A    between atoms: C_11  and  O_12
REMARK                            x       y       z     vdW  Elec       q    Type
REMARK                         _______ _______ _______ _____ _____    ______ ____
ROOT
ATOM      1  CA  PHE A   1       9.006  -3.360  24.608  0.00  0.00    +0.161 C 
ENDROOT
BRANCH   1   2
ATOM      2  N   PHE A   1      10.196  -2.971  23.782  0.00  0.00    -0.318 NA
ATOM      3  H1  PHE A   1       9.871  -2.773  22.829  0.00  0.00    +0.119 HD
ATOM      4  H2  PHE A   1      10.534  -2.067  24.125  0.00  0.00    +0.119 HD
ENDBRANCH   1   2
BRANCH   1   5
ATOM      5  C   PHE A   1       9.472  -4.475  25.575  0.00  0.00    +0.322 C 
ATOM      6  OXT PHE A   1       9.060  -4.680  26.703  0.00  0.00    -0.249 OA
BRANCH   5   7
ATOM      7  O   PHE A   1      10.479  -5.204  25.016  0.00  0.00    -0.480 OA
ATOM      8  H   PHE A   1      10.326  -5.158  24.039  0.00  0.00    +0.295 HD
ENDBRANCH   5   7
ENDBRANCH   1   5
BRANCH   1   9
ATOM      9  CB  PHE A   1       7.840  -3.760  23.688  0.00  0.00    +0.033 C 
BRANCH   9  10
ATOM     10  CG  PHE A   1       7.405  -5.250  23.773  0.00  0.00    -0.009 C 
ATOM     11  CD2 PHE A   1       7.265  -5.881  22.373  0.00  0.00    +0.003 C 
ATOM     12  CE2 PHE A   1       6.003  -5.450  21.629  0.00  0.00    +0.000 C 
ATOM     13  CZ  PHE A   1       4.745  -5.653  22.467  0.00  0.00    +0.000 C 
ATOM     14  CE1 PHE A   1       4.864  -5.007  23.844  0.00  0.00    +0.000 C 
ATOM     15  CD1 PHE A   1       6.116  -5.481  24.578  0.00  0.00    +0.003 C 
ENDBRANCH   9  10
ENDBRANCH   1   9
TORSDOF 5
ENDMDL
MODEL 9
REMARK VINA RESULT:      -4.5      5.068      6.342
REMARK  Name = 
REMARK  5 active torsions:
REMARK  status: ('A' for Active; 'I' for Inactive)
REMARK    1  A    between atoms: N_1  and  CA_2
REMARK    2  A    between atoms: CA_2  and  CB_4
REMARK    3  A    between atoms: CA_2  and  C_11
REMARK    4  A    between atoms: CB_4  and  CG_5
REMARK    5  A    between atoms: C_11  and  O_12
REMARK                            x       y       z     vdW  Elec       q    Type
REMARK                         _______ _______ _______ _____ _____    ______ ____
ROOT
ATOM      1  CA  PHE A   1       8.675  -2.014  24.983  0.00  0.00    +0.161 C 
ENDROOT
BRANCH   1   2
ATOM      2  N   PHE A   1       8.489  -2.443  26.409  0.00  0.00    -0.318 NA
ATOM      3  H1  PHE A   1       9.417  -2.515  26.843  0.00  0.00    +0.119 HD
ATOM      4  H2  PHE A   1       8.036  -1.674  26.911  0.00  0.00    +0.119 HD
ENDBRANCH   1   2
BRANCH   1   5
ATOM      5  C   PHE A   1       9.441  -3.151  24.266  0.00  0.00    +0.322 C 
ATOM      6  OXT PHE A   1       9.245  -4.348  24.383  0.00  0.00    -0.249 OA
BRANCH   5   7
ATOM      7  O   PHE A   1      10.440  -2.641  23.490  0.00  0.00    -0.480 OA
ATOM      8  H   PHE A   1      11.281  -2.867  23.962  0.00  0.00    +0.295 HD
ENDBRANCH   5   7
ENDBRANCH   1   5
BRANCH   1   9
ATOM      9  CB  PHE A   1       9.374  -0.645  24.937  0.00  0.00    +0.033 C 
BRANCH   9  10
ATOM     10  CG  PHE A   1       8.553   0.501  24.284  0.00  0.00    -0.009 C 
ATOM     11  CD2 PHE A   1       8.273   0.221  22.793  0.00  0.00    +0.003 C 
ATOM     12  CE2 PHE A   1       9.485   0.439  21.890  0.00  0.00    +0.000 C 
ATOM     13  CZ  PHE A   1      10.116   1.812  22.097  0.00  0.00    +0.000 C 
ATOM     14  CE1 PHE A   1      10.423   2.086  23.566  0.00  0.00    +0.000 C 
ATOM     15  CD1 PHE A   1       9.187   1.893  24.441  0.00  0.00    +0.003 C 
ENDBRANCH   9  10
ENDBRANCH   1   9
TORSDOF 5
ENDMDL
