MODEL 1
REMARK VINA RESULT:      -5.6      0.000      0.000
REMARK  Name = 
REMARK  20 active torsions:
REMARK  status: ('A' for Active; 'I' for Inactive)
REMARK    1  A    between atoms: C_2  and  C_3
REMARK    2  A    between atoms: C_2  and  N_4
REMARK    3  A    between atoms: C_2  and  C_27
REMARK    4  A    between atoms: C_5  and  C_7
REMARK    5  A    between atoms: C_7  and  C_9
REMARK    6  A    between atoms: C_7  and  N_13
REMARK    7  A    between atoms: C_9  and  C_10
REMARK    8  A    between atoms: C_10  and  C_11
REMARK    9  A    between atoms: C_10  and  C_12
REMARK   10  A    between atoms: C_14  and  C_16
REMARK   11  A    between atoms: C_16  and  C_18
REMARK   12  A    between atoms: C_16  and  C_22
REMARK   13  A    between atoms: C_18  and  C_19
REMARK   14  A    between atoms: C_19  and  C_20
REMARK   15  A    between atoms: C_19  and  C_21
REMARK   16  A    between atoms: C_22  and  C_23
REMARK   17  A    between atoms: N_25  and  O_26
REMARK   18  A    between atoms: C_27  and  O_29
REMARK   19  A    between atoms: O_29  and  C_30
REMARK   20  A    between atoms: C_30  and  C_31
REMARK                            x       y       z     vdW  Elec       q    Type
REMARK                         _______ _______ _______ _____ _____    ______ ____
ROOT
ATOM      1  C   UNL     1       9.086  -0.535  25.868  0.00  0.00    +0.159 C 
ENDROOT
BRANCH   1   4
ATOM      2  N   UNL     1       7.710  -2.499  25.284  0.00  0.00    -0.301 N 
ATOM      3  H   UNL     1       6.996  -2.035  25.854  0.00  0.00    +0.150 HD
ATOM      4  C   UNL     1       8.897  -1.846  25.071  0.00  0.00    +0.234 C 
ATOM      5  O   UNL     1       9.766  -2.273  24.314  0.00  0.00    -0.274 OA
BRANCH   2   6
ATOM      6  C   UNL     1       7.324  -3.712  24.572  0.00  0.00    +0.179 C 
ATOM      7  C   UNL     1       6.518  -4.613  25.493  0.00  0.00    +0.040 C 
BRANCH   6   8
ATOM      8  C   UNL     1       6.546  -3.435  23.276  0.00  0.00    +0.327 C 
ATOM      9  O   UNL     1       5.445  -2.900  23.242  0.00  0.00    -0.249 OA
BRANCH   8  10
ATOM     10  O   UNL     1       7.209  -3.909  22.182  0.00  0.00    -0.464 OA
BRANCH  10  11
ATOM     11  C   UNL     1       6.498  -4.858  21.377  0.00  0.00    +0.229 C 
ATOM     12  C   UNL     1       6.759  -6.240  21.950  0.00  0.00    +0.048 C 
ENDBRANCH  10  11
ENDBRANCH   8  10
ENDBRANCH   6   8
ENDBRANCH   2   6
ENDBRANCH   1   4
BRANCH   1  13
ATOM     13  N   UNL     1       9.081   0.624  24.951  0.00  0.00    -0.304 N 
ATOM     14  H   UNL     1       8.249   1.201  24.952  0.00  0.00    +0.149 HD
ATOM     15  C   UNL     1      10.213   1.112  24.346  0.00  0.00    +0.217 C 
ATOM     16  O   UNL     1      11.325   0.621  24.548  0.00  0.00    -0.275 OA
BRANCH  15  17
ATOM     17  C   UNL     1      10.027   2.303  23.419  0.00  0.00    +0.084 C 
BRANCH  17  18
ATOM     18  C   UNL     1       9.803   1.766  21.996  0.00  0.00    +0.110 C 
BRANCH  18  19
ATOM     19  C   UNL     1       9.215   0.381  21.959  0.00  0.00    +0.236 C 
ATOM     20  N   UNL     1      10.116  -0.583  21.579  0.00  0.00    -0.197 N 
ATOM     21  H   UNL     1      11.118  -0.472  21.698  0.00  0.00    +0.182 HD
ATOM     22  O   UNL     1       8.033   0.129  22.182  0.00  0.00    -0.274 OA
BRANCH  20  23
ATOM     23  O   UNL     1       9.630  -1.913  21.604  0.00  0.00    -0.295 OA
ATOM     24  H   UNL     1       9.752  -2.164  22.546  0.00  0.00    +0.241 HD
ENDBRANCH  20  23
ENDBRANCH  18  19
ENDBRANCH  17  18
BRANCH  17  25
ATOM     25  C   UNL     1       8.917   3.269  23.883  0.00  0.00    +0.016 C 
BRANCH  25  26
ATOM     26  C   UNL     1       7.710   3.462  22.936  0.00  0.00    -0.016 C 
ATOM     27  C   UNL     1       7.531   4.952  22.629  0.00  0.00    +0.007 C 
ATOM     28  C   UNL     1       6.401   2.913  23.502  0.00  0.00    +0.007 C 
ENDBRANCH  25  26
ENDBRANCH  17  25
ENDBRANCH  15  17
ENDBRANCH   1  13
BRANCH   1  29
ATOM     29  C   UNL     1       8.106  -0.371  27.047  0.00  0.00    +0.034 C 
BRANCH  29  30
ATOM     30  C   UNL     1       7.108   0.799  26.954  0.00  0.00    -0.015 C 
ATOM     31  C   UNL     1       6.910   1.404  28.348  0.00  0.00    +0.007 C 
ATOM     32  C   UNL     1       5.757   0.381  26.378  0.00  0.00    +0.007 C 
ENDBRANCH  29  30
ENDBRANCH   1  29
TORSDOF 14
ENDMDL
MODEL 2
REMARK VINA RESULT:      -5.5      2.557      6.697
REMARK  Name = 
REMARK  20 active torsions:
REMARK  status: ('A' for Active; 'I' for Inactive)
REMARK    1  A    between atoms: C_2  and  C_3
REMARK    2  A    between atoms: C_2  and  N_4
REMARK    3  A    between atoms: C_2  and  C_27
REMARK    4  A    between atoms: C_5  and  C_7
REMARK    5  A    between atoms: C_7  and  C_9
REMARK    6  A    between atoms: C_7  and  N_13
REMARK    7  A    between atoms: C_9  and  C_10
REMARK    8  A    between atoms: C_10  and  C_11
REMARK    9  A    between atoms: C_10  and  C_12
REMARK   10  A    between atoms: C_14  and  C_16
REMARK   11  A    between atoms: C_16  and  C_18
REMARK   12  A    between atoms: C_16  and  C_22
REMARK   13  A    between atoms: C_18  and  C_19
REMARK   14  A    between atoms: C_19  and  C_20
REMARK   15  A    between atoms: C_19  and  C_21
REMARK   16  A    between atoms: C_22  and  C_23
REMARK   17  A    between atoms: N_25  and  O_26
REMARK   18  A    between atoms: C_27  and  O_29
REMARK   19  A    between atoms: O_29  and  C_30
REMARK   20  A    between atoms: C_30  and  C_31
REMARK                            x       y       z     vdW  Elec       q    Type
REMARK                         _______ _______ _______ _____ _____    ______ ____
ROOT
ATOM      1  C   UNL     1       8.671  -0.777  24.563  0.00  0.00    +0.159 C 
ENDROOT
BRANCH   1   4
ATOM      2  N   UNL     1       7.295   1.231  24.978  0.00  0.00    -0.301 N 
ATOM      3  H   UNL     1       7.465   1.421  23.985  0.00  0.00    +0.150 HD
ATOM      4  C   UNL     1       7.773   0.058  25.505  0.00  0.00    +0.234 C 
ATOM      5  O   UNL     1       7.524  -0.307  26.652  0.00  0.00    -0.274 OA
BRANCH   2   6
ATOM      6  C   UNL     1       6.378   2.114  25.689  0.00  0.00    +0.179 C 
ATOM      7  C   UNL     1       7.143   3.302  26.250  0.00  0.00    +0.040 C 
BRANCH   6   8
ATOM      8  C   UNL     1       5.200   2.593  24.825  0.00  0.00    +0.327 C 
ATOM      9  O   UNL     1       4.158   1.967  24.686  0.00  0.00    -0.249 OA
BRANCH   8  10
ATOM     10  O   UNL     1       5.487   3.769  24.195  0.00  0.00    -0.464 OA
BRANCH  10  11
ATOM     11  C   UNL     1       5.488   3.731  22.763  0.00  0.00    +0.229 C 
ATOM     12  C   UNL     1       6.932   3.799  22.298  0.00  0.00    +0.048 C 
ENDBRANCH  10  11
ENDBRANCH   8  10
ENDBRANCH   6   8
ENDBRANCH   2   6
ENDBRANCH   1   4
BRANCH   1  13
ATOM     13  N   UNL     1       8.221  -2.183  24.543  0.00  0.00    -0.304 N 
ATOM     14  H   UNL     1       7.221  -2.342  24.568  0.00  0.00    +0.149 HD
ATOM     15  C   UNL     1       9.041  -3.232  24.204  0.00  0.00    +0.217 C 
ATOM     16  O   UNL     1      10.213  -3.063  23.868  0.00  0.00    -0.275 OA
BRANCH  15  17
ATOM     17  C   UNL     1       8.419  -4.620  24.250  0.00  0.00    +0.084 C 
BRANCH  17  18
ATOM     18  C   UNL     1       8.909  -5.317  25.530  0.00  0.00    +0.110 C 
BRANCH  18  19
ATOM     19  C   UNL     1       8.113  -4.957  26.755  0.00  0.00    +0.236 C 
ATOM     20  N   UNL     1       7.523  -6.041  27.359  0.00  0.00    -0.197 N 
ATOM     21  H   UNL     1       7.885  -6.985  27.261  0.00  0.00    +0.182 HD
ATOM     22  O   UNL     1       7.943  -3.807  27.153  0.00  0.00    -0.274 OA
BRANCH  20  23
ATOM     23  O   UNL     1       6.827  -5.764  28.560  0.00  0.00    -0.295 OA
ATOM     24  H   UNL     1       5.907  -5.624  28.243  0.00  0.00    +0.241 HD
ENDBRANCH  20  23
ENDBRANCH  18  19
ENDBRANCH  17  18
BRANCH  17  25
ATOM     25  C   UNL     1       6.882  -4.604  24.120  0.00  0.00    +0.016 C 
BRANCH  25  26
ATOM     26  C   UNL     1       6.293  -4.849  22.711  0.00  0.00    -0.016 C 
ATOM     27  C   UNL     1       7.168  -5.854  21.957  0.00  0.00    +0.007 C 
ATOM     28  C   UNL     1       6.169  -3.576  21.876  0.00  0.00    +0.007 C 
ENDBRANCH  25  26
ENDBRANCH  17  25
ENDBRANCH  15  17
ENDBRANCH   1  13
BRANCH   1  29
ATOM     29  C   UNL     1       8.827  -0.176  23.152  0.00  0.00    +0.034 C 
BRANCH  29  30
ATOM     30  C   UNL     1      10.192   0.457  22.822  0.00  0.00    -0.015 C 
ATOM     31  C   UNL     1      10.985   0.650  24.119  0.00  0.00    +0.007 C 
ATOM     32  C   UNL     1      10.066   1.793  22.093  0.00  0.00    +0.007 C 
ENDBRANCH  29  30
ENDBRANCH   1  29
TORSDOF 14
ENDMDL
MODEL 3
REMARK VINA RESULT:      -5.5      2.060      7.091
REMARK  Name = 
REMARK  20 active torsions:
REMARK  status: ('A' for Active; 'I' for Inactive)
REMARK    1  A    between atoms: C_2  and  C_3
REMARK    2  A    between atoms: C_2  and  N_4
REMARK    3  A    between atoms: C_2  and  C_27
REMARK    4  A    between atoms: C_5  and  C_7
REMARK    5  A    between atoms: C_7  and  C_9
REMARK    6  A    between atoms: C_7  and  N_13
REMARK    7  A    between atoms: C_9  and  C_10
REMARK    8  A    between atoms: C_10  and  C_11
REMARK    9  A    between atoms: C_10  and  C_12
REMARK   10  A    between atoms: C_14  and  C_16
REMARK   11  A    between atoms: C_16  and  C_18
REMARK   12  A    between atoms: C_16  and  C_22
REMARK   13  A    between atoms: C_18  and  C_19
REMARK   14  A    between atoms: C_19  and  C_20
REMARK   15  A    between atoms: C_19  and  C_21
REMARK   16  A    between atoms: C_22  and  C_23
REMARK   17  A    between atoms: N_25  and  O_26
REMARK   18  A    between atoms: C_27  and  O_29
REMARK   19  A    between atoms: O_29  and  C_30
REMARK   20  A    between atoms: C_30  and  C_31
REMARK                            x       y       z     vdW  Elec       q    Type
REMARK                         _______ _______ _______ _____ _____    ______ ____
ROOT
ATOM      1  C   UNL     1       7.641  -3.383  22.642  0.00  0.00    +0.159 C 
ENDROOT
BRANCH   1   4
ATOM      2  N   UNL     1       7.635  -0.914  22.693  0.00  0.00    -0.301 N 
ATOM      3  H   UNL     1       6.850  -1.037  23.341  0.00  0.00    +0.150 HD
ATOM      4  C   UNL     1       8.286  -2.035  22.243  0.00  0.00    +0.234 C 
ATOM      5  O   UNL     1       9.303  -1.984  21.555  0.00  0.00    -0.274 OA
BRANCH   2   6
ATOM      6  C   UNL     1       8.130   0.440  22.477  0.00  0.00    +0.179 C 
ATOM      7  C   UNL     1       6.963   1.413  22.443  0.00  0.00    +0.040 C 
BRANCH   6   8
ATOM      8  C   UNL     1       9.168   0.883  23.521  0.00  0.00    +0.327 C 
ATOM      9  O   UNL     1      10.258   0.346  23.668  0.00  0.00    -0.249 OA
BRANCH   8  10
ATOM     10  O   UNL     1       8.698   1.907  24.291  0.00  0.00    -0.464 OA
BRANCH  10  11
ATOM     11  C   UNL     1       9.467   3.117  24.264  0.00  0.00    +0.229 C 
ATOM     12  C   UNL     1       8.576   4.243  24.757  0.00  0.00    +0.048 C 
ENDBRANCH  10  11
ENDBRANCH   8  10
ENDBRANCH   6   8
ENDBRANCH   2   6
ENDBRANCH   1   4
BRANCH   1  13
ATOM     13  N   UNL     1       7.477  -3.455  24.108  0.00  0.00    -0.304 N 
ATOM     14  H   UNL     1       6.558  -3.237  24.475  0.00  0.00    +0.149 HD
ATOM     15  C   UNL     1       8.382  -4.068  24.940  0.00  0.00    +0.217 C 
ATOM     16  O   UNL     1       9.393  -4.623  24.508  0.00  0.00    -0.275 OA
BRANCH  15  17
ATOM     17  C   UNL     1       8.066  -4.037  26.427  0.00  0.00    +0.084 C 
BRANCH  17  18
ATOM     18  C   UNL     1       7.022  -2.934  26.668  0.00  0.00    +0.110 C 
BRANCH  18  19
ATOM     19  C   UNL     1       7.512  -1.554  26.318  0.00  0.00    +0.236 C 
ATOM     20  N   UNL     1       8.705  -1.231  26.919  0.00  0.00    -0.197 N 
ATOM     21  H   UNL     1       9.373  -1.935  27.220  0.00  0.00    +0.182 HD
ATOM     22  O   UNL     1       6.889  -0.759  25.619  0.00  0.00    -0.274 OA
BRANCH  20  23
ATOM     23  O   UNL     1       9.245   0.027  26.560  0.00  0.00    -0.295 OA
ATOM     24  H   UNL     1       9.821   0.236  27.327  0.00  0.00    +0.241 HD
ENDBRANCH  20  23
ENDBRANCH  18  19
ENDBRANCH  17  18
BRANCH  17  25
ATOM     25  C   UNL     1       7.636  -5.409  26.987  0.00  0.00    +0.016 C 
BRANCH  25  26
ATOM     26  C   UNL     1       6.159  -5.562  27.417  0.00  0.00    -0.016 C 
ATOM     27  C   UNL     1       6.088  -6.298  28.759  0.00  0.00    +0.007 C 
ATOM     28  C   UNL     1       5.305  -6.312  26.396  0.00  0.00    +0.007 C 
ENDBRANCH  25  26
ENDBRANCH  17  25
ENDBRANCH  15  17
ENDBRANCH   1  13
BRANCH   1  29
ATOM     29  C   UNL     1       6.343  -3.708  21.876  0.00  0.00    +0.034 C 
BRANCH  29  30
ATOM     30  C   UNL     1       6.005  -5.200  21.701  0.00  0.00    -0.015 C 
ATOM     31  C   UNL     1       4.916  -5.591  22.708  0.00  0.00    +0.007 C 
ATOM     32  C   UNL     1       7.219  -6.109  21.879  0.00  0.00    +0.007 C 
ENDBRANCH  29  30
ENDBRANCH   1  29
TORSDOF 14
ENDMDL
MODEL 4
REMARK VINA RESULT:      -5.4      2.616      6.379
REMARK  Name = 
REMARK  20 active torsions:
REMARK  status: ('A' for Active; 'I' for Inactive)
REMARK    1  A    between atoms: C_2  and  C_3
REMARK    2  A    between atoms: C_2  and  N_4
REMARK    3  A    between atoms: C_2  and  C_27
REMARK    4  A    between atoms: C_5  and  C_7
REMARK    5  A    between atoms: C_7  and  C_9
REMARK    6  A    between atoms: C_7  and  N_13
REMARK    7  A    between atoms: C_9  and  C_10
REMARK    8  A    between atoms: C_10  and  C_11
REMARK    9  A    between atoms: C_10  and  C_12
REMARK   10  A    between atoms: C_14  and  C_16
REMARK   11  A    between atoms: C_16  and  C_18
REMARK   12  A    between atoms: C_16  and  C_22
REMARK   13  A    between atoms: C_18  and  C_19
REMARK   14  A    between atoms: C_19  and  C_20
REMARK   15  A    between atoms: C_19  and  C_21
REMARK   16  A    between atoms: C_22  and  C_23
REMARK   17  A    between atoms: N_25  and  O_26
REMARK   18  A    between atoms: C_27  and  O_29
REMARK   19  A    between atoms: O_29  and  C_30
REMARK   20  A    between atoms: C_30  and  C_31
REMARK                            x       y       z     vdW  Elec       q    Type
REMARK                         _______ _______ _______ _____ _____    ______ ____
ROOT
ATOM      1  C   UNL     1       8.478  -0.800  23.861  0.00  0.00    +0.159 C 
ENDROOT
BRANCH   1   4
ATOM      2  N   UNL     1       7.493   0.819  25.443  0.00  0.00    -0.301 N 
ATOM      3  H   UNL     1       6.799   0.958  24.702  0.00  0.00    +0.150 HD
ATOM      4  C   UNL     1       8.455  -0.142  25.260  0.00  0.00    +0.234 C 
ATOM      5  O   UNL     1       9.259  -0.456  26.135  0.00  0.00    -0.274 OA
BRANCH   2   6
ATOM      6  C   UNL     1       7.273   1.499  26.714  0.00  0.00    +0.179 C 
ATOM      7  C   UNL     1       7.003   2.974  26.467  0.00  0.00    +0.040 C 
BRANCH   6   8
ATOM      8  C   UNL     1       6.140   0.878  27.548  0.00  0.00    +0.327 C 
ATOM      9  O   UNL     1       6.076   0.945  28.768  0.00  0.00    -0.249 OA
BRANCH   8  10
ATOM     10  O   UNL     1       5.253   0.201  26.762  0.00  0.00    -0.464 OA
BRANCH  10  11
ATOM     11  C   UNL     1       5.102  -1.195  27.045  0.00  0.00    +0.229 C 
ATOM     12  C   UNL     1       4.969  -1.925  25.720  0.00  0.00    +0.048 C 
ENDBRANCH  10  11
ENDBRANCH   8  10
ENDBRANCH   6   8
ENDBRANCH   2   6
ENDBRANCH   1   4
BRANCH   1  13
ATOM     13  N   UNL     1       8.077  -2.218  23.957  0.00  0.00    -0.304 N 
ATOM     14  H   UNL     1       7.101  -2.428  23.787  0.00  0.00    +0.149 HD
ATOM     15  C   UNL     1       8.976  -3.257  23.968  0.00  0.00    +0.217 C 
ATOM     16  O   UNL     1      10.190  -3.071  23.875  0.00  0.00    -0.275 OA
BRANCH  15  17
ATOM     17  C   UNL     1       8.393  -4.657  24.088  0.00  0.00    +0.084 C 
BRANCH  17  18
ATOM     18  C   UNL     1       8.953  -5.296  25.369  0.00  0.00    +0.110 C 
BRANCH  18  19
ATOM     19  C   UNL     1       8.197  -4.917  26.613  0.00  0.00    +0.236 C 
ATOM     20  N   UNL     1       7.611  -5.989  27.242  0.00  0.00    -0.197 N 
ATOM     21  H   UNL     1       7.958  -6.939  27.141  0.00  0.00    +0.182 HD
ATOM     22  O   UNL     1       8.052  -3.762  27.006  0.00  0.00    -0.274 OA
BRANCH  20  23
ATOM     23  O   UNL     1       6.952  -5.694  28.460  0.00  0.00    -0.295 OA
ATOM     24  H   UNL     1       6.083  -6.136  28.342  0.00  0.00    +0.241 HD
ENDBRANCH  20  23
ENDBRANCH  18  19
ENDBRANCH  17  18
BRANCH  17  25
ATOM     25  C   UNL     1       6.851  -4.682  24.023  0.00  0.00    +0.016 C 
BRANCH  25  26
ATOM     26  C   UNL     1       6.210  -5.013  22.655  0.00  0.00    -0.016 C 
ATOM     27  C   UNL     1       7.195  -5.826  21.810  0.00  0.00    +0.007 C 
ATOM     28  C   UNL     1       5.788  -3.773  21.868  0.00  0.00    +0.007 C 
ENDBRANCH  25  26
ENDBRANCH  17  25
ENDBRANCH  15  17
ENDBRANCH   1  13
BRANCH   1  29
ATOM     29  C   UNL     1       7.686  -0.023  22.790  0.00  0.00    +0.034 C 
BRANCH  29  30
ATOM     30  C   UNL     1       8.502   0.904  21.870  0.00  0.00    -0.015 C 
ATOM     31  C   UNL     1       9.995   0.612  22.056  0.00  0.00    +0.007 C 
ATOM     32  C   UNL     1       8.232   2.385  22.130  0.00  0.00    +0.007 C 
ENDBRANCH  29  30
ENDBRANCH   1  29
TORSDOF 14
ENDMDL
MODEL 5
REMARK VINA RESULT:      -5.3      2.424      4.728
REMARK  Name = 
REMARK  20 active torsions:
REMARK  status: ('A' for Active; 'I' for Inactive)
REMARK    1  A    between atoms: C_2  and  C_3
REMARK    2  A    between atoms: C_2  and  N_4
REMARK    3  A    between atoms: C_2  and  C_27
REMARK    4  A    between atoms: C_5  and  C_7
REMARK    5  A    between atoms: C_7  and  C_9
REMARK    6  A    between atoms: C_7  and  N_13
REMARK    7  A    between atoms: C_9  and  C_10
REMARK    8  A    between atoms: C_10  and  C_11
REMARK    9  A    between atoms: C_10  and  C_12
REMARK   10  A    between atoms: C_14  and  C_16
REMARK   11  A    between atoms: C_16  and  C_18
REMARK   12  A    between atoms: C_16  and  C_22
REMARK   13  A    between atoms: C_18  and  C_19
REMARK   14  A    between atoms: C_19  and  C_20
REMARK   15  A    between atoms: C_19  and  C_21
REMARK   16  A    between atoms: C_22  and  C_23
REMARK   17  A    between atoms: N_25  and  O_26
REMARK   18  A    between atoms: C_27  and  O_29
REMARK   19  A    between atoms: O_29  and  C_30
REMARK   20  A    between atoms: C_30  and  C_31
REMARK                            x       y       z     vdW  Elec       q    Type
REMARK                         _______ _______ _______ _____ _____    ______ ____
ROOT
ATOM      1  C   UNL     1       7.436  -3.855  22.953  0.00  0.00    +0.159 C 
ENDROOT
BRANCH   1   4
ATOM      2  N   UNL     1       5.153  -4.321  23.767  0.00  0.00    -0.301 N 
ATOM      3  H   UNL     1       5.634  -4.620  24.621  0.00  0.00    +0.150 HD
ATOM      4  C   UNL     1       5.905  -3.787  22.751  0.00  0.00    +0.234 C 
ATOM      5  O   UNL     1       5.408  -3.301  21.738  0.00  0.00    -0.274 OA
BRANCH   2   6
ATOM      6  C   UNL     1       3.695  -4.286  23.787  0.00  0.00    +0.179 C 
ATOM      7  C   UNL     1       3.144  -5.655  23.421  0.00  0.00    +0.040 C 
BRANCH   6   8
ATOM      8  C   UNL     1       3.116  -3.816  25.132  0.00  0.00    +0.327 C 
ATOM      9  O   UNL     1       2.194  -3.017  25.235  0.00  0.00    -0.249 OA
BRANCH   8  10
ATOM     10  O   UNL     1       3.793  -4.357  26.185  0.00  0.00    -0.464 OA
BRANCH  10  11
ATOM     11  C   UNL     1       4.176  -3.445  27.222  0.00  0.00    +0.229 C 
ATOM     12  C   UNL     1       4.528  -4.261  28.452  0.00  0.00    +0.048 C 
ENDBRANCH  10  11
ENDBRANCH   8  10
ENDBRANCH   6   8
ENDBRANCH   2   6
ENDBRANCH   1   4
BRANCH   1  13
ATOM     13  N   UNL     1       7.956  -2.535  23.363  0.00  0.00    -0.304 N 
ATOM     14  H   UNL     1       7.791  -2.259  24.324  0.00  0.00    +0.149 HD
ATOM     15  C   UNL     1       8.872  -1.823  22.628  0.00  0.00    +0.217 C 
ATOM     16  O   UNL     1       9.342  -2.255  21.575  0.00  0.00    -0.275 OA
BRANCH  15  17
ATOM     17  C   UNL     1       9.289  -0.472  23.189  0.00  0.00    +0.084 C 
BRANCH  17  18
ATOM     18  C   UNL     1       9.926  -0.707  24.568  0.00  0.00    +0.110 C 
BRANCH  18  19
ATOM     19  C   UNL     1       9.068  -0.247  25.715  0.00  0.00    +0.236 C 
ATOM     20  N   UNL     1       8.674   1.064  25.610  0.00  0.00    -0.197 N 
ATOM     21  H   UNL     1       8.610   1.546  24.718  0.00  0.00    +0.182 HD
ATOM     22  O   UNL     1       8.791  -0.943  26.690  0.00  0.00    -0.274 OA
BRANCH  20  23
ATOM     23  O   UNL     1       7.801   1.520  26.626  0.00  0.00    -0.295 OA
ATOM     24  H   UNL     1       8.126   1.037  27.417  0.00  0.00    +0.241 HD
ENDBRANCH  20  23
ENDBRANCH  18  19
ENDBRANCH  17  18
BRANCH  17  25
ATOM     25  C   UNL     1      10.193   0.333  22.232  0.00  0.00    +0.016 C 
BRANCH  25  26
ATOM     26  C   UNL     1       9.808   1.809  21.975  0.00  0.00    -0.016 C 
ATOM     27  C   UNL     1      10.462   2.701  23.034  0.00  0.00    +0.007 C 
ATOM     28  C   UNL     1       8.300   2.052  21.985  0.00  0.00    +0.007 C 
ENDBRANCH  25  26
ENDBRANCH  17  25
ENDBRANCH  15  17
ENDBRANCH   1  13
BRANCH   1  29
ATOM     29  C   UNL     1       7.896  -4.996  23.882  0.00  0.00    +0.034 C 
BRANCH  29  30
ATOM     30  C   UNL     1       8.336  -4.591  25.302  0.00  0.00    -0.015 C 
ATOM     31  C   UNL     1       9.818  -4.935  25.488  0.00  0.00    +0.007 C 
ATOM     32  C   UNL     1       7.511  -5.267  26.395  0.00  0.00    +0.007 C 
ENDBRANCH  29  30
ENDBRANCH   1  29
TORSDOF 14
ENDMDL
MODEL 6
REMARK VINA RESULT:      -5.3      2.561      4.727
REMARK  Name = 
REMARK  20 active torsions:
REMARK  status: ('A' for Active; 'I' for Inactive)
REMARK    1  A    between atoms: C_2  and  C_3
REMARK    2  A    between atoms: C_2  and  N_4
REMARK    3  A    between atoms: C_2  and  C_27
REMARK    4  A    between atoms: C_5  and  C_7
REMARK    5  A    between atoms: C_7  and  C_9
REMARK    6  A    between atoms: C_7  and  N_13
REMARK    7  A    between atoms: C_9  and  C_10
REMARK    8  A    between atoms: C_10  and  C_11
REMARK    9  A    between atoms: C_10  and  C_12
REMARK   10  A    between atoms: C_14  and  C_16
REMARK   11  A    between atoms: C_16  and  C_18
REMARK   12  A    between atoms: C_16  and  C_22
REMARK   13  A    between atoms: C_18  and  C_19
REMARK   14  A    between atoms: C_19  and  C_20
REMARK   15  A    between atoms: C_19  and  C_21
REMARK   16  A    between atoms: C_22  and  C_23
REMARK   17  A    between atoms: N_25  and  O_26
REMARK   18  A    between atoms: C_27  and  O_29
REMARK   19  A    between atoms: O_29  and  C_30
REMARK   20  A    between atoms: C_30  and  C_31
REMARK                            x       y       z     vdW  Elec       q    Type
REMARK                         _______ _______ _______ _____ _____    ______ ____
ROOT
ATOM      1  C   UNL     1       7.417  -3.841  22.788  0.00  0.00    +0.159 C 
ENDROOT
BRANCH   1   4
ATOM      2  N   UNL     1       5.156  -4.536  23.495  0.00  0.00    -0.301 N 
ATOM      3  H   UNL     1       5.630  -4.823  24.357  0.00  0.00    +0.150 HD
ATOM      4  C   UNL     1       5.894  -3.902  22.528  0.00  0.00    +0.234 C 
ATOM      5  O   UNL     1       5.392  -3.424  21.513  0.00  0.00    -0.274 OA
BRANCH   2   6
ATOM      6  C   UNL     1       3.701  -4.631  23.459  0.00  0.00    +0.179 C 
ATOM      7  C   UNL     1       3.288  -6.051  23.108  0.00  0.00    +0.040 C 
BRANCH   6   8
ATOM      8  C   UNL     1       3.029  -4.184  24.767  0.00  0.00    +0.327 C 
ATOM      9  O   UNL     1       3.007  -3.025  25.161  0.00  0.00    -0.249 OA
BRANCH   8  10
ATOM     10  O   UNL     1       2.513  -5.244  25.453  0.00  0.00    -0.464 OA
BRANCH  10  11
ATOM     11  C   UNL     1       2.980  -5.410  26.798  0.00  0.00    +0.229 C 
ATOM     12  C   UNL     1       4.186  -6.332  26.760  0.00  0.00    +0.048 C 
ENDBRANCH  10  11
ENDBRANCH   8  10
ENDBRANCH   6   8
ENDBRANCH   2   6
ENDBRANCH   1   4
BRANCH   1  13
ATOM     13  N   UNL     1       7.818  -2.467  23.151  0.00  0.00    -0.304 N 
ATOM     14  H   UNL     1       7.558  -2.146  24.076  0.00  0.00    +0.149 HD
ATOM     15  C   UNL     1       8.746  -1.741  22.445  0.00  0.00    +0.217 C 
ATOM     16  O   UNL     1       9.327  -2.203  21.463  0.00  0.00    -0.275 OA
BRANCH  15  17
ATOM     17  C   UNL     1       9.031  -0.334  22.948  0.00  0.00    +0.084 C 
BRANCH  17  18
ATOM     18  C   UNL     1       8.821   0.641  21.777  0.00  0.00    +0.110 C 
BRANCH  18  19
ATOM     19  C   UNL     1       9.194   2.062  22.102  0.00  0.00    +0.236 C 
ATOM     20  N   UNL     1       8.146   2.942  21.979  0.00  0.00    -0.197 N 
ATOM     21  H   UNL     1       7.176   2.651  22.061  0.00  0.00    +0.182 HD
ATOM     22  O   UNL     1      10.333   2.428  22.386  0.00  0.00    -0.274 OA
BRANCH  20  23
ATOM     23  O   UNL     1       8.428   4.279  22.348  0.00  0.00    -0.295 OA
ATOM     24  H   UNL     1       8.958   4.601  21.586  0.00  0.00    +0.241 HD
ENDBRANCH  20  23
ENDBRANCH  18  19
ENDBRANCH  17  18
BRANCH  17  25
ATOM     25  C   UNL     1       8.214   0.043  24.202  0.00  0.00    +0.016 C 
BRANCH  25  26
ATOM     26  C   UNL     1       8.997   0.221  25.524  0.00  0.00    -0.016 C 
ATOM     27  C   UNL     1      10.494   0.339  25.222  0.00  0.00    +0.007 C 
ATOM     28  C   UNL     1       8.780  -0.921  26.516  0.00  0.00    +0.007 C 
ENDBRANCH  25  26
ENDBRANCH  17  25
ENDBRANCH  15  17
ENDBRANCH   1  13
BRANCH   1  29
ATOM     29  C   UNL     1       7.924  -4.899  23.789  0.00  0.00    +0.034 C 
BRANCH  29  30
ATOM     30  C   UNL     1       8.464  -4.371  25.131  0.00  0.00    -0.015 C 
ATOM     31  C   UNL     1       9.801  -5.054  25.440  0.00  0.00    +0.007 C 
ATOM     32  C   UNL     1       7.494  -4.593  26.290  0.00  0.00    +0.007 C 
ENDBRANCH  29  30
ENDBRANCH   1  29
TORSDOF 14
ENDMDL
MODEL 7
REMARK VINA RESULT:      -5.2      2.666      6.962
REMARK  Name = 
REMARK  20 active torsions:
REMARK  status: ('A' for Active; 'I' for Inactive)
REMARK    1  A    between atoms: C_2  and  C_3
REMARK    2  A    between atoms: C_2  and  N_4
REMARK    3  A    between atoms: C_2  and  C_27
REMARK    4  A    between atoms: C_5  and  C_7
REMARK    5  A    between atoms: C_7  and  C_9
REMARK    6  A    between atoms: C_7  and  N_13
REMARK    7  A    between atoms: C_9  and  C_10
REMARK    8  A    between atoms: C_10  and  C_11
REMARK    9  A    between atoms: C_10  and  C_12
REMARK   10  A    between atoms: C_14  and  C_16
REMARK   11  A    between atoms: C_16  and  C_18
REMARK   12  A    between atoms: C_16  and  C_22
REMARK   13  A    between atoms: C_18  and  C_19
REMARK   14  A    between atoms: C_19  and  C_20
REMARK   15  A    between atoms: C_19  and  C_21
REMARK   16  A    between atoms: C_22  and  C_23
REMARK   17  A    between atoms: N_25  and  O_26
REMARK   18  A    between atoms: C_27  and  O_29
REMARK   19  A    between atoms: O_29  and  C_30
REMARK   20  A    between atoms: C_30  and  C_31
REMARK                            x       y       z     vdW  Elec       q    Type
REMARK                         _______ _______ _______ _____ _____    ______ ____
ROOT
ATOM      1  C   UNL     1       8.224  -0.568  24.329  0.00  0.00    +0.159 C 
ENDROOT
BRANCH   1   4
ATOM      2  N   UNL     1       7.721   0.979  26.186  0.00  0.00    -0.301 N 
ATOM      3  H   UNL     1       8.713   1.222  26.111  0.00  0.00    +0.150 HD
ATOM      4  C   UNL     1       7.198   0.096  25.276  0.00  0.00    +0.234 C 
ATOM      5  O   UNL     1       5.999  -0.170  25.218  0.00  0.00    -0.274 OA
BRANCH   2   6
ATOM      6  C   UNL     1       6.902   1.753  27.113  0.00  0.00    +0.179 C 
ATOM      7  C   UNL     1       7.063   1.203  28.521  0.00  0.00    +0.040 C 
BRANCH   6   8
ATOM      8  C   UNL     1       7.211   3.259  27.086  0.00  0.00    +0.327 C 
ATOM      9  O   UNL     1       7.254   3.963  28.086  0.00  0.00    -0.249 OA
BRANCH   8  10
ATOM     10  O   UNL     1       7.373   3.714  25.810  0.00  0.00    -0.464 OA
BRANCH  10  11
ATOM     11  C   UNL     1       8.240   4.844  25.652  0.00  0.00    +0.229 C 
ATOM     12  C   UNL     1       9.094   4.605  24.420  0.00  0.00    +0.048 C 
ENDBRANCH  10  11
ENDBRANCH   8  10
ENDBRANCH   6   8
ENDBRANCH   2   6
ENDBRANCH   1   4
BRANCH   1  13
ATOM     13  N   UNL     1       8.120  -2.039  24.415  0.00  0.00    -0.304 N 
ATOM     14  H   UNL     1       7.188  -2.426  24.490  0.00  0.00    +0.149 HD
ATOM     15  C   UNL     1       9.157  -2.887  24.108  0.00  0.00    +0.217 C 
ATOM     16  O   UNL     1      10.247  -2.470  23.716  0.00  0.00    -0.275 OA
BRANCH  15  17
ATOM     17  C   UNL     1       8.884  -4.375  24.266  0.00  0.00    +0.084 C 
BRANCH  17  18
ATOM     18  C   UNL     1       9.316  -4.789  25.682  0.00  0.00    +0.110 C 
BRANCH  18  19
ATOM     19  C   UNL     1       8.194  -4.774  26.685  0.00  0.00    +0.236 C 
ATOM     20  N   UNL     1       7.941  -6.005  27.238  0.00  0.00    -0.197 N 
ATOM     21  H   UNL     1       8.645  -6.736  27.291  0.00  0.00    +0.182 HD
ATOM     22  O   UNL     1       7.518  -3.781  26.946  0.00  0.00    -0.274 OA
BRANCH  20  23
ATOM     23  O   UNL     1       6.945  -6.027  28.243  0.00  0.00    -0.295 OA
ATOM     24  H   UNL     1       7.168  -5.234  28.778  0.00  0.00    +0.241 HD
ENDBRANCH  20  23
ENDBRANCH  18  19
ENDBRANCH  17  18
BRANCH  17  25
ATOM     25  C   UNL     1       7.427  -4.765  23.940  0.00  0.00    +0.016 C 
BRANCH  25  26
ATOM     26  C   UNL     1       7.027  -4.806  22.446  0.00  0.00    -0.016 C 
ATOM     27  C   UNL     1       5.839  -3.870  22.208  0.00  0.00    +0.007 C 
ATOM     28  C   UNL     1       6.661  -6.206  21.955  0.00  0.00    +0.007 C 
ENDBRANCH  25  26
ENDBRANCH  17  25
ENDBRANCH  15  17
ENDBRANCH   1  13
BRANCH   1  29
ATOM     29  C   UNL     1       8.169  -0.045  22.879  0.00  0.00    +0.034 C 
BRANCH  29  30
ATOM     30  C   UNL     1       8.608   1.414  22.658  0.00  0.00    -0.015 C 
ATOM     31  C   UNL     1       7.552   2.136  21.813  0.00  0.00    +0.007 C 
ATOM     32  C   UNL     1       9.972   1.527  21.980  0.00  0.00    +0.007 C 
ENDBRANCH  29  30
ENDBRANCH   1  29
TORSDOF 14
ENDMDL
MODEL 8
REMARK VINA RESULT:      -5.2      2.357      3.884
REMARK  Name = 
REMARK  20 active torsions:
REMARK  status: ('A' for Active; 'I' for Inactive)
REMARK    1  A    between atoms: C_2  and  C_3
REMARK    2  A    between atoms: C_2  and  N_4
REMARK    3  A    between atoms: C_2  and  C_27
REMARK    4  A    between atoms: C_5  and  C_7
REMARK    5  A    between atoms: C_7  and  C_9
REMARK    6  A    between atoms: C_7  and  N_13
REMARK    7  A    between atoms: C_9  and  C_10
REMARK    8  A    between atoms: C_10  and  C_11
REMARK    9  A    between atoms: C_10  and  C_12
REMARK   10  A    between atoms: C_14  and  C_16
REMARK   11  A    between atoms: C_16  and  C_18
REMARK   12  A    between atoms: C_16  and  C_22
REMARK   13  A    between atoms: C_18  and  C_19
REMARK   14  A    between atoms: C_19  and  C_20
REMARK   15  A    between atoms: C_19  and  C_21
REMARK   16  A    between atoms: C_22  and  C_23
REMARK   17  A    between atoms: N_25  and  O_26
REMARK   18  A    between atoms: C_27  and  O_29
REMARK   19  A    between atoms: O_29  and  C_30
REMARK   20  A    between atoms: C_30  and  C_31
REMARK                            x       y       z     vdW  Elec       q    Type
REMARK                         _______ _______ _______ _____ _____    ______ ____
ROOT
ATOM      1  C   UNL     1       8.060  -2.425  23.937  0.00  0.00    +0.159 C 
ENDROOT
BRANCH   1   4
ATOM      2  N   UNL     1       6.939  -4.263  22.728  0.00  0.00    -0.301 N 
ATOM      3  H   UNL     1       7.659  -4.846  23.165  0.00  0.00    +0.150 HD
ATOM      4  C   UNL     1       6.894  -2.931  23.057  0.00  0.00    +0.234 C 
ATOM      5  O   UNL     1       6.001  -2.179  22.672  0.00  0.00    -0.274 OA
BRANCH   2   6
ATOM      6  C   UNL     1       5.893  -4.934  21.967  0.00  0.00    +0.179 C 
ATOM      7  C   UNL     1       6.486  -6.109  21.206  0.00  0.00    +0.040 C 
BRANCH   6   8
ATOM      8  C   UNL     1       4.711  -5.398  22.833  0.00  0.00    +0.327 C 
ATOM      9  O   UNL     1       3.644  -4.802  22.907  0.00  0.00    -0.249 OA
BRANCH   8  10
ATOM     10  O   UNL     1       5.022  -6.520  23.546  0.00  0.00    -0.464 OA
BRANCH  10  11
ATOM     11  C   UNL     1       4.897  -6.415  24.969  0.00  0.00    +0.229 C 
ATOM     12  C   UNL     1       3.773  -7.337  25.406  0.00  0.00    +0.048 C 
ENDBRANCH  10  11
ENDBRANCH   8  10
ENDBRANCH   6   8
ENDBRANCH   2   6
ENDBRANCH   1   4
BRANCH   1  13
ATOM     13  N   UNL     1       8.114  -0.949  23.913  0.00  0.00    -0.304 N 
ATOM     14  H   UNL     1       7.670  -0.465  24.684  0.00  0.00    +0.149 HD
ATOM     15  C   UNL     1       8.956  -0.238  23.094  0.00  0.00    +0.217 C 
ATOM     16  O   UNL     1       9.748  -0.792  22.332  0.00  0.00    -0.275 OA
BRANCH  15  17
ATOM     17  C   UNL     1       8.871   1.278  23.186  0.00  0.00    +0.084 C 
BRANCH  17  18
ATOM     18  C   UNL     1      10.283   1.817  23.468  0.00  0.00    +0.110 C 
BRANCH  18  19
ATOM     19  C   UNL     1      10.340   3.314  23.608  0.00  0.00    +0.236 C 
ATOM     20  N   UNL     1      11.328   3.895  22.850  0.00  0.00    -0.197 N 
ATOM     21  H   UNL     1      11.700   3.460  22.011  0.00  0.00    +0.182 HD
ATOM     22  O   UNL     1       9.626   3.962  24.369  0.00  0.00    -0.274 OA
BRANCH  20  23
ATOM     23  O   UNL     1      11.372   5.309  22.889  0.00  0.00    -0.295 OA
ATOM     24  H   UNL     1      12.307   5.485  23.133  0.00  0.00    +0.241 HD
ENDBRANCH  20  23
ENDBRANCH  18  19
ENDBRANCH  17  18
BRANCH  17  25
ATOM     25  C   UNL     1       8.209   1.928  21.953  0.00  0.00    +0.016 C 
BRANCH  25  26
ATOM     26  C   UNL     1       6.833   2.600  22.165  0.00  0.00    -0.016 C 
ATOM     27  C   UNL     1       6.991   4.122  22.112  0.00  0.00    +0.007 C 
ATOM     28  C   UNL     1       6.168   2.217  23.486  0.00  0.00    +0.007 C 
ENDBRANCH  25  26
ENDBRANCH  17  25
ENDBRANCH  15  17
ENDBRANCH   1  13
BRANCH   1  29
ATOM     29  C   UNL     1       8.064  -3.003  25.367  0.00  0.00    +0.034 C 
BRANCH  29  30
ATOM     30  C   UNL     1       8.293  -4.520  25.493  0.00  0.00    -0.015 C 
ATOM     31  C   UNL     1       7.787  -4.994  26.860  0.00  0.00    +0.007 C 
ATOM     32  C   UNL     1       9.758  -4.917  25.322  0.00  0.00    +0.007 C 
ENDBRANCH  29  30
ENDBRANCH   1  29
TORSDOF 14
ENDMDL
MODEL 9
REMARK VINA RESULT:      -5.1      2.694      4.351
REMARK  Name = 
REMARK  20 active torsions:
REMARK  status: ('A' for Active; 'I' for Inactive)
REMARK    1  A    between atoms: C_2  and  C_3
REMARK    2  A    between atoms: C_2  and  N_4
REMARK    3  A    between atoms: C_2  and  C_27
REMARK    4  A    between atoms: C_5  and  C_7
REMARK    5  A    between atoms: C_7  and  C_9
REMARK    6  A    between atoms: C_7  and  N_13
REMARK    7  A    between atoms: C_9  and  C_10
REMARK    8  A    between atoms: C_10  and  C_11
REMARK    9  A    between atoms: C_10  and  C_12
REMARK   10  A    between atoms: C_14  and  C_16
REMARK   11  A    between atoms: C_16  and  C_18
REMARK   12  A    between atoms: C_16  and  C_22
REMARK   13  A    between atoms: C_18  and  C_19
REMARK   14  A    between atoms: C_19  and  C_20
REMARK   15  A    between atoms: C_19  and  C_21
REMARK   16  A    between atoms: C_22  and  C_23
REMARK   17  A    between atoms: N_25  and  O_26
REMARK   18  A    between atoms: C_27  and  O_29
REMARK   19  A    between atoms: O_29  and  C_30
REMARK   20  A    between atoms: C_30  and  C_31
REMARK                            x       y       z     vdW  Elec       q    Type
REMARK                         _______ _______ _______ _____ _____    ______ ____
ROOT
ATOM      1  C   UNL     1       8.155  -0.717  22.619  0.00  0.00    +0.159 C 
ENDROOT
BRANCH   1   4
ATOM      2  N   UNL     1       7.583  -3.119  22.555  0.00  0.00    -0.301 N 
ATOM      3  H   UNL     1       8.484  -3.210  22.076  0.00  0.00    +0.150 HD
ATOM      4  C   UNL     1       7.220  -1.881  23.023  0.00  0.00    +0.234 C 
ATOM      5  O   UNL     1       6.214  -1.694  23.704  0.00  0.00    -0.274 OA
BRANCH   2   6
ATOM      6  C   UNL     1       6.865  -4.343  22.890  0.00  0.00    +0.179 C 
ATOM      7  C   UNL     1       6.721  -5.208  21.649  0.00  0.00    +0.040 C 
BRANCH   6   8
ATOM      8  C   UNL     1       7.522  -5.141  24.028  0.00  0.00    +0.327 C 
ATOM      9  O   UNL     1       8.665  -5.576  23.985  0.00  0.00    -0.249 OA
BRANCH   8  10
ATOM     10  O   UNL     1       6.653  -5.349  25.060  0.00  0.00    -0.464 OA
BRANCH  10  11
ATOM     11  C   UNL     1       7.174  -5.121  26.375  0.00  0.00    +0.229 C 
ATOM     12  C   UNL     1       7.264  -3.620  26.585  0.00  0.00    +0.048 C 
ENDBRANCH  10  11
ENDBRANCH   8  10
ENDBRANCH   6   8
ENDBRANCH   2   6
ENDBRANCH   1   4
BRANCH   1  13
ATOM     13  N   UNL     1       7.441   0.571  22.726  0.00  0.00    -0.304 N 
ATOM     14  H   UNL     1       6.895   0.721  23.565  0.00  0.00    +0.149 HD
ATOM     15  C   UNL     1       7.711   1.652  21.922  0.00  0.00    +0.217 C 
ATOM     16  O   UNL     1       8.592   1.623  21.062  0.00  0.00    -0.275 OA
BRANCH  15  17
ATOM     17  C   UNL     1       6.871   2.898  22.157  0.00  0.00    +0.084 C 
BRANCH  17  18
ATOM     18  C   UNL     1       5.625   2.486  22.959  0.00  0.00    +0.110 C 
BRANCH  18  19
ATOM     19  C   UNL     1       4.541   3.530  22.967  0.00  0.00    +0.236 C 
ATOM     20  N   UNL     1       4.130   3.897  21.709  0.00  0.00    -0.197 N 
ATOM     21  H   UNL     1       4.227   3.287  20.902  0.00  0.00    +0.182 HD
ATOM     22  O   UNL     1       4.101   4.058  23.986  0.00  0.00    -0.274 OA
BRANCH  20  23
ATOM     23  O   UNL     1       3.057   4.819  21.665  0.00  0.00    -0.295 OA
ATOM     24  H   UNL     1       2.969   5.086  22.607  0.00  0.00    +0.241 HD
ENDBRANCH  20  23
ENDBRANCH  18  19
ENDBRANCH  17  18
BRANCH  17  25
ATOM     25  C   UNL     1       7.660   4.051  22.813  0.00  0.00    +0.016 C 
BRANCH  25  26
ATOM     26  C   UNL     1       8.670   3.671  23.920  0.00  0.00    -0.016 C 
ATOM     27  C   UNL     1       8.106   4.068  25.288  0.00  0.00    +0.007 C 
ATOM     28  C   UNL     1      10.040   4.324  23.741  0.00  0.00    +0.007 C 
ENDBRANCH  25  26
ENDBRANCH  17  25
ENDBRANCH  15  17
ENDBRANCH   1  13
BRANCH   1  29
ATOM     29  C   UNL     1       9.510  -0.717  23.355  0.00  0.00    +0.034 C 
BRANCH  29  30
ATOM     30  C   UNL     1       9.630   0.221  24.571  0.00  0.00    -0.015 C 
ATOM     31  C   UNL     1      11.052   0.792  24.628  0.00  0.00    +0.007 C 
ATOM     32  C   UNL     1       9.302  -0.472  25.891  0.00  0.00    +0.007 C 
ENDBRANCH  29  30
ENDBRANCH   1  29
TORSDOF 14
ENDMDL
