MODEL 1
REMARK VINA RESULT:      -6.2      0.000      0.000
REMARK  Name = 
REMARK  13 active torsions:
REMARK  status: ('A' for Active; 'I' for Inactive)
REMARK    1  A    between atoms: C_1  and  C_2
REMARK    2  A    between atoms: C_3  and  C_4
REMARK    3  A    between atoms: C_4  and  C_5
REMARK    4  A    between atoms: C_5  and  O_6
REMARK    5  A    between atoms: O_6  and  P_7
REMARK    6  A    between atoms: P_7  and  O_8
REMARK    7  A    between atoms: P_7  and  O_10
REMARK    8  A    between atoms: O_10  and  P_11
REMARK    9  A    between atoms: P_11  and  O_12
REMARK   10  A    between atoms: N_17  and  C_18
REMARK   11  A    between atoms: C_18  and  C_19
REMARK   12  A    between atoms: C_20  and  N_21
REMARK   13  A    between atoms: C_23  and  C_24
REMARK                            x       y       z     vdW  Elec       q    Type
REMARK                         _______ _______ _______ _____ _____    ______ ____
ROOT
ATOM      1  C   UNL     1       6.369  -1.675  26.109  0.00  0.00    +0.122 C 
ATOM      2  C   UNL     1       7.342  -2.632  25.530  0.00  0.00    +0.191 A 
ATOM      3  N   UNL     1       7.988  -2.365  24.317  0.00  0.00    -0.190 N 
ATOM      4  C   UNL     1       8.931  -3.239  23.994  0.00  0.00    +0.357 A 
ATOM      5  S   UNL     1       9.140  -4.394  25.212  0.00  0.00    -0.027 S 
ATOM      6  C   UNL     1       7.688  -3.886  26.006  0.00  0.00    +0.064 A 
ENDROOT
BRANCH   3   7
ATOM      7  C   UNL     1       7.611  -1.320  23.355  0.00  0.00    +0.397 C 
BRANCH   7   8
ATOM      8  C   UNL     1       8.603  -0.193  23.344  0.00  0.00    +0.056 A 
ATOM      9  C   UNL     1       8.734   0.645  24.448  0.00  0.00    +0.122 A 
ATOM     10  N   UNL     1       9.481   1.763  24.473  0.00  0.00    -0.260 NA
ATOM     11  C   UNL     1      10.145   2.089  23.348  0.00  0.00    +0.040 A 
ATOM     12  C   UNL     1      10.905   3.381  23.355  0.00  0.00    +0.065 C 
ATOM     13  C   UNL     1      10.159   1.260  22.232  0.00  0.00    +0.046 A 
ATOM     14  C   UNL     1       9.434   0.066  22.249  0.00  0.00    +0.037 A 
BRANCH  14  15
ATOM     15  N   UNL     1       9.430  -0.747  21.103  0.00  0.00    -0.358 N 
ATOM     16  H   UNL     1      10.371  -0.983  20.784  0.00  0.00    +0.142 HD
ATOM     17  H   UNL     1       8.899  -1.612  21.191  0.00  0.00    +0.142 HD
ENDBRANCH  14  15
ENDBRANCH   7   8
ENDBRANCH   3   7
BRANCH   6  18
ATOM     18  C   UNL     1       7.012  -4.785  27.019  0.00  0.00    +0.077 C 
BRANCH  18  19
ATOM     19  C   UNL     1       6.066  -5.744  26.291  0.00  0.00    +0.178 C 
BRANCH  19  20
ATOM     20  O   UNL     1       4.921  -5.142  25.741  0.00  0.00    -0.286 OA
BRANCH  20  21
ATOM     21  P   UNL     1       4.457  -5.789  24.276  0.00  0.00    +0.480 P 
ATOM     22  O   UNL     1       4.564  -7.324  24.389  0.00  0.00    -0.227 OA
BRANCH  21  23
ATOM     23  O   UNL     1       2.846  -5.952  24.887  0.00  0.00    -0.302 OA
ATOM     24  H   UNL     1       2.637  -6.869  24.619  0.00  0.00    +0.222 HD
ENDBRANCH  21  23
BRANCH  21  25
ATOM     25  O   UNL     1       6.067  -5.626  23.666  0.00  0.00    -0.229 OA
BRANCH  25  26
ATOM     26  P   UNL     1       6.028  -5.229  22.106  0.00  0.00    +0.220 P 
ATOM     27  O   UNL     1       5.369  -3.889  21.951  0.00  0.00    -0.517 OA
ATOM     28  O   UNL     1       7.344  -5.564  21.467  0.00  0.00    -0.437 OA
BRANCH  26  29
ATOM     29  O   UNL     1       5.014  -6.352  21.563  0.00  0.00    -0.343 OA
ATOM     30  H   UNL     1       4.151  -5.906  21.536  0.00  0.00    +0.218 HD
ENDBRANCH  26  29
ENDBRANCH  25  26
ENDBRANCH  21  25
ENDBRANCH  20  21
ENDBRANCH  19  20
ENDBRANCH  18  19
ENDBRANCH   6  18
TORSDOF 11
ENDMDL
MODEL 2
REMARK VINA RESULT:      -6.2      2.235      3.445
REMARK  Name = 
REMARK  13 active torsions:
REMARK  status: ('A' for Active; 'I' for Inactive)
REMARK    1  A    between atoms: C_1  and  C_2
REMARK    2  A    between atoms: C_3  and  C_4
REMARK    3  A    between atoms: C_4  and  C_5
REMARK    4  A    between atoms: C_5  and  O_6
REMARK    5  A    between atoms: O_6  and  P_7
REMARK    6  A    between atoms: P_7  and  O_8
REMARK    7  A    between atoms: P_7  and  O_10
REMARK    8  A    between atoms: O_10  and  P_11
REMARK    9  A    between atoms: P_11  and  O_12
REMARK   10  A    between atoms: N_17  and  C_18
REMARK   11  A    between atoms: C_18  and  C_19
REMARK   12  A    between atoms: C_20  and  N_21
REMARK   13  A    between atoms: C_23  and  C_24
REMARK                            x       y       z     vdW  Elec       q    Type
REMARK                         _______ _______ _______ _____ _____    ______ ____
ROOT
ATOM      1  C   UNL     1       7.923  -2.946  26.144  0.00  0.00    +0.122 C 
ATOM      2  C   UNL     1       7.403  -2.921  24.756  0.00  0.00    +0.191 A 
ATOM      3  N   UNL     1       8.266  -2.824  23.659  0.00  0.00    -0.190 N 
ATOM      4  C   UNL     1       7.673  -2.954  22.480  0.00  0.00    +0.357 A 
ATOM      5  S   UNL     1       6.025  -3.294  22.658  0.00  0.00    -0.027 S 
ATOM      6  C   UNL     1       6.080  -2.904  24.344  0.00  0.00    +0.064 A 
ENDROOT
BRANCH   3   7
ATOM      7  C   UNL     1       9.689  -2.461  23.714  0.00  0.00    +0.397 C 
BRANCH   7   8
ATOM      8  C   UNL     1       9.884  -0.974  23.639  0.00  0.00    +0.056 A 
ATOM      9  C   UNL     1      10.015  -0.218  24.801  0.00  0.00    +0.122 A 
ATOM     10  N   UNL     1      10.041   1.126  24.838  0.00  0.00    -0.260 NA
ATOM     11  C   UNL     1       9.931   1.780  23.666  0.00  0.00    +0.040 A 
ATOM     12  C   UNL     1       9.874   3.277  23.723  0.00  0.00    +0.065 C 
ATOM     13  C   UNL     1       9.903   1.111  22.448  0.00  0.00    +0.046 A 
ATOM     14  C   UNL     1       9.948  -0.285  22.424  0.00  0.00    +0.037 A 
BRANCH  14  15
ATOM     15  N   UNL     1       9.885  -0.950  21.187  0.00  0.00    -0.358 N 
ATOM     16  H   UNL     1      10.296  -1.884  21.221  0.00  0.00    +0.142 HD
ATOM     17  H   UNL     1       8.951  -1.027  20.789  0.00  0.00    +0.142 HD
ENDBRANCH  14  15
ENDBRANCH   7   8
ENDBRANCH   3   7
BRANCH   6  18
ATOM     18  C   UNL     1       4.807  -2.602  25.105  0.00  0.00    +0.077 C 
BRANCH  18  19
ATOM     19  C   UNL     1       4.433  -3.813  25.964  0.00  0.00    +0.178 C 
BRANCH  19  20
ATOM     20  O   UNL     1       4.345  -5.030  25.266  0.00  0.00    -0.286 OA
BRANCH  20  21
ATOM     21  P   UNL     1       4.707  -6.367  26.192  0.00  0.00    +0.480 P 
ATOM     22  O   UNL     1       3.381  -6.918  26.755  0.00  0.00    -0.227 OA
BRANCH  21  23
ATOM     23  O   UNL     1       4.426  -7.370  24.809  0.00  0.00    -0.302 OA
ATOM     24  H   UNL     1       3.621  -7.850  25.087  0.00  0.00    +0.222 HD
ENDBRANCH  21  23
BRANCH  21  25
ATOM     25  O   UNL     1       4.988  -5.365  27.574  0.00  0.00    -0.229 OA
BRANCH  25  26
ATOM     26  P   UNL     1       6.103  -6.035  28.523  0.00  0.00    +0.220 P 
ATOM     27  O   UNL     1       7.430  -6.010  27.823  0.00  0.00    -0.517 OA
ATOM     28  O   UNL     1       5.920  -5.553  29.933  0.00  0.00    -0.437 OA
BRANCH  26  29
ATOM     29  O   UNL     1       5.573  -7.553  28.538  0.00  0.00    -0.343 OA
ATOM     30  H   UNL     1       6.355  -8.079  28.774  0.00  0.00    +0.218 HD
ENDBRANCH  26  29
ENDBRANCH  25  26
ENDBRANCH  21  25
ENDBRANCH  20  21
ENDBRANCH  19  20
ENDBRANCH  18  19
ENDBRANCH   6  18
TORSDOF 11
ENDMDL
MODEL 3
REMARK VINA RESULT:      -6.2      3.277      5.013
REMARK  Name = 
REMARK  13 active torsions:
REMARK  status: ('A' for Active; 'I' for Inactive)
REMARK    1  A    between atoms: C_1  and  C_2
REMARK    2  A    between atoms: C_3  and  C_4
REMARK    3  A    between atoms: C_4  and  C_5
REMARK    4  A    between atoms: C_5  and  O_6
REMARK    5  A    between atoms: O_6  and  P_7
REMARK    6  A    between atoms: P_7  and  O_8
REMARK    7  A    between atoms: P_7  and  O_10
REMARK    8  A    between atoms: O_10  and  P_11
REMARK    9  A    between atoms: P_11  and  O_12
REMARK   10  A    between atoms: N_17  and  C_18
REMARK   11  A    between atoms: C_18  and  C_19
REMARK   12  A    between atoms: C_20  and  N_21
REMARK   13  A    between atoms: C_23  and  C_24
REMARK                            x       y       z     vdW  Elec       q    Type
REMARK                         _______ _______ _______ _____ _____    ______ ____
ROOT
ATOM      1  C   UNL     1      10.946   0.601  24.843  0.00  0.00    +0.122 C 
ATOM      2  C   UNL     1      10.189   0.285  23.608  0.00  0.00    +0.191 A 
ATOM      3  N   UNL     1       9.532   1.286  22.883  0.00  0.00    -0.190 N 
ATOM      4  C   UNL     1       9.017   0.880  21.731  0.00  0.00    +0.357 A 
ATOM      5  S   UNL     1       9.390  -0.742  21.430  0.00  0.00    -0.027 S 
ATOM      6  C   UNL     1       9.950  -0.962  23.053  0.00  0.00    +0.064 A 
ENDROOT
BRANCH   3   7
ATOM      7  C   UNL     1       9.260   2.651  23.355  0.00  0.00    +0.397 C 
BRANCH   7   8
ATOM      8  C   UNL     1       7.786   2.923  23.444  0.00  0.00    +0.056 A 
ATOM      9  C   UNL     1       6.954   2.082  24.179  0.00  0.00    +0.122 A 
ATOM     10  N   UNL     1       5.612   2.159  24.191  0.00  0.00    -0.260 NA
ATOM     11  C   UNL     1       5.038   3.116  23.437  0.00  0.00    +0.040 A 
ATOM     12  C   UNL     1       3.541   3.140  23.388  0.00  0.00    +0.065 C 
ATOM     13  C   UNL     1       5.790   4.065  22.754  0.00  0.00    +0.046 A 
ATOM     14  C   UNL     1       7.185   4.015  22.809  0.00  0.00    +0.037 A 
BRANCH  14  15
ATOM     15  N   UNL     1       7.932   4.960  22.087  0.00  0.00    -0.358 N 
ATOM     16  H   UNL     1       8.601   4.528  21.448  0.00  0.00    +0.142 HD
ATOM     17  H   UNL     1       7.379   5.634  21.561  0.00  0.00    +0.142 HD
ENDBRANCH  14  15
ENDBRANCH   7   8
ENDBRANCH   3   7
BRANCH   6  18
ATOM     18  C   UNL     1      10.089  -2.352  23.637  0.00  0.00    +0.077 C 
BRANCH  18  19
ATOM     19  C   UNL     1       8.755  -2.771  24.262  0.00  0.00    +0.178 C 
BRANCH  19  20
ATOM     20  O   UNL     1       8.867  -3.514  25.450  0.00  0.00    -0.286 OA
BRANCH  20  21
ATOM     21  P   UNL     1       8.697  -5.158  25.236  0.00  0.00    +0.480 P 
ATOM     22  O   UNL     1       8.626  -5.426  23.718  0.00  0.00    -0.227 OA
BRANCH  21  23
ATOM     23  O   UNL     1      10.416  -5.290  25.082  0.00  0.00    -0.302 OA
ATOM     24  H   UNL     1      10.700  -5.108  25.999  0.00  0.00    +0.222 HD
ENDBRANCH  21  23
BRANCH  21  25
ATOM     25  O   UNL     1       6.979  -5.026  25.389  0.00  0.00    -0.229 OA
BRANCH  25  26
ATOM     26  P   UNL     1       6.533  -5.357  26.900  0.00  0.00    +0.220 P 
ATOM     27  O   UNL     1       6.103  -4.089  27.579  0.00  0.00    -0.517 OA
ATOM     28  O   UNL     1       5.704  -6.608  26.919  0.00  0.00    -0.437 OA
BRANCH  26  29
ATOM     29  O   UNL     1       7.952  -5.798  27.514  0.00  0.00    -0.343 OA
ATOM     30  H   UNL     1       7.749  -6.581  28.051  0.00  0.00    +0.218 HD
ENDBRANCH  26  29
ENDBRANCH  25  26
ENDBRANCH  21  25
ENDBRANCH  20  21
ENDBRANCH  19  20
ENDBRANCH  18  19
ENDBRANCH   6  18
TORSDOF 11
ENDMDL
MODEL 4
REMARK VINA RESULT:      -5.9      2.118      3.071
REMARK  Name = 
REMARK  13 active torsions:
REMARK  status: ('A' for Active; 'I' for Inactive)
REMARK    1  A    between atoms: C_1  and  C_2
REMARK    2  A    between atoms: C_3  and  C_4
REMARK    3  A    between atoms: C_4  and  C_5
REMARK    4  A    between atoms: C_5  and  O_6
REMARK    5  A    between atoms: O_6  and  P_7
REMARK    6  A    between atoms: P_7  and  O_8
REMARK    7  A    between atoms: P_7  and  O_10
REMARK    8  A    between atoms: O_10  and  P_11
REMARK    9  A    between atoms: P_11  and  O_12
REMARK   10  A    between atoms: N_17  and  C_18
REMARK   11  A    between atoms: C_18  and  C_19
REMARK   12  A    between atoms: C_20  and  N_21
REMARK   13  A    between atoms: C_23  and  C_24
REMARK                            x       y       z     vdW  Elec       q    Type
REMARK                         _______ _______ _______ _____ _____    ______ ____
ROOT
ATOM      1  C   UNL     1      10.124  -1.409  22.221  0.00  0.00    +0.122 C 
ATOM      2  C   UNL     1       9.633  -1.201  23.604  0.00  0.00    +0.191 A 
ATOM      3  N   UNL     1       9.593   0.076  24.175  0.00  0.00    -0.190 N 
ATOM      4  C   UNL     1       9.002   0.129  25.361  0.00  0.00    +0.357 A 
ATOM      5  S   UNL     1       8.380  -1.381  25.804  0.00  0.00    -0.027 S 
ATOM      6  C   UNL     1       9.243  -2.162  24.522  0.00  0.00    +0.064 A 
ENDROOT
BRANCH   3   7
ATOM      7  C   UNL     1      10.256   1.276  23.645  0.00  0.00    +0.397 C 
BRANCH   7   8
ATOM      8  C   UNL     1       9.272   2.374  23.363  0.00  0.00    +0.056 A 
ATOM      9  C   UNL     1       9.062   3.393  24.289  0.00  0.00    +0.122 A 
ATOM     10  N   UNL     1       8.100   4.327  24.192  0.00  0.00    -0.260 NA
ATOM     11  C   UNL     1       7.285   4.267  23.122  0.00  0.00    +0.040 A 
ATOM     12  C   UNL     1       6.162   5.258  23.064  0.00  0.00    +0.065 C 
ATOM     13  C   UNL     1       7.483   3.352  22.094  0.00  0.00    +0.046 A 
ATOM     14  C   UNL     1       8.532   2.434  22.177  0.00  0.00    +0.037 A 
BRANCH  14  15
ATOM     15  N   UNL     1       8.701   1.493  21.147  0.00  0.00    -0.358 N 
ATOM     16  H   UNL     1       8.017   0.736  21.190  0.00  0.00    +0.142 HD
ATOM     17  H   UNL     1       8.687   1.881  20.205  0.00  0.00    +0.142 HD
ENDBRANCH  14  15
ENDBRANCH   7   8
ENDBRANCH   3   7
BRANCH   6  18
ATOM     18  C   UNL     1       9.469  -3.659  24.549  0.00  0.00    +0.077 C 
BRANCH  18  19
ATOM     19  C   UNL     1       8.639  -4.274  25.679  0.00  0.00    +0.178 C 
BRANCH  19  20
ATOM     20  O   UNL     1       7.782  -5.315  25.285  0.00  0.00    -0.286 OA
BRANCH  20  21
ATOM     21  P   UNL     1       6.325  -4.791  24.667  0.00  0.00    +0.480 P 
ATOM     22  O   UNL     1       5.271  -5.875  24.976  0.00  0.00    -0.227 OA
BRANCH  21  23
ATOM     23  O   UNL     1       5.942  -4.113  26.212  0.00  0.00    -0.302 OA
ATOM     24  H   UNL     1       6.791  -3.689  26.445  0.00  0.00    +0.222 HD
ENDBRANCH  21  23
BRANCH  21  25
ATOM     25  O   UNL     1       6.708  -5.471  23.122  0.00  0.00    -0.229 OA
BRANCH  25  26
ATOM     26  P   UNL     1       6.193  -4.496  21.949  0.00  0.00    +0.220 P 
ATOM     27  O   UNL     1       6.975  -3.215  21.988  0.00  0.00    -0.517 OA
ATOM     28  O   UNL     1       5.994  -5.286  20.688  0.00  0.00    -0.437 OA
BRANCH  26  29
ATOM     29  O   UNL     1       4.706  -4.191  22.479  0.00  0.00    -0.343 OA
ATOM     30  H   UNL     1       4.125  -4.552  21.789  0.00  0.00    +0.218 HD
ENDBRANCH  26  29
ENDBRANCH  25  26
ENDBRANCH  21  25
ENDBRANCH  20  21
ENDBRANCH  19  20
ENDBRANCH  18  19
ENDBRANCH   6  18
TORSDOF 11
ENDMDL
MODEL 5
REMARK VINA RESULT:      -5.9      2.037      3.383
REMARK  Name = 
REMARK  13 active torsions:
REMARK  status: ('A' for Active; 'I' for Inactive)
REMARK    1  A    between atoms: C_1  and  C_2
REMARK    2  A    between atoms: C_3  and  C_4
REMARK    3  A    between atoms: C_4  and  C_5
REMARK    4  A    between atoms: C_5  and  O_6
REMARK    5  A    between atoms: O_6  and  P_7
REMARK    6  A    between atoms: P_7  and  O_8
REMARK    7  A    between atoms: P_7  and  O_10
REMARK    8  A    between atoms: O_10  and  P_11
REMARK    9  A    between atoms: P_11  and  O_12
REMARK   10  A    between atoms: N_17  and  C_18
REMARK   11  A    between atoms: C_18  and  C_19
REMARK   12  A    between atoms: C_20  and  N_21
REMARK   13  A    between atoms: C_23  and  C_24
REMARK                            x       y       z     vdW  Elec       q    Type
REMARK                         _______ _______ _______ _____ _____    ______ ____
ROOT
ATOM      1  C   UNL     1       9.726  -1.528  22.448  0.00  0.00    +0.122 C 
ATOM      2  C   UNL     1       9.336  -1.546  23.878  0.00  0.00    +0.191 A 
ATOM      3  N   UNL     1       9.442  -0.400  24.674  0.00  0.00    -0.190 N 
ATOM      4  C   UNL     1       8.928  -0.526  25.889  0.00  0.00    +0.357 A 
ATOM      5  S   UNL     1       8.200  -2.039  26.094  0.00  0.00    -0.027 S 
ATOM      6  C   UNL     1       8.914  -2.630  24.631  0.00  0.00    +0.064 A 
ENDROOT
BRANCH   3   7
ATOM      7  C   UNL     1      10.179   0.823  24.325  0.00  0.00    +0.397 C 
BRANCH   7   8
ATOM      8  C   UNL     1       9.250   1.946  23.966  0.00  0.00    +0.056 A 
ATOM      9  C   UNL     1       8.501   2.588  24.949  0.00  0.00    +0.122 A 
ATOM     10  N   UNL     1       7.539   3.494  24.706  0.00  0.00    -0.260 NA
ATOM     11  C   UNL     1       7.285   3.797  23.418  0.00  0.00    +0.040 A 
ATOM     12  C   UNL     1       6.153   4.742  23.150  0.00  0.00    +0.065 C 
ATOM     13  C   UNL     1       8.050   3.287  22.376  0.00  0.00    +0.046 A 
ATOM     14  C   UNL     1       9.094   2.401  22.653  0.00  0.00    +0.037 A 
BRANCH  14  15
ATOM     15  N   UNL     1       9.838   1.868  21.587  0.00  0.00    -0.358 N 
ATOM     16  H   UNL     1       9.266   1.319  20.942  0.00  0.00    +0.142 HD
ATOM     17  H   UNL     1      10.362   2.551  21.044  0.00  0.00    +0.142 HD
ENDBRANCH  14  15
ENDBRANCH   7   8
ENDBRANCH   3   7
BRANCH   6  18
ATOM     18  C   UNL     1       9.006  -4.118  24.368  0.00  0.00    +0.077 C 
BRANCH  18  19
ATOM     19  C   UNL     1       7.601  -4.675  24.122  0.00  0.00    +0.178 C 
BRANCH  19  20
ATOM     20  O   UNL     1       6.909  -4.083  23.052  0.00  0.00    -0.286 OA
BRANCH  20  21
ATOM     21  P   UNL     1       5.981  -5.153  22.174  0.00  0.00    +0.480 P 
ATOM     22  O   UNL     1       5.938  -4.646  20.717  0.00  0.00    -0.227 OA
BRANCH  21  23
ATOM     23  O   UNL     1       7.423  -6.003  21.734  0.00  0.00    -0.302 OA
ATOM     24  H   UNL     1       7.332  -6.815  22.271  0.00  0.00    +0.222 HD
ENDBRANCH  21  23
BRANCH  21  25
ATOM     25  O   UNL     1       4.540  -4.303  22.613  0.00  0.00    -0.229 OA
BRANCH  25  26
ATOM     26  P   UNL     1       3.596  -5.247  23.512  0.00  0.00    +0.220 P 
ATOM     27  O   UNL     1       3.917  -5.034  24.963  0.00  0.00    -0.517 OA
ATOM     28  O   UNL     1       2.193  -5.211  22.979  0.00  0.00    -0.437 OA
BRANCH  26  29
ATOM     29  O   UNL     1       4.159  -6.689  23.080  0.00  0.00    -0.343 OA
ATOM     30  H   UNL     1       4.988  -6.495  22.612  0.00  0.00    +0.218 HD
ENDBRANCH  26  29
ENDBRANCH  25  26
ENDBRANCH  21  25
ENDBRANCH  20  21
ENDBRANCH  19  20
ENDBRANCH  18  19
ENDBRANCH   6  18
TORSDOF 11
ENDMDL
MODEL 6
REMARK VINA RESULT:      -5.9      3.091      4.680
REMARK  Name = 
REMARK  13 active torsions:
REMARK  status: ('A' for Active; 'I' for Inactive)
REMARK    1  A    between atoms: C_1  and  C_2
REMARK    2  A    between atoms: C_3  and  C_4
REMARK    3  A    between atoms: C_4  and  C_5
REMARK    4  A    between atoms: C_5  and  O_6
REMARK    5  A    between atoms: O_6  and  P_7
REMARK    6  A    between atoms: P_7  and  O_8
REMARK    7  A    between atoms: P_7  and  O_10
REMARK    8  A    between atoms: O_10  and  P_11
REMARK    9  A    between atoms: P_11  and  O_12
REMARK   10  A    between atoms: N_17  and  C_18
REMARK   11  A    between atoms: C_18  and  C_19
REMARK   12  A    between atoms: C_20  and  N_21
REMARK   13  A    between atoms: C_23  and  C_24
REMARK                            x       y       z     vdW  Elec       q    Type
REMARK                         _______ _______ _______ _____ _____    ______ ____
ROOT
ATOM      1  C   UNL     1       9.618  -0.357  22.158  0.00  0.00    +0.122 C 
ATOM      2  C   UNL     1       8.461  -0.109  23.050  0.00  0.00    +0.191 A 
ATOM      3  N   UNL     1       7.558   0.929  22.795  0.00  0.00    -0.190 N 
ATOM      4  C   UNL     1       6.499   0.944  23.593  0.00  0.00    +0.357 A 
ATOM      5  S   UNL     1       6.508  -0.378  24.649  0.00  0.00    -0.027 S 
ATOM      6  C   UNL     1       8.147  -0.753  24.236  0.00  0.00    +0.064 A 
ENDROOT
BRANCH   3   7
ATOM      7  C   UNL     1       7.764   2.035  21.849  0.00  0.00    +0.397 C 
BRANCH   7   8
ATOM      8  C   UNL     1       8.167   3.298  22.553  0.00  0.00    +0.056 A 
ATOM      9  C   UNL     1       9.405   3.393  23.184  0.00  0.00    +0.122 A 
ATOM     10  N   UNL     1       9.789   4.421  23.961  0.00  0.00    -0.260 NA
ATOM     11  C   UNL     1       8.909   5.424  24.140  0.00  0.00    +0.040 A 
ATOM     12  C   UNL     1       9.309   6.524  25.077  0.00  0.00    +0.065 C 
ATOM     13  C   UNL     1       7.692   5.467  23.469  0.00  0.00    +0.046 A 
ATOM     14  C   UNL     1       7.340   4.425  22.608  0.00  0.00    +0.037 A 
BRANCH  14  15
ATOM     15  N   UNL     1       6.093   4.464  21.961  0.00  0.00    -0.358 N 
ATOM     16  H   UNL     1       5.513   3.651  22.174  0.00  0.00    +0.142 HD
ATOM     17  H   UNL     1       5.543   5.302  22.139  0.00  0.00    +0.142 HD
ENDBRANCH  14  15
ENDBRANCH   7   8
ENDBRANCH   3   7
BRANCH   6  18
ATOM     18  C   UNL     1       8.981  -1.642  25.134  0.00  0.00    +0.077 C 
BRANCH  18  19
ATOM     19  C   UNL     1       8.110  -2.786  25.661  0.00  0.00    +0.178 C 
BRANCH  19  20
ATOM     20  O   UNL     1       8.808  -3.789  26.355  0.00  0.00    -0.286 OA
BRANCH  20  21
ATOM     21  P   UNL     1       8.634  -5.310  25.698  0.00  0.00    +0.480 P 
ATOM     22  O   UNL     1       8.732  -5.170  24.164  0.00  0.00    -0.227 OA
BRANCH  21  23
ATOM     23  O   UNL     1      10.356  -5.480  25.696  0.00  0.00    -0.302 OA
ATOM     24  H   UNL     1      10.537  -5.557  26.654  0.00  0.00    +0.222 HD
ENDBRANCH  21  23
BRANCH  21  25
ATOM     25  O   UNL     1       6.912  -5.141  25.698  0.00  0.00    -0.229 OA
BRANCH  25  26
ATOM     26  P   UNL     1       6.314  -5.599  27.121  0.00  0.00    +0.220 P 
ATOM     27  O   UNL     1       5.836  -4.389  27.871  0.00  0.00    -0.517 OA
ATOM     28  O   UNL     1       5.470  -6.827  26.942  0.00  0.00    -0.437 OA
BRANCH  26  29
ATOM     29  O   UNL     1       7.658  -6.126  27.827  0.00  0.00    -0.343 OA
ATOM     30  H   UNL     1       8.195  -5.326  27.953  0.00  0.00    +0.218 HD
ENDBRANCH  26  29
ENDBRANCH  25  26
ENDBRANCH  21  25
ENDBRANCH  20  21
ENDBRANCH  19  20
ENDBRANCH  18  19
ENDBRANCH   6  18
TORSDOF 11
ENDMDL
MODEL 7
REMARK VINA RESULT:      -5.9      2.751      3.983
REMARK  Name = 
REMARK  13 active torsions:
REMARK  status: ('A' for Active; 'I' for Inactive)
REMARK    1  A    between atoms: C_1  and  C_2
REMARK    2  A    between atoms: C_3  and  C_4
REMARK    3  A    between atoms: C_4  and  C_5
REMARK    4  A    between atoms: C_5  and  O_6
REMARK    5  A    between atoms: O_6  and  P_7
REMARK    6  A    between atoms: P_7  and  O_8
REMARK    7  A    between atoms: P_7  and  O_10
REMARK    8  A    between atoms: O_10  and  P_11
REMARK    9  A    between atoms: P_11  and  O_12
REMARK   10  A    between atoms: N_17  and  C_18
REMARK   11  A    between atoms: C_18  and  C_19
REMARK   12  A    between atoms: C_20  and  N_21
REMARK   13  A    between atoms: C_23  and  C_24
REMARK                            x       y       z     vdW  Elec       q    Type
REMARK                         _______ _______ _______ _____ _____    ______ ____
ROOT
ATOM      1  C   UNL     1       7.565  -4.114  22.515  0.00  0.00    +0.122 C 
ATOM      2  C   UNL     1       7.116  -3.095  23.493  0.00  0.00    +0.191 A 
ATOM      3  N   UNL     1       7.974  -2.079  23.929  0.00  0.00    -0.190 N 
ATOM      4  C   UNL     1       7.396  -1.162  24.693  0.00  0.00    +0.357 A 
ATOM      5  S   UNL     1       5.736  -1.448  24.845  0.00  0.00    -0.027 S 
ATOM      6  C   UNL     1       5.899  -3.027  24.153  0.00  0.00    +0.064 A 
ENDROOT
BRANCH   3   7
ATOM      7  C   UNL     1       9.430  -2.041  23.732  0.00  0.00    +0.397 C 
BRANCH   7   8
ATOM      8  C   UNL     1       9.923  -0.640  23.514  0.00  0.00    +0.056 A 
ATOM      9  C   UNL     1      10.441   0.101  24.574  0.00  0.00    +0.122 A 
ATOM     10  N   UNL     1      10.764   1.404  24.507  0.00  0.00    -0.260 NA
ATOM     11  C   UNL     1      10.569   2.032  23.332  0.00  0.00    +0.040 A 
ATOM     12  C   UNL     1      10.848   3.504  23.290  0.00  0.00    +0.065 C 
ATOM     13  C   UNL     1      10.155   1.352  22.192  0.00  0.00    +0.046 A 
ATOM     14  C   UNL     1       9.892  -0.019  22.262  0.00  0.00    +0.037 A 
BRANCH  14  15
ATOM     15  N   UNL     1       9.443  -0.687  21.110  0.00  0.00    -0.358 N 
ATOM     16  H   UNL     1       9.646  -0.173  20.252  0.00  0.00    +0.142 HD
ATOM     17  H   UNL     1       9.792  -1.638  21.002  0.00  0.00    +0.142 HD
ENDBRANCH  14  15
ENDBRANCH   7   8
ENDBRANCH   3   7
BRANCH   6  18
ATOM     18  C   UNL     1       4.812  -4.064  24.339  0.00  0.00    +0.077 C 
BRANCH  18  19
ATOM     19  C   UNL     1       4.934  -4.678  25.736  0.00  0.00    +0.178 C 
BRANCH  19  20
ATOM     20  O   UNL     1       5.915  -4.094  26.556  0.00  0.00    -0.286 OA
BRANCH  20  21
ATOM     21  P   UNL     1       7.100  -5.155  27.052  0.00  0.00    +0.480 P 
ATOM     22  O   UNL     1       7.669  -5.840  25.792  0.00  0.00    -0.227 OA
BRANCH  21  23
ATOM     23  O   UNL     1       8.281  -3.917  26.796  0.00  0.00    -0.302 OA
ATOM     24  H   UNL     1       7.739  -3.228  26.366  0.00  0.00    +0.222 HD
ENDBRANCH  21  23
BRANCH  21  25
ATOM     25  O   UNL     1       5.919  -6.394  27.307  0.00  0.00    -0.229 OA
BRANCH  25  26
ATOM     26  P   UNL     1       5.714  -6.644  28.884  0.00  0.00    +0.220 P 
ATOM     27  O   UNL     1       6.822  -7.517  29.396  0.00  0.00    -0.517 OA
ATOM     28  O   UNL     1       5.321  -5.358  29.552  0.00  0.00    -0.437 OA
BRANCH  26  29
ATOM     29  O   UNL     1       4.364  -7.516  28.850  0.00  0.00    -0.343 OA
ATOM     30  H   UNL     1       4.667  -8.424  28.690  0.00  0.00    +0.218 HD
ENDBRANCH  26  29
ENDBRANCH  25  26
ENDBRANCH  21  25
ENDBRANCH  20  21
ENDBRANCH  19  20
ENDBRANCH  18  19
ENDBRANCH   6  18
TORSDOF 11
ENDMDL
MODEL 8
REMARK VINA RESULT:      -5.8      2.242      3.839
REMARK  Name = 
REMARK  13 active torsions:
REMARK  status: ('A' for Active; 'I' for Inactive)
REMARK    1  A    between atoms: C_1  and  C_2
REMARK    2  A    between atoms: C_3  and  C_4
REMARK    3  A    between atoms: C_4  and  C_5
REMARK    4  A    between atoms: C_5  and  O_6
REMARK    5  A    between atoms: O_6  and  P_7
REMARK    6  A    between atoms: P_7  and  O_8
REMARK    7  A    between atoms: P_7  and  O_10
REMARK    8  A    between atoms: O_10  and  P_11
REMARK    9  A    between atoms: P_11  and  O_12
REMARK   10  A    between atoms: N_17  and  C_18
REMARK   11  A    between atoms: C_18  and  C_19
REMARK   12  A    between atoms: C_20  and  N_21
REMARK   13  A    between atoms: C_23  and  C_24
REMARK                            x       y       z     vdW  Elec       q    Type
REMARK                         _______ _______ _______ _____ _____    ______ ____
ROOT
ATOM      1  C   UNL     1       6.680   0.153  23.773  0.00  0.00    +0.122 C 
ATOM      2  C   UNL     1       7.894  -0.348  23.085  0.00  0.00    +0.191 A 
ATOM      3  N   UNL     1       8.575   0.440  22.151  0.00  0.00    -0.190 N 
ATOM      4  C   UNL     1       9.717  -0.080  21.723  0.00  0.00    +0.357 A 
ATOM      5  S   UNL     1      10.064  -1.534  22.516  0.00  0.00    -0.027 S 
ATOM      6  C   UNL     1       8.466  -1.606  23.178  0.00  0.00    +0.064 A 
ENDROOT
BRANCH   3   7
ATOM      7  C   UNL     1       8.067   1.673  21.533  0.00  0.00    +0.397 C 
BRANCH   7   8
ATOM      8  C   UNL     1       8.248   2.860  22.433  0.00  0.00    +0.056 A 
ATOM      9  C   UNL     1       9.433   3.036  23.144  0.00  0.00    +0.122 A 
ATOM     10  N   UNL     1       9.627   3.978  24.083  0.00  0.00    -0.260 NA
ATOM     11  C   UNL     1       8.600   4.807  24.350  0.00  0.00    +0.040 A 
ATOM     12  C   UNL     1       8.793   5.799  25.457  0.00  0.00    +0.065 C 
ATOM     13  C   UNL     1       7.417   4.775  23.620  0.00  0.00    +0.046 A 
ATOM     14  C   UNL     1       7.259   3.835  22.599  0.00  0.00    +0.037 A 
BRANCH  14  15
ATOM     15  N   UNL     1       6.046   3.793  21.891  0.00  0.00    -0.358 N 
ATOM     16  H   UNL     1       5.433   3.038  22.204  0.00  0.00    +0.142 HD
ATOM     17  H   UNL     1       5.513   4.660  21.900  0.00  0.00    +0.142 HD
ENDBRANCH  14  15
ENDBRANCH   7   8
ENDBRANCH   3   7
BRANCH   6  18
ATOM     18  C   UNL     1       7.916  -2.910  23.715  0.00  0.00    +0.077 C 
BRANCH  18  19
ATOM     19  C   UNL     1       7.136  -3.624  22.607  0.00  0.00    +0.178 C 
BRANCH  19  20
ATOM     20  O   UNL     1       7.226  -5.026  22.629  0.00  0.00    -0.286 OA
BRANCH  20  21
ATOM     21  P   UNL     1       5.755  -5.794  22.779  0.00  0.00    +0.480 P 
ATOM     22  O   UNL     1       4.658  -4.781  22.390  0.00  0.00    -0.227 OA
BRANCH  21  23
ATOM     23  O   UNL     1       5.830  -6.211  21.100  0.00  0.00    -0.302 OA
ATOM     24  H   UNL     1       5.714  -5.334  20.685  0.00  0.00    +0.222 HD
ENDBRANCH  21  23
BRANCH  21  25
ATOM     25  O   UNL     1       5.679  -5.377  24.456  0.00  0.00    -0.229 OA
BRANCH  25  26
ATOM     26  P   UNL     1       4.629  -6.333  25.214  0.00  0.00    +0.220 P 
ATOM     27  O   UNL     1       5.290  -6.942  26.416  0.00  0.00    -0.517 OA
ATOM     28  O   UNL     1       3.289  -5.658  25.281  0.00  0.00    -0.437 OA
BRANCH  26  29
ATOM     29  O   UNL     1       4.452  -7.482  24.103  0.00  0.00    -0.343 OA
ATOM     30  H   UNL     1       4.837  -8.274  24.512  0.00  0.00    +0.218 HD
ENDBRANCH  26  29
ENDBRANCH  25  26
ENDBRANCH  21  25
ENDBRANCH  20  21
ENDBRANCH  19  20
ENDBRANCH  18  19
ENDBRANCH   6  18
TORSDOF 11
ENDMDL
MODEL 9
REMARK VINA RESULT:      -5.7      6.161      8.585
REMARK  Name = 
REMARK  13 active torsions:
REMARK  status: ('A' for Active; 'I' for Inactive)
REMARK    1  A    between atoms: C_1  and  C_2
REMARK    2  A    between atoms: C_3  and  C_4
REMARK    3  A    between atoms: C_4  and  C_5
REMARK    4  A    between atoms: C_5  and  O_6
REMARK    5  A    between atoms: O_6  and  P_7
REMARK    6  A    between atoms: P_7  and  O_8
REMARK    7  A    between atoms: P_7  and  O_10
REMARK    8  A    between atoms: O_10  and  P_11
REMARK    9  A    between atoms: P_11  and  O_12
REMARK   10  A    between atoms: N_17  and  C_18
REMARK   11  A    between atoms: C_18  and  C_19
REMARK   12  A    between atoms: C_20  and  N_21
REMARK   13  A    between atoms: C_23  and  C_24
REMARK                            x       y       z     vdW  Elec       q    Type
REMARK                         _______ _______ _______ _____ _____    ______ ____
ROOT
ATOM      1  C   UNL     1       8.905  -1.734  22.042  0.00  0.00    +0.122 C 
ATOM      2  C   UNL     1       8.543  -1.337  23.423  0.00  0.00    +0.191 A 
ATOM      3  N   UNL     1       8.782  -2.186  24.509  0.00  0.00    -0.190 N 
ATOM      4  C   UNL     1       8.537  -1.644  25.694  0.00  0.00    +0.357 A 
ATOM      5  S   UNL     1       8.081  -0.021  25.544  0.00  0.00    -0.027 S 
ATOM      6  C   UNL     1       7.882  -0.189  23.832  0.00  0.00    +0.064 A 
ENDROOT
BRANCH   3   7
ATOM      7  C   UNL     1       9.129  -3.612  24.426  0.00  0.00    +0.397 C 
BRANCH   7   8
ATOM      8  C   UNL     1       7.918  -4.486  24.578  0.00  0.00    +0.056 A 
ATOM      9  C   UNL     1       7.021  -4.643  23.525  0.00  0.00    +0.122 A 
ATOM     10  N   UNL     1       5.840  -5.279  23.617  0.00  0.00    -0.260 NA
ATOM     11  C   UNL     1       5.506  -5.796  24.815  0.00  0.00    +0.040 A 
ATOM     12  C   UNL     1       4.152  -6.426  24.933  0.00  0.00    +0.065 C 
ATOM     13  C   UNL     1       6.382  -5.779  25.895  0.00  0.00    +0.046 A 
ATOM     14  C   UNL     1       7.635  -5.177  25.761  0.00  0.00    +0.037 A 
BRANCH  14  15
ATOM     15  N   UNL     1       8.497  -5.138  26.870  0.00  0.00    -0.358 N 
ATOM     16  H   UNL     1       9.473  -4.997  26.605  0.00  0.00    +0.142 HD
ATOM     17  H   UNL     1       8.256  -4.447  27.578  0.00  0.00    +0.142 HD
ENDBRANCH  14  15
ENDBRANCH   7   8
ENDBRANCH   3   7
BRANCH   6  18
ATOM     18  C   UNL     1       7.076   0.825  23.049  0.00  0.00    +0.077 C 
BRANCH  18  19
ATOM     19  C   UNL     1       8.029   1.715  22.245  0.00  0.00    +0.178 C 
BRANCH  19  20
ATOM     20  O   UNL     1       8.288   2.972  22.817  0.00  0.00    -0.286 OA
BRANCH  20  21
ATOM     21  P   UNL     1       9.909   3.299  23.023  0.00  0.00    +0.480 P 
ATOM     22  O   UNL     1      10.480   2.236  23.985  0.00  0.00    -0.227 OA
BRANCH  21  23
ATOM     23  O   UNL     1      10.269   2.193  21.741  0.00  0.00    -0.302 OA
ATOM     24  H   UNL     1      10.509   1.392  22.248  0.00  0.00    +0.222 HD
ENDBRANCH  21  23
BRANCH  21  25
ATOM     25  O   UNL     1       9.549   4.403  24.305  0.00  0.00    -0.229 OA
BRANCH  25  26
ATOM     26  P   UNL     1      10.046   5.883  23.912  0.00  0.00    +0.220 P 
ATOM     27  O   UNL     1       8.978   6.569  23.109  0.00  0.00    -0.517 OA
ATOM     28  O   UNL     1      10.706   6.525  25.098  0.00  0.00    -0.437 OA
BRANCH  26  29
ATOM     29  O   UNL     1      11.257   5.512  22.923  0.00  0.00    -0.343 OA
ATOM     30  H   UNL     1      11.835   4.938  23.452  0.00  0.00    +0.218 HD
ENDBRANCH  26  29
ENDBRANCH  25  26
ENDBRANCH  21  25
ENDBRANCH  20  21
ENDBRANCH  19  20
ENDBRANCH  18  19
ENDBRANCH   6  18
TORSDOF 11
ENDMDL
