MODEL 1
REMARK VINA RESULT:      -7.1      0.000      0.000
REMARK  Name = 
REMARK  7 active torsions:
REMARK  status: ('A' for Active; 'I' for Inactive)
REMARK    1  A    between atoms: C_1  and  N_2
REMARK    2  A    between atoms: C_4  and  C_11
REMARK    3  A    between atoms: C_12  and  C_18
REMARK    4  A    between atoms: N_20  and  C_21
REMARK    5  A    between atoms: C_21  and  C_22
REMARK    6  A    between atoms: C_22  and  C_23
REMARK    7  A    between atoms: C_23  and  N_24
REMARK                            x       y       z     vdW  Elec       q    Type
REMARK                         _______ _______ _______ _____ _____    ______ ____
ROOT
ATOM      1  C   UNL     1       7.726   0.300  24.039  0.00  0.00    +0.059 C 
ATOM      2  C   UNL     1       7.929   1.599  23.324  0.00  0.00    +0.252 C 
ATOM      3  O   UNL     1       7.824   2.730  23.759  0.00  0.00    -0.270 OA
ATOM      4  N   UNL     1       8.359   1.340  22.078  0.00  0.00    -0.248 N 
ATOM      5  H   UNL     1       8.668   2.058  21.443  0.00  0.00    +0.158 HD
ATOM      6  C   UNL     1       8.789   0.079  22.018  0.00  0.00    +0.252 C 
ATOM      7  O   UNL     1       9.502  -0.389  21.148  0.00  0.00    -0.270 OA
ATOM      8  C   UNL     1       8.292  -0.618  23.228  0.00  0.00    +0.059 C 
ENDROOT
BRANCH   1  16
ATOM      9  C   UNL     1       6.723   0.997  28.831  0.00  0.00    +0.149 C 
ATOM     10  N   UNL     1       6.575   0.563  27.460  0.00  0.00    -0.349 N 
ATOM     11  C   UNL     1       5.630  -0.329  27.022  0.00  0.00    +0.049 A 
ATOM     12  C   UNL     1       6.036  -0.750  25.748  0.00  0.00    +0.008 A 
ATOM     13  C   UNL     1       5.349  -1.862  25.207  0.00  0.00    +0.010 A 
ATOM     14  C   UNL     1       4.233  -2.404  25.859  0.00  0.00    +0.001 A 
ATOM     15  C   UNL     1       3.780  -1.860  27.051  0.00  0.00    +0.002 A 
ATOM     16  C   UNL     1       7.090   0.144  25.320  0.00  0.00    +0.013 A 
ATOM     17  C   UNL     1       4.487  -0.831  27.667  0.00  0.00    +0.026 A 
ATOM     18  C   UNL     1       7.418   0.895  26.437  0.00  0.00    +0.095 A 
ENDBRANCH   1  16
BRANCH   8  19
ATOM     19  C   UNL     1       8.405  -2.033  23.280  0.00  0.00    +0.013 A 
ATOM     20  C   UNL     1       7.586  -3.071  22.744  0.00  0.00    +0.008 A 
ATOM     21  C   UNL     1       6.517  -3.131  21.822  0.00  0.00    +0.010 A 
ATOM     22  C   UNL     1       5.965  -4.375  21.476  0.00  0.00    +0.001 A 
ATOM     23  C   UNL     1       6.416  -5.546  22.080  0.00  0.00    +0.002 A 
ATOM     24  C   UNL     1       7.425  -5.509  23.043  0.00  0.00    +0.026 A 
ATOM     25  C   UNL     1       8.011  -4.268  23.346  0.00  0.00    +0.050 A 
ATOM     26  N   UNL     1       9.011  -3.930  24.237  0.00  0.00    -0.346 N 
ATOM     27  C   UNL     1       9.392  -2.632  24.028  0.00  0.00    +0.095 A 
BRANCH  26  28
ATOM     28  C   UNL     1       9.566  -4.764  25.288  0.00  0.00    +0.123 C 
BRANCH  28  29
ATOM     29  C   UNL     1       8.975  -4.505  26.683  0.00  0.00    +0.036 C 
BRANCH  29  30
ATOM     30  C   UNL     1       7.528  -4.975  26.836  0.00  0.00    +0.079 C 
BRANCH  30  31
ATOM     31  N   UNL     1       7.469  -6.060  27.813  0.00  0.00    -0.330 NA
ATOM     32  H   UNL     1       8.245  -6.702  27.651  0.00  0.00    +0.118 HD
ATOM     33  H   UNL     1       7.585  -5.695  28.757  0.00  0.00    +0.118 HD
ENDBRANCH  30  31
ENDBRANCH  29  30
ENDBRANCH  28  29
ENDBRANCH  26  28
ENDBRANCH   8  19
TORSDOF 6
ENDMDL
MODEL 2
REMARK VINA RESULT:      -7.0      2.424      6.787
REMARK  Name = 
REMARK  7 active torsions:
REMARK  status: ('A' for Active; 'I' for Inactive)
REMARK    1  A    between atoms: C_1  and  N_2
REMARK    2  A    between atoms: C_4  and  C_11
REMARK    3  A    between atoms: C_12  and  C_18
REMARK    4  A    between atoms: N_20  and  C_21
REMARK    5  A    between atoms: C_21  and  C_22
REMARK    6  A    between atoms: C_22  and  C_23
REMARK    7  A    between atoms: C_23  and  N_24
REMARK                            x       y       z     vdW  Elec       q    Type
REMARK                         _______ _______ _______ _____ _____    ______ ____
ROOT
ATOM      1  C   UNL     1       6.174  -1.638  25.480  0.00  0.00    +0.059 C 
ATOM      2  C   UNL     1       5.111  -1.697  26.532  0.00  0.00    +0.252 C 
ATOM      3  O   UNL     1       4.835  -2.613  27.284  0.00  0.00    -0.270 OA
ATOM      4  N   UNL     1       4.516  -0.494  26.607  0.00  0.00    -0.248 N 
ATOM      5  H   UNL     1       3.844  -0.258  27.319  0.00  0.00    +0.158 HD
ATOM      6  C   UNL     1       5.284   0.411  26.000  0.00  0.00    +0.252 C 
ATOM      7  O   UNL     1       5.201   1.619  26.135  0.00  0.00    -0.270 OA
ATOM      8  C   UNL     1       6.285  -0.325  25.191  0.00  0.00    +0.059 C 
ENDROOT
BRANCH   1  16
ATOM      9  C   UNL     1       9.459  -5.328  25.259  0.00  0.00    +0.149 C 
ATOM     10  N   UNL     1       8.313  -4.507  24.939  0.00  0.00    -0.349 N 
ATOM     11  C   UNL     1       7.562  -4.626  23.798  0.00  0.00    +0.049 A 
ATOM     12  C   UNL     1       6.799  -3.455  23.695  0.00  0.00    +0.008 A 
ATOM     13  C   UNL     1       6.138  -3.244  22.462  0.00  0.00    +0.010 A 
ATOM     14  C   UNL     1       6.137  -4.233  21.469  0.00  0.00    +0.001 A 
ATOM     15  C   UNL     1       6.789  -5.439  21.675  0.00  0.00    +0.002 A 
ATOM     16  C   UNL     1       6.900  -2.769  24.965  0.00  0.00    +0.013 A 
ATOM     17  C   UNL     1       7.535  -5.646  22.831  0.00  0.00    +0.026 A 
ATOM     18  C   UNL     1       7.889  -3.433  25.671  0.00  0.00    +0.095 A 
ENDBRANCH   1  16
BRANCH   8  19
ATOM     19  C   UNL     1       7.062   0.410  24.257  0.00  0.00    +0.013 A 
ATOM     20  C   UNL     1       8.446   0.757  24.238  0.00  0.00    +0.008 A 
ATOM     21  C   UNL     1       9.589   0.366  24.970  0.00  0.00    +0.010 A 
ATOM     22  C   UNL     1      10.846   0.892  24.632  0.00  0.00    +0.001 A 
ATOM     23  C   UNL     1      10.970   1.844  23.623  0.00  0.00    +0.002 A 
ATOM     24  C   UNL     1       9.849   2.299  22.929  0.00  0.00    +0.026 A 
ATOM     25  C   UNL     1       8.601   1.730  23.235  0.00  0.00    +0.050 A 
ATOM     26  N   UNL     1       7.342   1.974  22.721  0.00  0.00    -0.346 N 
ATOM     27  C   UNL     1       6.468   1.025  23.179  0.00  0.00    +0.095 A 
BRANCH  26  28
ATOM     28  C   UNL     1       6.942   3.082  21.872  0.00  0.00    +0.123 C 
BRANCH  28  29
ATOM     29  C   UNL     1       6.507   4.343  22.637  0.00  0.00    +0.036 C 
BRANCH  29  30
ATOM     30  C   UNL     1       7.574   5.437  22.679  0.00  0.00    +0.079 C 
BRANCH  30  31
ATOM     31  N   UNL     1       7.498   6.238  21.458  0.00  0.00    -0.330 NA
ATOM     32  H   UNL     1       7.025   7.118  21.661  0.00  0.00    +0.118 HD
ATOM     33  H   UNL     1       8.433   6.477  21.132  0.00  0.00    +0.118 HD
ENDBRANCH  30  31
ENDBRANCH  29  30
ENDBRANCH  28  29
ENDBRANCH  26  28
ENDBRANCH   8  19
TORSDOF 6
ENDMDL
MODEL 3
REMARK VINA RESULT:      -6.8      2.513      6.795
REMARK  Name = 
REMARK  7 active torsions:
REMARK  status: ('A' for Active; 'I' for Inactive)
REMARK    1  A    between atoms: C_1  and  N_2
REMARK    2  A    between atoms: C_4  and  C_11
REMARK    3  A    between atoms: C_12  and  C_18
REMARK    4  A    between atoms: N_20  and  C_21
REMARK    5  A    between atoms: C_21  and  C_22
REMARK    6  A    between atoms: C_22  and  C_23
REMARK    7  A    between atoms: C_23  and  N_24
REMARK                            x       y       z     vdW  Elec       q    Type
REMARK                         _______ _______ _______ _____ _____    ______ ____
ROOT
ATOM      1  C   UNL     1       5.521  -1.350  25.504  0.00  0.00    +0.059 C 
ATOM      2  C   UNL     1       4.466  -1.216  26.556  0.00  0.00    +0.252 C 
ATOM      3  O   UNL     1       3.980  -2.082  27.260  0.00  0.00    -0.270 OA
ATOM      4  N   UNL     1       4.165   0.086  26.698  0.00  0.00    -0.248 N 
ATOM      5  H   UNL     1       3.560   0.433  27.425  0.00  0.00    +0.158 HD
ATOM      6  C   UNL     1       5.126   0.819  26.136  0.00  0.00    +0.252 C 
ATOM      7  O   UNL     1       5.325   2.005  26.335  0.00  0.00    -0.270 OA
ATOM      8  C   UNL     1       5.936  -0.085  25.284  0.00  0.00    +0.059 C 
ENDROOT
BRANCH   1  16
ATOM      9  C   UNL     1       5.683  -5.272  22.495  0.00  0.00    +0.149 C 
ATOM     10  N   UNL     1       6.094  -4.293  23.477  0.00  0.00    -0.349 N 
ATOM     11  C   UNL     1       7.204  -4.407  24.274  0.00  0.00    +0.049 A 
ATOM     12  C   UNL     1       7.056  -3.468  25.304  0.00  0.00    +0.008 A 
ATOM     13  C   UNL     1       7.957  -3.579  26.388  0.00  0.00    +0.010 A 
ATOM     14  C   UNL     1       9.023  -4.489  26.345  0.00  0.00    +0.001 A 
ATOM     15  C   UNL     1       9.214  -5.300  25.238  0.00  0.00    +0.002 A 
ATOM     16  C   UNL     1       5.969  -2.589  24.926  0.00  0.00    +0.013 A 
ATOM     17  C   UNL     1       8.292  -5.293  24.195  0.00  0.00    +0.026 A 
ATOM     18  C   UNL     1       5.380  -3.180  23.821  0.00  0.00    +0.095 A 
ENDBRANCH   1  16
BRANCH   8  19
ATOM     19  C   UNL     1       6.869   0.498  24.386  0.00  0.00    +0.013 A 
ATOM     20  C   UNL     1       8.288   0.632  24.447  0.00  0.00    +0.008 A 
ATOM     21  C   UNL     1       9.313   0.094  25.256  0.00  0.00    +0.010 A 
ATOM     22  C   UNL     1      10.653   0.415  24.987  0.00  0.00    +0.001 A 
ATOM     23  C   UNL     1      10.980   1.309  23.971  0.00  0.00    +0.002 A 
ATOM     24  C   UNL     1       9.984   1.908  23.199  0.00  0.00    +0.026 A 
ATOM     25  C   UNL     1       8.648   1.542  23.437  0.00  0.00    +0.050 A 
ATOM     26  N   UNL     1       7.473   1.958  22.842  0.00  0.00    -0.346 N 
ATOM     27  C   UNL     1       6.439   1.165  23.262  0.00  0.00    +0.095 A 
BRANCH  26  28
ATOM     28  C   UNL     1       7.297   3.089  21.949  0.00  0.00    +0.123 C 
BRANCH  28  29
ATOM     29  C   UNL     1       6.573   4.290  22.580  0.00  0.00    +0.036 C 
BRANCH  29  30
ATOM     30  C   UNL     1       7.450   5.535  22.718  0.00  0.00    +0.079 C 
BRANCH  30  31
ATOM     31  N   UNL     1       7.500   6.239  21.437  0.00  0.00    -0.330 NA
ATOM     32  H   UNL     1       6.646   6.784  21.318  0.00  0.00    +0.118 HD
ATOM     33  H   UNL     1       8.273   6.901  21.426  0.00  0.00    +0.118 HD
ENDBRANCH  30  31
ENDBRANCH  29  30
ENDBRANCH  28  29
ENDBRANCH  26  28
ENDBRANCH   8  19
TORSDOF 6
ENDMDL
MODEL 4
REMARK VINA RESULT:      -6.7      2.485      6.118
REMARK  Name = 
REMARK  7 active torsions:
REMARK  status: ('A' for Active; 'I' for Inactive)
REMARK    1  A    between atoms: C_1  and  N_2
REMARK    2  A    between atoms: C_4  and  C_11
REMARK    3  A    between atoms: C_12  and  C_18
REMARK    4  A    between atoms: N_20  and  C_21
REMARK    5  A    between atoms: C_21  and  C_22
REMARK    6  A    between atoms: C_22  and  C_23
REMARK    7  A    between atoms: C_23  and  N_24
REMARK                            x       y       z     vdW  Elec       q    Type
REMARK                         _______ _______ _______ _____ _____    ______ ____
ROOT
ATOM      1  C   UNL     1       5.563  -2.273  25.735  0.00  0.00    +0.059 C 
ATOM      2  C   UNL     1       5.262  -2.182  27.198  0.00  0.00    +0.252 C 
ATOM      3  O   UNL     1       4.820  -3.041  27.938  0.00  0.00    -0.270 OA
ATOM      4  N   UNL     1       5.651  -0.975  27.641  0.00  0.00    -0.248 N 
ATOM      5  H   UNL     1       5.650  -0.722  28.616  0.00  0.00    +0.158 HD
ATOM      6  C   UNL     1       6.472  -0.425  26.746  0.00  0.00    +0.252 C 
ATOM      7  O   UNL     1       7.228   0.508  26.952  0.00  0.00    -0.270 OA
ATOM      8  C   UNL     1       6.337  -1.196  25.487  0.00  0.00    +0.059 C 
ENDROOT
BRANCH   1  16
ATOM      9  C   UNL     1       2.505  -5.294  23.290  0.00  0.00    +0.149 C 
ATOM     10  N   UNL     1       3.715  -4.601  23.670  0.00  0.00    -0.349 N 
ATOM     11  C   UNL     1       4.970  -4.918  23.217  0.00  0.00    +0.049 A 
ATOM     12  C   UNL     1       5.878  -4.273  24.068  0.00  0.00    +0.008 A 
ATOM     13  C   UNL     1       7.233  -4.661  23.948  0.00  0.00    +0.010 A 
ATOM     14  C   UNL     1       7.644  -5.532  22.929  0.00  0.00    +0.001 A 
ATOM     15  C   UNL     1       6.727  -6.034  22.019  0.00  0.00    +0.002 A 
ATOM     16  C   UNL     1       5.122  -3.324  24.857  0.00  0.00    +0.013 A 
ATOM     17  C   UNL     1       5.370  -5.757  22.163  0.00  0.00    +0.026 A 
ATOM     18  C   UNL     1       3.791  -3.611  24.609  0.00  0.00    +0.095 A 
ENDBRANCH   1  16
BRANCH   8  19
ATOM     19  C   UNL     1       6.921  -0.660  24.308  0.00  0.00    +0.013 A 
ATOM     20  C   UNL     1       8.171  -0.914  23.668  0.00  0.00    +0.008 A 
ATOM     21  C   UNL     1       9.187  -1.887  23.801  0.00  0.00    +0.010 A 
ATOM     22  C   UNL     1      10.292  -1.862  22.935  0.00  0.00    +0.001 A 
ATOM     23  C   UNL     1      10.430  -0.851  21.987  0.00  0.00    +0.002 A 
ATOM     24  C   UNL     1       9.475   0.162  21.879  0.00  0.00    +0.026 A 
ATOM     25  C   UNL     1       8.344   0.101  22.711  0.00  0.00    +0.050 A 
ATOM     26  N   UNL     1       7.255   0.943  22.825  0.00  0.00    -0.346 N 
ATOM     27  C   UNL     1       6.306   0.360  23.621  0.00  0.00    +0.095 A 
BRANCH  26  28
ATOM     28  C   UNL     1       7.113   2.272  22.258  0.00  0.00    +0.123 C 
BRANCH  28  29
ATOM     29  C   UNL     1       7.256   3.415  23.276  0.00  0.00    +0.036 C 
BRANCH  29  30
ATOM     30  C   UNL     1       8.586   3.407  24.031  0.00  0.00    +0.079 C 
BRANCH  30  31
ATOM     31  N   UNL     1       8.389   2.826  25.358  0.00  0.00    -0.330 NA
ATOM     32  H   UNL     1       9.155   2.184  25.562  0.00  0.00    +0.118 HD
ATOM     33  H   UNL     1       8.419   3.553  26.071  0.00  0.00    +0.118 HD
ENDBRANCH  30  31
ENDBRANCH  29  30
ENDBRANCH  28  29
ENDBRANCH  26  28
ENDBRANCH   8  19
TORSDOF 6
ENDMDL
MODEL 5
REMARK VINA RESULT:      -6.7      2.243      3.677
REMARK  Name = 
REMARK  7 active torsions:
REMARK  status: ('A' for Active; 'I' for Inactive)
REMARK    1  A    between atoms: C_1  and  N_2
REMARK    2  A    between atoms: C_4  and  C_11
REMARK    3  A    between atoms: C_12  and  C_18
REMARK    4  A    between atoms: N_20  and  C_21
REMARK    5  A    between atoms: C_21  and  C_22
REMARK    6  A    between atoms: C_22  and  C_23
REMARK    7  A    between atoms: C_23  and  N_24
REMARK                            x       y       z     vdW  Elec       q    Type
REMARK                         _______ _______ _______ _____ _____    ______ ____
ROOT
ATOM      1  C   UNL     1       8.104   0.246  22.771  0.00  0.00    +0.059 C 
ATOM      2  C   UNL     1       9.275   0.738  21.981  0.00  0.00    +0.252 C 
ATOM      3  O   UNL     1       9.671   1.880  21.840  0.00  0.00    -0.270 OA
ATOM      4  N   UNL     1       9.934  -0.323  21.486  0.00  0.00    -0.248 N 
ATOM      5  H   UNL     1      10.819  -0.246  21.011  0.00  0.00    +0.158 HD
ATOM      6  C   UNL     1       9.548  -1.419  22.138  0.00  0.00    +0.252 C 
ATOM      7  O   UNL     1      10.141  -2.484  22.154  0.00  0.00    -0.270 OA
ATOM      8  C   UNL     1       8.311  -1.082  22.882  0.00  0.00    +0.059 C 
ENDROOT
BRANCH   1  16
ATOM      9  C   UNL     1       4.555   3.687  22.935  0.00  0.00    +0.149 C 
ATOM     10  N   UNL     1       5.364   2.550  23.310  0.00  0.00    -0.349 N 
ATOM     11  C   UNL     1       5.322   1.932  24.534  0.00  0.00    +0.049 A 
ATOM     12  C   UNL     1       6.473   1.137  24.622  0.00  0.00    +0.008 A 
ATOM     13  C   UNL     1       6.770   0.605  25.899  0.00  0.00    +0.010 A 
ATOM     14  C   UNL     1       5.874   0.753  26.966  0.00  0.00    +0.001 A 
ATOM     15  C   UNL     1       4.676   1.428  26.791  0.00  0.00    +0.002 A 
ATOM     16  C   UNL     1       7.047   1.070  23.295  0.00  0.00    +0.013 A 
ATOM     17  C   UNL     1       4.391   2.053  25.580  0.00  0.00    +0.026 A 
ATOM     18  C   UNL     1       6.355   2.004  22.542  0.00  0.00    +0.095 A 
ENDBRANCH   1  16
BRANCH   8  19
ATOM     19  C   UNL     1       7.565  -2.145  23.457  0.00  0.00    +0.013 A 
ATOM     20  C   UNL     1       7.834  -3.001  24.567  0.00  0.00    +0.008 A 
ATOM     21  C   UNL     1       8.778  -3.015  25.618  0.00  0.00    +0.010 A 
ATOM     22  C   UNL     1       8.710  -4.016  26.601  0.00  0.00    +0.001 A 
ATOM     23  C   UNL     1       7.763  -5.033  26.517  0.00  0.00    +0.002 A 
ATOM     24  C   UNL     1       6.861  -5.082  25.453  0.00  0.00    +0.026 A 
ATOM     25  C   UNL     1       6.898  -4.048  24.502  0.00  0.00    +0.050 A 
ATOM     26  N   UNL     1       6.142  -3.833  23.365  0.00  0.00    -0.346 N 
ATOM     27  C   UNL     1       6.398  -2.581  22.874  0.00  0.00    +0.095 A 
BRANCH  26  28
ATOM     28  C   UNL     1       5.246  -4.775  22.719  0.00  0.00    +0.123 C 
BRANCH  28  29
ATOM     29  C   UNL     1       3.844  -4.850  23.346  0.00  0.00    +0.036 C 
BRANCH  29  30
ATOM     30  C   UNL     1       3.581  -6.145  24.115  0.00  0.00    +0.079 C 
BRANCH  30  31
ATOM     31  N   UNL     1       4.506  -7.179  23.657  0.00  0.00    -0.330 NA
ATOM     32  H   UNL     1       4.481  -7.966  24.308  0.00  0.00    +0.118 HD
ATOM     33  H   UNL     1       4.214  -7.541  22.751  0.00  0.00    +0.118 HD
ENDBRANCH  30  31
ENDBRANCH  29  30
ENDBRANCH  28  29
ENDBRANCH  26  28
ENDBRANCH   8  19
TORSDOF 6
ENDMDL
MODEL 6
REMARK VINA RESULT:      -6.7      2.347      4.401
REMARK  Name = 
REMARK  7 active torsions:
REMARK  status: ('A' for Active; 'I' for Inactive)
REMARK    1  A    between atoms: C_1  and  N_2
REMARK    2  A    between atoms: C_4  and  C_11
REMARK    3  A    between atoms: C_12  and  C_18
REMARK    4  A    between atoms: N_20  and  C_21
REMARK    5  A    between atoms: C_21  and  C_22
REMARK    6  A    between atoms: C_22  and  C_23
REMARK    7  A    between atoms: C_23  and  N_24
REMARK                            x       y       z     vdW  Elec       q    Type
REMARK                         _______ _______ _______ _____ _____    ______ ____
ROOT
ATOM      1  C   UNL     1       5.687   0.191  25.464  0.00  0.00    +0.059 C 
ATOM      2  C   UNL     1       4.602   0.839  26.264  0.00  0.00    +0.252 C 
ATOM      3  O   UNL     1       4.171   1.974  26.184  0.00  0.00    -0.270 OA
ATOM      4  N   UNL     1       4.063  -0.083  27.081  0.00  0.00    -0.248 N 
ATOM      5  H   UNL     1       3.242   0.090  27.638  0.00  0.00    +0.158 HD
ATOM      6  C   UNL     1       4.417  -1.298  26.660  0.00  0.00    +0.252 C 
ATOM      7  O   UNL     1       3.880  -2.345  26.976  0.00  0.00    -0.270 OA
ATOM      8  C   UNL     1       5.533  -1.128  25.699  0.00  0.00    +0.059 C 
ENDROOT
BRANCH   1  16
ATOM      9  C   UNL     1       7.419   3.230  21.967  0.00  0.00    +0.149 C 
ATOM     10  N   UNL     1       7.394   2.354  23.117  0.00  0.00    -0.349 N 
ATOM     11  C   UNL     1       8.508   1.845  23.734  0.00  0.00    +0.049 A 
ATOM     12  C   UNL     1       8.070   0.791  24.547  0.00  0.00    +0.008 A 
ATOM     13  C   UNL     1       9.077  -0.046  25.084  0.00  0.00    +0.010 A 
ATOM     14  C   UNL     1      10.433   0.267  24.922  0.00  0.00    +0.001 A 
ATOM     15  C   UNL     1      10.817   1.404  24.227  0.00  0.00    +0.002 A 
ATOM     16  C   UNL     1       6.628   0.883  24.623  0.00  0.00    +0.013 A 
ATOM     17  C   UNL     1       9.862   2.198  23.598  0.00  0.00    +0.026 A 
ATOM     18  C   UNL     1       6.264   1.828  23.679  0.00  0.00    +0.095 A 
ENDBRANCH   1  16
BRANCH   8  19
ATOM     19  C   UNL     1       6.252  -2.285  25.297  0.00  0.00    +0.013 A 
ATOM     20  C   UNL     1       6.277  -3.006  24.065  0.00  0.00    +0.008 A 
ATOM     21  C   UNL     1       5.803  -2.772  22.755  0.00  0.00    +0.010 A 
ATOM     22  C   UNL     1       6.063  -3.710  21.743  0.00  0.00    +0.001 A 
ATOM     23  C   UNL     1       6.729  -4.899  22.029  0.00  0.00    +0.002 A 
ATOM     24  C   UNL     1       7.149  -5.187  23.328  0.00  0.00    +0.026 A 
ATOM     25  C   UNL     1       6.934  -4.221  24.326  0.00  0.00    +0.050 A 
ATOM     26  N   UNL     1       7.238  -4.226  25.674  0.00  0.00    -0.346 N 
ATOM     27  C   UNL     1       7.028  -2.978  26.196  0.00  0.00    +0.095 A 
BRANCH  26  28
ATOM     28  C   UNL     1       7.660  -5.363  26.472  0.00  0.00    +0.123 C 
BRANCH  28  29
ATOM     29  C   UNL     1       6.790  -5.626  27.713  0.00  0.00    +0.036 C 
BRANCH  29  30
ATOM     30  C   UNL     1       5.469  -6.329  27.402  0.00  0.00    +0.079 C 
BRANCH  30  31
ATOM     31  N   UNL     1       5.287  -7.452  28.321  0.00  0.00    -0.330 NA
ATOM     32  H   UNL     1       4.948  -8.262  27.801  0.00  0.00    +0.118 HD
ATOM     33  H   UNL     1       6.179  -7.721  28.732  0.00  0.00    +0.118 HD
ENDBRANCH  30  31
ENDBRANCH  29  30
ENDBRANCH  28  29
ENDBRANCH  26  28
ENDBRANCH   8  19
TORSDOF 6
ENDMDL
MODEL 7
REMARK VINA RESULT:      -6.6      2.169      5.898
REMARK  Name = 
REMARK  7 active torsions:
REMARK  status: ('A' for Active; 'I' for Inactive)
REMARK    1  A    between atoms: C_1  and  N_2
REMARK    2  A    between atoms: C_4  and  C_11
REMARK    3  A    between atoms: C_12  and  C_18
REMARK    4  A    between atoms: N_20  and  C_21
REMARK    5  A    between atoms: C_21  and  C_22
REMARK    6  A    between atoms: C_22  and  C_23
REMARK    7  A    between atoms: C_23  and  N_24
REMARK                            x       y       z     vdW  Elec       q    Type
REMARK                         _______ _______ _______ _____ _____    ______ ____
ROOT
ATOM      1  C   UNL     1       6.242  -1.662  26.064  0.00  0.00    +0.059 C 
ATOM      2  C   UNL     1       5.260  -1.822  27.182  0.00  0.00    +0.252 C 
ATOM      3  O   UNL     1       5.000  -2.819  27.830  0.00  0.00    -0.270 OA
ATOM      4  N   UNL     1       4.727  -0.620  27.459  0.00  0.00    -0.248 N 
ATOM      5  H   UNL     1       4.121  -0.456  28.247  0.00  0.00    +0.158 HD
ATOM      6  C   UNL     1       5.486   0.330  26.914  0.00  0.00    +0.252 C 
ATOM      7  O   UNL     1       5.469   1.512  27.208  0.00  0.00    -0.270 OA
ATOM      8  C   UNL     1       6.389  -0.327  25.939  0.00  0.00    +0.059 C 
ENDROOT
BRANCH   1  16
ATOM      9  C   UNL     1       9.265  -5.467  25.144  0.00  0.00    +0.149 C 
ATOM     10  N   UNL     1       8.168  -4.536  25.000  0.00  0.00    -0.349 N 
ATOM     11  C   UNL     1       7.378  -4.427  23.885  0.00  0.00    +0.049 A 
ATOM     12  C   UNL     1       6.692  -3.210  23.995  0.00  0.00    +0.008 A 
ATOM     13  C   UNL     1       6.011  -2.767  22.837  0.00  0.00    +0.010 A 
ATOM     14  C   UNL     1       5.915  -3.585  21.703  0.00  0.00    +0.001 A 
ATOM     15  C   UNL     1       6.490  -4.846  21.693  0.00  0.00    +0.002 A 
ATOM     16  C   UNL     1       6.875  -2.740  25.352  0.00  0.00    +0.013 A 
ATOM     17  C   UNL     1       7.255  -5.278  22.773  0.00  0.00    +0.026 A 
ATOM     18  C   UNL     1       7.838  -3.567  25.906  0.00  0.00    +0.095 A 
ENDBRANCH   1  16
BRANCH   8  19
ATOM     19  C   UNL     1       7.126   0.497  25.046  0.00  0.00    +0.013 A 
ATOM     20  C   UNL     1       6.709   1.475  24.095  0.00  0.00    +0.008 A 
ATOM     21  C   UNL     1       5.499   2.146  23.810  0.00  0.00    +0.010 A 
ATOM     22  C   UNL     1       5.465   3.122  22.801  0.00  0.00    +0.001 A 
ATOM     23  C   UNL     1       6.596   3.392  22.034  0.00  0.00    +0.002 A 
ATOM     24  C   UNL     1       7.787   2.697  22.249  0.00  0.00    +0.026 A 
ATOM     25  C   UNL     1       7.830   1.759  23.296  0.00  0.00    +0.050 A 
ATOM     26  N   UNL     1       8.850   0.939  23.738  0.00  0.00    -0.346 N 
ATOM     27  C   UNL     1       8.488   0.354  24.921  0.00  0.00    +0.095 A 
BRANCH  26  28
ATOM     28  C   UNL     1      10.104   0.660  23.061  0.00  0.00    +0.123 C 
BRANCH  28  29
ATOM     29  C   UNL     1       9.962  -0.181  21.782  0.00  0.00    +0.036 C 
BRANCH  29  30
ATOM     30  C   UNL     1       9.413  -1.587  22.025  0.00  0.00    +0.079 C 
BRANCH  30  31
ATOM     31  N   UNL     1      10.302  -2.306  22.935  0.00  0.00    -0.330 NA
ATOM     32  H   UNL     1      10.431  -3.260  22.597  0.00  0.00    +0.118 HD
ATOM     33  H   UNL     1      11.224  -1.874  22.946  0.00  0.00    +0.118 HD
ENDBRANCH  30  31
ENDBRANCH  29  30
ENDBRANCH  28  29
ENDBRANCH  26  28
ENDBRANCH   8  19
TORSDOF 6
ENDMDL
MODEL 8
REMARK VINA RESULT:      -6.6      2.405      5.912
REMARK  Name = 
REMARK  7 active torsions:
REMARK  status: ('A' for Active; 'I' for Inactive)
REMARK    1  A    between atoms: C_1  and  N_2
REMARK    2  A    between atoms: C_4  and  C_11
REMARK    3  A    between atoms: C_12  and  C_18
REMARK    4  A    between atoms: N_20  and  C_21
REMARK    5  A    between atoms: C_21  and  C_22
REMARK    6  A    between atoms: C_22  and  C_23
REMARK    7  A    between atoms: C_23  and  N_24
REMARK                            x       y       z     vdW  Elec       q    Type
REMARK                         _______ _______ _______ _____ _____    ______ ____
ROOT
ATOM      1  C   UNL     1       5.324  -1.495  25.790  0.00  0.00    +0.059 C 
ATOM      2  C   UNL     1       4.166  -1.417  26.735  0.00  0.00    +0.252 C 
ATOM      3  O   UNL     1       3.565  -2.325  27.278  0.00  0.00    -0.270 OA
ATOM      4  N   UNL     1       3.912  -0.124  26.996  0.00  0.00    -0.248 N 
ATOM      5  H   UNL     1       3.247   0.176  27.690  0.00  0.00    +0.158 HD
ATOM      6  C   UNL     1       4.962   0.610  26.627  0.00  0.00    +0.252 C 
ATOM      7  O   UNL     1       5.192   1.753  26.983  0.00  0.00    -0.270 OA
ATOM      8  C   UNL     1       5.818  -0.240  25.765  0.00  0.00    +0.059 C 
ENDROOT
BRANCH   1  16
ATOM      9  C   UNL     1       5.397  -5.282  22.610  0.00  0.00    +0.149 C 
ATOM     10  N   UNL     1       5.848  -4.324  23.594  0.00  0.00    -0.349 N 
ATOM     11  C   UNL     1       7.029  -4.414  24.286  0.00  0.00    +0.049 A 
ATOM     12  C   UNL     1       6.930  -3.524  25.365  0.00  0.00    +0.008 A 
ATOM     13  C   UNL     1       7.929  -3.634  26.360  0.00  0.00    +0.010 A 
ATOM     14  C   UNL     1       9.028  -4.486  26.185  0.00  0.00    +0.001 A 
ATOM     15  C   UNL     1       9.156  -5.243  25.030  0.00  0.00    +0.002 A 
ATOM     16  C   UNL     1       5.775  -2.687  25.122  0.00  0.00    +0.013 A 
ATOM     17  C   UNL     1       8.145  -5.240  24.073  0.00  0.00    +0.026 A 
ATOM     18  C   UNL     1       5.117  -3.262  24.048  0.00  0.00    +0.095 A 
ENDBRANCH   1  16
BRANCH   8  19
ATOM     19  C   UNL     1       6.871   0.383  25.043  0.00  0.00    +0.013 A 
ATOM     20  C   UNL     1       6.859   1.345  23.989  0.00  0.00    +0.008 A 
ATOM     21  C   UNL     1       5.883   2.183  23.406  0.00  0.00    +0.010 A 
ATOM     22  C   UNL     1       6.252   3.075  22.385  0.00  0.00    +0.001 A 
ATOM     23  C   UNL     1       7.555   3.098  21.897  0.00  0.00    +0.002 A 
ATOM     24  C   UNL     1       8.524   2.233  22.408  0.00  0.00    +0.026 A 
ATOM     25  C   UNL     1       8.164   1.381  23.466  0.00  0.00    +0.050 A 
ATOM     26  N   UNL     1       8.896   0.438  24.161  0.00  0.00    -0.346 N 
ATOM     27  C   UNL     1       8.178   0.009  25.245  0.00  0.00    +0.095 A 
BRANCH  26  28
ATOM     28  C   UNL     1      10.200  -0.093  23.808  0.00  0.00    +0.123 C 
BRANCH  28  29
ATOM     29  C   UNL     1      10.193  -1.576  23.401  0.00  0.00    +0.036 C 
BRANCH  29  30
ATOM     30  C   UNL     1       9.247  -1.893  22.242  0.00  0.00    +0.079 C 
BRANCH  30  31
ATOM     31  N   UNL     1       9.555  -1.022  21.110  0.00  0.00    -0.330 NA
ATOM     32  H   UNL     1       8.687  -0.655  20.721  0.00  0.00    +0.118 HD
ATOM     33  H   UNL     1      10.099  -0.218  21.418  0.00  0.00    +0.118 HD
ENDBRANCH  30  31
ENDBRANCH  29  30
ENDBRANCH  28  29
ENDBRANCH  26  28
ENDBRANCH   8  19
TORSDOF 6
ENDMDL
MODEL 9
REMARK VINA RESULT:      -6.6      2.682      4.664
REMARK  Name = 
REMARK  7 active torsions:
REMARK  status: ('A' for Active; 'I' for Inactive)
REMARK    1  A    between atoms: C_1  and  N_2
REMARK    2  A    between atoms: C_4  and  C_11
REMARK    3  A    between atoms: C_12  and  C_18
REMARK    4  A    between atoms: N_20  and  C_21
REMARK    5  A    between atoms: C_21  and  C_22
REMARK    6  A    between atoms: C_22  and  C_23
REMARK    7  A    between atoms: C_23  and  N_24
REMARK                            x       y       z     vdW  Elec       q    Type
REMARK                         _______ _______ _______ _____ _____    ______ ____
ROOT
ATOM      1  C   UNL     1       8.190  -1.570  24.362  0.00  0.00    +0.059 C 
ATOM      2  C   UNL     1       9.650  -1.403  24.078  0.00  0.00    +0.252 C 
ATOM      3  O   UNL     1      10.320  -0.388  24.113  0.00  0.00    -0.270 OA
ATOM      4  N   UNL     1      10.183  -2.616  23.851  0.00  0.00    -0.248 N 
ATOM      5  H   UNL     1      11.173  -2.769  23.746  0.00  0.00    +0.158 HD
ATOM      6  C   UNL     1       9.343  -3.551  24.294  0.00  0.00    +0.252 C 
ATOM      7  O   UNL     1       9.627  -4.715  24.517  0.00  0.00    -0.270 OA
ATOM      8  C   UNL     1       8.031  -2.900  24.522  0.00  0.00    +0.059 C 
ENDROOT
BRANCH   1  16
ATOM      9  C   UNL     1       4.451   1.159  26.103  0.00  0.00    +0.149 C 
ATOM     10  N   UNL     1       5.617   0.782  25.337  0.00  0.00    -0.349 N 
ATOM     11  C   UNL     1       6.117   1.494  24.277  0.00  0.00    +0.049 A 
ATOM     12  C   UNL     1       6.999   0.640  23.601  0.00  0.00    +0.008 A 
ATOM     13  C   UNL     1       7.440   1.075  22.329  0.00  0.00    +0.010 A 
ATOM     14  C   UNL     1       7.120   2.355  21.856  0.00  0.00    +0.001 A 
ATOM     15  C   UNL     1       6.361   3.221  22.627  0.00  0.00    +0.002 A 
ATOM     16  C   UNL     1       7.233  -0.499  24.462  0.00  0.00    +0.013 A 
ATOM     17  C   UNL     1       5.823   2.796  23.839  0.00  0.00    +0.026 A 
ATOM     18  C   UNL     1       6.313  -0.385  25.490  0.00  0.00    +0.095 A 
ENDBRANCH   1  16
BRANCH   8  19
ATOM     19  C   UNL     1       6.903  -3.730  24.760  0.00  0.00    +0.013 A 
ATOM     20  C   UNL     1       6.551  -4.558  25.867  0.00  0.00    +0.008 A 
ATOM     21  C   UNL     1       7.026  -4.725  27.187  0.00  0.00    +0.010 A 
ATOM     22  C   UNL     1       6.381  -5.625  28.050  0.00  0.00    +0.001 A 
ATOM     23  C   UNL     1       5.317  -6.403  27.601  0.00  0.00    +0.002 A 
ATOM     24  C   UNL     1       4.869  -6.308  26.282  0.00  0.00    +0.026 A 
ATOM     25  C   UNL     1       5.483  -5.366  25.438  0.00  0.00    +0.050 A 
ATOM     26  N   UNL     1       5.256  -5.051  24.113  0.00  0.00    -0.346 N 
ATOM     27  C   UNL     1       5.955  -3.922  23.783  0.00  0.00    +0.095 A 
BRANCH  26  28
ATOM     28  C   UNL     1       4.456  -5.801  23.160  0.00  0.00    +0.123 C 
BRANCH  28  29
ATOM     29  C   UNL     1       2.944  -5.537  23.253  0.00  0.00    +0.036 C 
BRANCH  29  30
ATOM     30  C   UNL     1       2.152  -6.700  23.851  0.00  0.00    +0.079 C 
BRANCH  30  31
ATOM     31  N   UNL     1       2.914  -7.938  23.698  0.00  0.00    -0.330 NA
ATOM     32  H   UNL     1       3.887  -7.712  23.493  0.00  0.00    +0.118 HD
ATOM     33  H   UNL     1       2.914  -8.465  24.569  0.00  0.00    +0.118 HD
ENDBRANCH  30  31
ENDBRANCH  29  30
ENDBRANCH  28  29
ENDBRANCH  26  28
ENDBRANCH   8  19
TORSDOF 6
ENDMDL
