MODEL 1
REMARK VINA RESULT:      -8.1      0.000      0.000
REMARK  Name = 
REMARK  7 active torsions:
REMARK  status: ('A' for Active; 'I' for Inactive)
REMARK    1  A    between atoms: O_1  and  C_2
REMARK    2  A    between atoms: C_2  and  C_4
REMARK    3  A    between atoms: C_4  and  O_5
REMARK    4  A    between atoms: O_5  and  C_6
REMARK    5  A    between atoms: C_12  and  C_13
REMARK    6  A    between atoms: N_15  and  C_16
REMARK    7  A    between atoms: C_16  and  C_17
REMARK                            x       y       z     vdW  Elec       q    Type
REMARK                         _______ _______ _______ _____ _____    ______ ____
ROOT
ATOM      1  C   UNL     1       9.594   1.001  22.431  0.00  0.00    +0.248 C 
ATOM      2  N   UNL     1      10.361   0.019  23.030  0.00  0.00    -0.305 N 
ATOM      3  H   UNL     1      10.904   0.217  23.860  0.00  0.00    +0.149 HD
ATOM      4  O   UNL     1       9.161   0.859  21.289  0.00  0.00    -0.270 OA
ENDROOT
BRANCH   1   6
ATOM      5  C   UNL     1      10.118   3.336  23.505  0.00  0.00    +0.136 A 
ATOM      6  C   UNL     1       9.256   2.259  23.193  0.00  0.00    +0.078 A 
ATOM      7  C   UNL     1       7.941   2.295  23.723  0.00  0.00    +0.019 A 
ATOM      8  C   UNL     1       7.479   3.375  24.485  0.00  0.00    +0.039 A 
ATOM      9  C   UNL     1       8.317   4.454  24.701  0.00  0.00    +0.127 A 
ATOM     10  F   UNL     1       7.887   5.500  25.419  0.00  0.00    -0.205 F 
ATOM     11  C   UNL     1       9.613   4.446  24.208  0.00  0.00    +0.084 A 
BRANCH   5  12
ATOM     12  O   UNL     1      11.462   3.487  23.267  0.00  0.00    -0.480 OA
BRANCH  12  13
ATOM     13  C   UNL     1      11.998   4.785  23.453  0.00  0.00    +0.349 C 
BRANCH  13  14
ATOM     14  C   UNL     1      13.211   5.164  22.633  0.00  0.00    +0.343 C 
ATOM     15  O   UNL     1      13.140   5.626  21.502  0.00  0.00    -0.247 OA
BRANCH  14  16
ATOM     16  O   UNL     1      14.377   5.036  23.304  0.00  0.00    -0.478 OA
ATOM     17  H   UNL     1      14.607   5.864  23.772  0.00  0.00    +0.295 HD
ENDBRANCH  14  16
ENDBRANCH  13  14
ENDBRANCH  12  13
ENDBRANCH   5  12
ENDBRANCH   1   6
BRANCH   2  18
ATOM     18  C   UNL     1      10.411  -1.335  22.471  0.00  0.00    +0.167 C 
BRANCH  18  19
ATOM     19  C   UNL     1       9.536  -2.324  23.226  0.00  0.00    +0.097 A 
ATOM     20  S   UNL     1       7.883  -2.499  22.766  0.00  0.00    -0.068 S 
ATOM     21  C   UNL     1       7.606  -3.569  24.089  0.00  0.00    +0.077 A 
ATOM     22  C   UNL     1       6.421  -4.200  24.498  0.00  0.00    +0.142 A 
ATOM     23  C   UNL     1       6.415  -5.017  25.630  0.00  0.00    +0.081 A 
ATOM     24  C   UNL     1       7.587  -5.183  26.352  0.00  0.00    +0.163 A 
ATOM     25  C   UNL     1       8.775  -4.564  25.947  0.00  0.00    +0.185 A 
ATOM     26  F   UNL     1       9.892  -4.742  26.673  0.00  0.00    -0.200 F 
ATOM     27  F   UNL     1       7.582  -5.973  27.437  0.00  0.00    -0.202 F 
ATOM     28  F   UNL     1       5.281  -4.045  23.806  0.00  0.00    -0.204 F 
ATOM     29  C   UNL     1       8.796  -3.745  24.793  0.00  0.00    +0.119 A 
ATOM     30  N   UNL     1       9.894  -3.073  24.252  0.00  0.00    -0.239 NA
ENDBRANCH  18  19
ENDBRANCH   2  18
TORSDOF 7
ENDMDL
MODEL 2
REMARK VINA RESULT:      -7.9      1.289      2.412
REMARK  Name = 
REMARK  7 active torsions:
REMARK  status: ('A' for Active; 'I' for Inactive)
REMARK    1  A    between atoms: O_1  and  C_2
REMARK    2  A    between atoms: C_2  and  C_4
REMARK    3  A    between atoms: C_4  and  O_5
REMARK    4  A    between atoms: O_5  and  C_6
REMARK    5  A    between atoms: C_12  and  C_13
REMARK    6  A    between atoms: N_15  and  C_16
REMARK    7  A    between atoms: C_16  and  C_17
REMARK                            x       y       z     vdW  Elec       q    Type
REMARK                         _______ _______ _______ _____ _____    ______ ____
ROOT
ATOM      1  C   UNL     1       9.895   0.737  23.027  0.00  0.00    +0.248 C 
ATOM      2  N   UNL     1      10.264  -0.341  23.810  0.00  0.00    -0.305 N 
ATOM      3  H   UNL     1      10.527  -0.214  24.779  0.00  0.00    +0.149 HD
ATOM      4  O   UNL     1       9.845   0.643  21.802  0.00  0.00    -0.270 OA
ENDROOT
BRANCH   1   6
ATOM      5  C   UNL     1      10.203   3.279  23.592  0.00  0.00    +0.136 A 
ATOM      6  C   UNL     1       9.519   2.045  23.679  0.00  0.00    +0.078 A 
ATOM      7  C   UNL     1       8.399   1.974  24.546  0.00  0.00    +0.019 A 
ATOM      8  C   UNL     1       7.940   3.090  25.256  0.00  0.00    +0.039 A 
ATOM      9  C   UNL     1       8.577   4.306  25.084  0.00  0.00    +0.127 A 
ATOM     10  F   UNL     1       8.145   5.386  25.749  0.00  0.00    -0.205 F 
ATOM     11  C   UNL     1       9.684   4.408  24.254  0.00  0.00    +0.084 A 
BRANCH   5  12
ATOM     12  O   UNL     1      11.388   3.590  22.970  0.00  0.00    -0.480 OA
BRANCH  12  13
ATOM     13  C   UNL     1      12.044   4.767  23.404  0.00  0.00    +0.349 C 
BRANCH  13  14
ATOM     14  C   UNL     1      13.263   5.214  22.629  0.00  0.00    +0.343 C 
ATOM     15  O   UNL     1      13.200   5.778  21.544  0.00  0.00    -0.247 OA
BRANCH  14  16
ATOM     16  O   UNL     1      14.424   5.019  23.291  0.00  0.00    -0.478 OA
ATOM     17  H   UNL     1      14.362   4.248  23.892  0.00  0.00    +0.295 HD
ENDBRANCH  14  16
ENDBRANCH  13  14
ENDBRANCH  12  13
ENDBRANCH   5  12
ENDBRANCH   1   6
BRANCH   2  18
ATOM     18  C   UNL     1      10.291  -1.696  23.253  0.00  0.00    +0.167 C 
BRANCH  18  19
ATOM     19  C   UNL     1       9.023  -2.485  23.543  0.00  0.00    +0.097 A 
ATOM     20  S   UNL     1       9.027  -3.631  24.832  0.00  0.00    -0.068 S 
ATOM     21  C   UNL     1       7.435  -4.142  24.412  0.00  0.00    +0.077 A 
ATOM     22  C   UNL     1       6.636  -5.144  24.982  0.00  0.00    +0.142 A 
ATOM     23  C   UNL     1       5.369  -5.414  24.461  0.00  0.00    +0.081 A 
ATOM     24  C   UNL     1       4.920  -4.693  23.366  0.00  0.00    +0.163 A 
ATOM     25  C   UNL     1       5.707  -3.687  22.795  0.00  0.00    +0.185 A 
ATOM     26  F   UNL     1       5.243  -3.011  21.730  0.00  0.00    -0.200 F 
ATOM     27  F   UNL     1       3.700  -4.949  22.869  0.00  0.00    -0.202 F 
ATOM     28  F   UNL     1       7.063  -5.848  26.043  0.00  0.00    -0.204 F 
ATOM     29  C   UNL     1       6.987  -3.395  23.323  0.00  0.00    +0.119 A 
ATOM     30  N   UNL     1       7.882  -2.420  22.882  0.00  0.00    -0.239 NA
ENDBRANCH  18  19
ENDBRANCH   2  18
TORSDOF 7
ENDMDL
MODEL 3
REMARK VINA RESULT:      -7.9      2.376      4.010
REMARK  Name = 
REMARK  7 active torsions:
REMARK  status: ('A' for Active; 'I' for Inactive)
REMARK    1  A    between atoms: O_1  and  C_2
REMARK    2  A    between atoms: C_2  and  C_4
REMARK    3  A    between atoms: C_4  and  O_5
REMARK    4  A    between atoms: O_5  and  C_6
REMARK    5  A    between atoms: C_12  and  C_13
REMARK    6  A    between atoms: N_15  and  C_16
REMARK    7  A    between atoms: C_16  and  C_17
REMARK                            x       y       z     vdW  Elec       q    Type
REMARK                         _______ _______ _______ _____ _____    ______ ____
ROOT
ATOM      1  C   UNL     1      10.327   1.100  23.904  0.00  0.00    +0.248 C 
ATOM      2  N   UNL     1       9.852   0.377  22.827  0.00  0.00    -0.305 N 
ATOM      3  H   UNL     1       9.189   0.782  22.179  0.00  0.00    +0.149 HD
ATOM      4  O   UNL     1      10.903   0.544  24.837  0.00  0.00    -0.270 OA
ENDROOT
BRANCH   1   6
ATOM      5  C   UNL     1       8.997   3.336  24.236  0.00  0.00    +0.136 A 
ATOM      6  C   UNL     1      10.165   2.601  23.931  0.00  0.00    +0.078 A 
ATOM      7  C   UNL     1      11.308   3.327  23.509  0.00  0.00    +0.019 A 
ATOM      8  C   UNL     1      11.314   4.726  23.443  0.00  0.00    +0.039 A 
ATOM      9  C   UNL     1      10.183   5.423  23.830  0.00  0.00    +0.127 A 
ATOM     10  F   UNL     1      10.175   6.761  23.781  0.00  0.00    -0.205 F 
ATOM     11  C   UNL     1       9.044   4.744  24.235  0.00  0.00    +0.084 A 
BRANCH   5  12
ATOM     12  O   UNL     1       7.724   2.898  24.510  0.00  0.00    -0.480 OA
BRANCH  12  13
ATOM     13  C   UNL     1       6.823   2.842  23.420  0.00  0.00    +0.349 C 
BRANCH  13  14
ATOM     14  C   UNL     1       7.037   1.756  22.390  0.00  0.00    +0.343 C 
ATOM     15  O   UNL     1       7.635   1.936  21.338  0.00  0.00    -0.247 OA
BRANCH  14  16
ATOM     16  O   UNL     1       6.589   0.544  22.784  0.00  0.00    -0.478 OA
ATOM     17  H   UNL     1       6.043   0.616  23.594  0.00  0.00    +0.295 HD
ENDBRANCH  14  16
ENDBRANCH  13  14
ENDBRANCH  12  13
ENDBRANCH   5  12
ENDBRANCH   1   6
BRANCH   2  18
ATOM     18  C   UNL     1      10.293  -1.002  22.599  0.00  0.00    +0.167 C 
BRANCH  18  19
ATOM     19  C   UNL     1       9.215  -2.031  22.904  0.00  0.00    +0.097 A 
ATOM     20  S   UNL     1       9.393  -3.044  24.289  0.00  0.00    -0.068 S 
ATOM     21  C   UNL     1       7.982  -3.930  23.848  0.00  0.00    +0.077 A 
ATOM     22  C   UNL     1       7.390  -5.040  24.471  0.00  0.00    +0.142 A 
ATOM     23  C   UNL     1       6.248  -5.627  23.923  0.00  0.00    +0.081 A 
ATOM     24  C   UNL     1       5.719  -5.112  22.750  0.00  0.00    +0.163 A 
ATOM     25  C   UNL     1       6.298  -4.002  22.125  0.00  0.00    +0.185 A 
ATOM     26  F   UNL     1       5.762  -3.532  20.987  0.00  0.00    -0.200 F 
ATOM     27  F   UNL     1       4.618  -5.674  22.226  0.00  0.00    -0.202 F 
ATOM     28  F   UNL     1       7.896  -5.546  25.607  0.00  0.00    -0.204 F 
ATOM     29  C   UNL     1       7.447  -3.390  22.680  0.00  0.00    +0.119 A 
ATOM     30  N   UNL     1       8.131  -2.275  22.192  0.00  0.00    -0.239 NA
ENDBRANCH  18  19
ENDBRANCH   2  18
TORSDOF 7
ENDMDL
MODEL 4
REMARK VINA RESULT:      -7.8      3.242      4.669
REMARK  Name = 
REMARK  7 active torsions:
REMARK  status: ('A' for Active; 'I' for Inactive)
REMARK    1  A    between atoms: O_1  and  C_2
REMARK    2  A    between atoms: C_2  and  C_4
REMARK    3  A    between atoms: C_4  and  O_5
REMARK    4  A    between atoms: O_5  and  C_6
REMARK    5  A    between atoms: C_12  and  C_13
REMARK    6  A    between atoms: N_15  and  C_16
REMARK    7  A    between atoms: C_16  and  C_17
REMARK                            x       y       z     vdW  Elec       q    Type
REMARK                         _______ _______ _______ _____ _____    ______ ____
ROOT
ATOM      1  C   UNL     1       9.430  -1.672  22.753  0.00  0.00    +0.248 C 
ATOM      2  N   UNL     1       8.125  -2.121  22.843  0.00  0.00    -0.305 N 
ATOM      3  H   UNL     1       7.427  -1.594  23.350  0.00  0.00    +0.149 HD
ATOM      4  O   UNL     1      10.335  -2.420  22.390  0.00  0.00    -0.270 OA
ENDROOT
BRANCH   1   6
ATOM      5  C   UNL     1       9.897   0.348  24.361  0.00  0.00    +0.136 A 
ATOM      6  C   UNL     1       9.752  -0.234  23.080  0.00  0.00    +0.078 A 
ATOM      7  C   UNL     1       9.822   0.627  21.955  0.00  0.00    +0.019 A 
ATOM      8  C   UNL     1      10.078   1.998  22.087  0.00  0.00    +0.039 A 
ATOM      9  C   UNL     1      10.301   2.523  23.347  0.00  0.00    +0.127 A 
ATOM     10  F   UNL     1      10.557   3.830  23.489  0.00  0.00    -0.205 F 
ATOM     11  C   UNL     1      10.227   1.712  24.469  0.00  0.00    +0.084 A 
BRANCH   5  12
ATOM     12  O   UNL     1       9.719  -0.205  25.606  0.00  0.00    -0.480 OA
BRANCH  12  13
ATOM     13  C   UNL     1       8.386  -0.304  26.073  0.00  0.00    +0.349 C 
BRANCH  13  14
ATOM     14  C   UNL     1       7.865  -1.682  26.413  0.00  0.00    +0.343 C 
ATOM     15  O   UNL     1       6.762  -1.881  26.905  0.00  0.00    -0.247 OA
BRANCH  14  16
ATOM     16  O   UNL     1       8.693  -2.680  26.034  0.00  0.00    -0.478 OA
ATOM     17  H   UNL     1       8.194  -3.503  25.858  0.00  0.00    +0.295 HD
ENDBRANCH  14  16
ENDBRANCH  13  14
ENDBRANCH  12  13
ENDBRANCH   5  12
ENDBRANCH   1   6
BRANCH   2  18
ATOM     18  C   UNL     1       7.723  -3.380  22.209  0.00  0.00    +0.167 C 
BRANCH  18  19
ATOM     19  C   UNL     1       7.000  -4.322  23.159  0.00  0.00    +0.097 A 
ATOM     20  S   UNL     1       5.632  -5.203  22.585  0.00  0.00    -0.068 S 
ATOM     21  C   UNL     1       5.343  -5.826  24.166  0.00  0.00    +0.077 A 
ATOM     22  C   UNL     1       4.319  -6.670  24.622  0.00  0.00    +0.142 A 
ATOM     23  C   UNL     1       4.258  -7.035  25.969  0.00  0.00    +0.081 A 
ATOM     24  C   UNL     1       5.209  -6.541  26.848  0.00  0.00    +0.163 A 
ATOM     25  C   UNL     1       6.237  -5.705  26.401  0.00  0.00    +0.185 A 
ATOM     26  F   UNL     1       7.139  -5.240  27.281  0.00  0.00    -0.200 F 
ATOM     27  F   UNL     1       5.152  -6.897  28.141  0.00  0.00    -0.202 F 
ATOM     28  F   UNL     1       3.394  -7.153  23.778  0.00  0.00    -0.204 F 
ATOM     29  C   UNL     1       6.318  -5.339  25.036  0.00  0.00    +0.119 A 
ATOM     30  N   UNL     1       7.283  -4.532  24.431  0.00  0.00    -0.239 NA
ENDBRANCH  18  19
ENDBRANCH   2  18
TORSDOF 7
ENDMDL
MODEL 5
REMARK VINA RESULT:      -7.8      4.072      8.667
REMARK  Name = 
REMARK  7 active torsions:
REMARK  status: ('A' for Active; 'I' for Inactive)
REMARK    1  A    between atoms: O_1  and  C_2
REMARK    2  A    between atoms: C_2  and  C_4
REMARK    3  A    between atoms: C_4  and  O_5
REMARK    4  A    between atoms: O_5  and  C_6
REMARK    5  A    between atoms: C_12  and  C_13
REMARK    6  A    between atoms: N_15  and  C_16
REMARK    7  A    between atoms: C_16  and  C_17
REMARK                            x       y       z     vdW  Elec       q    Type
REMARK                         _______ _______ _______ _____ _____    ______ ____
ROOT
ATOM      1  C   UNL     1       8.807  -4.395  24.787  0.00  0.00    +0.248 C 
ATOM      2  N   UNL     1       8.675  -3.205  24.096  0.00  0.00    -0.305 N 
ATOM      3  H   UNL     1       7.764  -2.858  23.825  0.00  0.00    +0.149 HD
ATOM      4  O   UNL     1       9.895  -4.959  24.876  0.00  0.00    -0.270 OA
ENDROOT
BRANCH   1   6
ATOM      5  C   UNL     1       6.388  -5.405  24.872  0.00  0.00    +0.136 A 
ATOM      6  C   UNL     1       7.605  -5.004  25.468  0.00  0.00    +0.078 A 
ATOM      7  C   UNL     1       7.705  -5.088  26.881  0.00  0.00    +0.019 A 
ATOM      8  C   UNL     1       6.664  -5.596  27.668  0.00  0.00    +0.039 A 
ATOM      9  C   UNL     1       5.518  -6.061  27.049  0.00  0.00    +0.127 A 
ATOM     10  F   UNL     1       4.517  -6.559  27.787  0.00  0.00    -0.205 F 
ATOM     11  C   UNL     1       5.382  -5.983  25.671  0.00  0.00    +0.084 A 
BRANCH   5  12
ATOM     12  O   UNL     1       5.960  -5.286  23.572  0.00  0.00    -0.480 OA
BRANCH  12  13
ATOM     13  C   UNL     1       5.141  -4.171  23.272  0.00  0.00    +0.349 C 
BRANCH  13  14
ATOM     14  C   UNL     1       5.622  -3.218  22.202  0.00  0.00    +0.343 C 
ATOM     15  O   UNL     1       5.589  -3.478  21.006  0.00  0.00    -0.247 OA
BRANCH  14  16
ATOM     16  O   UNL     1       6.002  -2.014  22.683  0.00  0.00    -0.478 OA
ATOM     17  H   UNL     1       6.944  -1.837  22.485  0.00  0.00    +0.295 HD
ENDBRANCH  14  16
ENDBRANCH  13  14
ENDBRANCH  12  13
ENDBRANCH   5  12
ENDBRANCH   1   6
BRANCH   2  18
ATOM     18  C   UNL     1       9.856  -2.417  23.732  0.00  0.00    +0.167 C 
BRANCH  18  19
ATOM     19  C   UNL     1       9.535  -0.958  23.449  0.00  0.00    +0.097 A 
ATOM     20  S   UNL     1      10.681   0.253  23.891  0.00  0.00    -0.068 S 
ATOM     21  C   UNL     1       9.580   1.496  23.427  0.00  0.00    +0.077 A 
ATOM     22  C   UNL     1       9.721   2.890  23.498  0.00  0.00    +0.142 A 
ATOM     23  C   UNL     1       8.679   3.723  23.085  0.00  0.00    +0.081 A 
ATOM     24  C   UNL     1       7.501   3.157  22.623  0.00  0.00    +0.163 A 
ATOM     25  C   UNL     1       7.354   1.768  22.542  0.00  0.00    +0.185 A 
ATOM     26  F   UNL     1       6.197   1.252  22.095  0.00  0.00    -0.200 F 
ATOM     27  F   UNL     1       6.502   3.959  22.222  0.00  0.00    -0.202 F 
ATOM     28  F   UNL     1      10.857   3.448  23.944  0.00  0.00    -0.204 F 
ATOM     29  C   UNL     1       8.409   0.913  22.944  0.00  0.00    +0.119 A 
ATOM     30  N   UNL     1       8.427  -0.482  22.912  0.00  0.00    -0.239 NA
ENDBRANCH  18  19
ENDBRANCH   2  18
TORSDOF 7
ENDMDL
MODEL 6
REMARK VINA RESULT:      -7.7      3.395      8.675
REMARK  Name = 
REMARK  7 active torsions:
REMARK  status: ('A' for Active; 'I' for Inactive)
REMARK    1  A    between atoms: O_1  and  C_2
REMARK    2  A    between atoms: C_2  and  C_4
REMARK    3  A    between atoms: C_4  and  O_5
REMARK    4  A    between atoms: O_5  and  C_6
REMARK    5  A    between atoms: C_12  and  C_13
REMARK    6  A    between atoms: N_15  and  C_16
REMARK    7  A    between atoms: C_16  and  C_17
REMARK                            x       y       z     vdW  Elec       q    Type
REMARK                         _______ _______ _______ _____ _____    ______ ____
ROOT
ATOM      1  C   UNL     1       9.014  -3.082  23.618  0.00  0.00    +0.248 C 
ATOM      2  N   UNL     1       8.431  -2.444  22.538  0.00  0.00    -0.305 N 
ATOM      3  H   UNL     1       7.507  -2.703  22.218  0.00  0.00    +0.149 HD
ATOM      4  O   UNL     1      10.218  -2.979  23.841  0.00  0.00    -0.270 OA
ENDROOT
BRANCH   1   6
ATOM      5  C   UNL     1       6.795  -4.237  24.408  0.00  0.00    +0.136 A 
ATOM      6  C   UNL     1       8.159  -3.899  24.557  0.00  0.00    +0.078 A 
ATOM      7  C   UNL     1       8.803  -4.278  25.763  0.00  0.00    +0.019 A 
ATOM      8  C   UNL     1       8.141  -5.009  26.757  0.00  0.00    +0.039 A 
ATOM      9  C   UNL     1       6.832  -5.401  26.545  0.00  0.00    +0.127 A 
ATOM     10  F   UNL     1       6.187  -6.108  27.482  0.00  0.00    -0.205 F 
ATOM     11  C   UNL     1       6.168  -5.036  25.383  0.00  0.00    +0.084 A 
BRANCH   5  12
ATOM     12  O   UNL     1       5.895  -3.868  23.438  0.00  0.00    -0.480 OA
BRANCH  12  13
ATOM     13  C   UNL     1       5.162  -4.911  22.821  0.00  0.00    +0.349 C 
BRANCH  13  14
ATOM     14  C   UNL     1       5.825  -5.652  21.682  0.00  0.00    +0.343 C 
ATOM     15  O   UNL     1       5.980  -5.171  20.567  0.00  0.00    -0.247 OA
BRANCH  14  16
ATOM     16  O   UNL     1       6.315  -6.860  22.037  0.00  0.00    -0.478 OA
ATOM     17  H   UNL     1       5.810  -7.238  22.786  0.00  0.00    +0.295 HD
ENDBRANCH  14  16
ENDBRANCH  13  14
ENDBRANCH  12  13
ENDBRANCH   5  12
ENDBRANCH   1   6
BRANCH   2  18
ATOM     18  C   UNL     1       9.143  -1.380  21.825  0.00  0.00    +0.167 C 
BRANCH  18  19
ATOM     19  C   UNL     1       8.987  -0.016  22.480  0.00  0.00    +0.097 A 
ATOM     20  S   UNL     1       7.402   0.572  22.823  0.00  0.00    -0.068 S 
ATOM     21  C   UNL     1       8.051   2.082  23.342  0.00  0.00    +0.077 A 
ATOM     22  C   UNL     1       7.389   3.235  23.791  0.00  0.00    +0.142 A 
ATOM     23  C   UNL     1       8.119   4.372  24.142  0.00  0.00    +0.081 A 
ATOM     24  C   UNL     1       9.500   4.353  24.026  0.00  0.00    +0.163 A 
ATOM     25  C   UNL     1      10.169   3.206  23.586  0.00  0.00    +0.185 A 
ATOM     26  F   UNL     1      11.508   3.224  23.480  0.00  0.00    -0.200 F 
ATOM     27  F   UNL     1      10.201   5.445  24.368  0.00  0.00    -0.202 F 
ATOM     28  F   UNL     1       6.052   3.263  23.906  0.00  0.00    -0.204 F 
ATOM     29  C   UNL     1       9.441   2.042  23.241  0.00  0.00    +0.119 A 
ATOM     30  N   UNL     1       9.955   0.821  22.804  0.00  0.00    -0.239 NA
ENDBRANCH  18  19
ENDBRANCH   2  18
TORSDOF 7
ENDMDL
MODEL 7
REMARK VINA RESULT:      -7.7      5.070      9.580
REMARK  Name = 
REMARK  7 active torsions:
REMARK  status: ('A' for Active; 'I' for Inactive)
REMARK    1  A    between atoms: O_1  and  C_2
REMARK    2  A    between atoms: C_2  and  C_4
REMARK    3  A    between atoms: C_4  and  O_5
REMARK    4  A    between atoms: O_5  and  C_6
REMARK    5  A    between atoms: C_12  and  C_13
REMARK    6  A    between atoms: N_15  and  C_16
REMARK    7  A    between atoms: C_16  and  C_17
REMARK                            x       y       z     vdW  Elec       q    Type
REMARK                         _______ _______ _______ _____ _____    ______ ____
ROOT
ATOM      1  C   UNL     1       6.421  -5.184  23.517  0.00  0.00    +0.248 C 
ATOM      2  N   UNL     1       7.172  -4.446  24.413  0.00  0.00    -0.305 N 
ATOM      3  H   UNL     1       6.754  -4.065  25.252  0.00  0.00    +0.149 HD
ATOM      4  O   UNL     1       6.832  -5.410  22.381  0.00  0.00    -0.270 OA
ENDROOT
BRANCH   1   6
ATOM      5  C   UNL     1       4.764  -6.370  25.168  0.00  0.00    +0.136 A 
ATOM      6  C   UNL     1       5.086  -5.747  23.941  0.00  0.00    +0.078 A 
ATOM      7  C   UNL     1       4.085  -5.714  22.937  0.00  0.00    +0.019 A 
ATOM      8  C   UNL     1       2.800  -6.227  23.156  0.00  0.00    +0.039 A 
ATOM      9  C   UNL     1       2.488  -6.753  24.396  0.00  0.00    +0.127 A 
ATOM     10  F   UNL     1       1.261  -7.240  24.625  0.00  0.00    -0.205 F 
ATOM     11  C   UNL     1       3.448  -6.813  25.396  0.00  0.00    +0.084 A 
BRANCH   5  12
ATOM     12  O   UNL     1       5.569  -6.682  26.237  0.00  0.00    -0.480 OA
BRANCH  12  13
ATOM     13  C   UNL     1       5.356  -5.947  27.428  0.00  0.00    +0.349 C 
BRANCH  13  14
ATOM     14  C   UNL     1       5.538  -6.675  28.741  0.00  0.00    +0.343 C 
ATOM     15  O   UNL     1       4.628  -7.253  29.320  0.00  0.00    -0.247 OA
BRANCH  14  16
ATOM     16  O   UNL     1       6.820  -6.709  29.166  0.00  0.00    -0.478 OA
ATOM     17  H   UNL     1       7.362  -6.039  28.701  0.00  0.00    +0.295 HD
ENDBRANCH  14  16
ENDBRANCH  13  14
ENDBRANCH  12  13
ENDBRANCH   5  12
ENDBRANCH   1   6
BRANCH   2  18
ATOM     18  C   UNL     1       8.593  -4.190  24.165  0.00  0.00    +0.167 C 
BRANCH  18  19
ATOM     19  C   UNL     1       8.882  -2.746  23.782  0.00  0.00    +0.097 A 
ATOM     20  S   UNL     1       8.446  -2.195  22.207  0.00  0.00    -0.068 S 
ATOM     21  C   UNL     1       9.194  -0.672  22.510  0.00  0.00    +0.077 A 
ATOM     22  C   UNL     1       9.333   0.441  21.666  0.00  0.00    +0.142 A 
ATOM     23  C   UNL     1      10.008   1.580  22.111  0.00  0.00    +0.081 A 
ATOM     24  C   UNL     1      10.551   1.590  23.387  0.00  0.00    +0.163 A 
ATOM     25  C   UNL     1      10.410   0.488  24.237  0.00  0.00    +0.185 A 
ATOM     26  F   UNL     1      10.953   0.529  25.465  0.00  0.00    -0.200 F 
ATOM     27  F   UNL     1      11.194   2.687  23.815  0.00  0.00    -0.202 F 
ATOM     28  F   UNL     1       8.812   0.440  20.429  0.00  0.00    -0.204 F 
ATOM     29  C   UNL     1       9.716  -0.666  23.802  0.00  0.00    +0.119 A 
ATOM     30  N   UNL     1       9.478  -1.834  24.528  0.00  0.00    -0.239 NA
ENDBRANCH  18  19
ENDBRANCH   2  18
TORSDOF 7
ENDMDL
MODEL 8
REMARK VINA RESULT:      -7.6      3.376      5.245
REMARK  Name = 
REMARK  7 active torsions:
REMARK  status: ('A' for Active; 'I' for Inactive)
REMARK    1  A    between atoms: O_1  and  C_2
REMARK    2  A    between atoms: C_2  and  C_4
REMARK    3  A    between atoms: C_4  and  O_5
REMARK    4  A    between atoms: O_5  and  C_6
REMARK    5  A    between atoms: C_12  and  C_13
REMARK    6  A    between atoms: N_15  and  C_16
REMARK    7  A    between atoms: C_16  and  C_17
REMARK                            x       y       z     vdW  Elec       q    Type
REMARK                         _______ _______ _______ _____ _____    ______ ____
ROOT
ATOM      1  C   UNL     1       9.750  -1.508  23.458  0.00  0.00    +0.248 C 
ATOM      2  N   UNL     1       9.259  -2.279  24.494  0.00  0.00    -0.305 N 
ATOM      3  H   UNL     1       8.826  -1.851  25.302  0.00  0.00    +0.149 HD
ATOM      4  O   UNL     1      10.512  -1.983  22.619  0.00  0.00    -0.270 OA
ENDROOT
BRANCH   1   6
ATOM      5  C   UNL     1       8.370   0.626  24.110  0.00  0.00    +0.136 A 
ATOM      6  C   UNL     1       9.326  -0.064  23.330  0.00  0.00    +0.078 A 
ATOM      7  C   UNL     1       9.905   0.628  22.236  0.00  0.00    +0.019 A 
ATOM      8  C   UNL     1       9.593   1.964  21.956  0.00  0.00    +0.039 A 
ATOM      9  C   UNL     1       8.719   2.640  22.788  0.00  0.00    +0.127 A 
ATOM     10  F   UNL     1       8.416   3.920  22.540  0.00  0.00    -0.205 F 
ATOM     11  C   UNL     1       8.125   1.989  23.860  0.00  0.00    +0.084 A 
BRANCH   5  12
ATOM     12  O   UNL     1       7.549   0.165  25.110  0.00  0.00    -0.480 OA
BRANCH  12  13
ATOM     13  C   UNL     1       6.193  -0.058  24.767  0.00  0.00    +0.349 C 
BRANCH  13  14
ATOM     14  C   UNL     1       5.787  -1.470  24.407  0.00  0.00    +0.343 C 
ATOM     15  O   UNL     1       5.119  -2.185  25.142  0.00  0.00    -0.247 OA
BRANCH  14  16
ATOM     16  O   UNL     1       6.149  -1.833  23.157  0.00  0.00    -0.478 OA
ATOM     17  H   UNL     1       6.631  -1.110  22.706  0.00  0.00    +0.295 HD
ENDBRANCH  14  16
ENDBRANCH  13  14
ENDBRANCH  12  13
ENDBRANCH   5  12
ENDBRANCH   1   6
BRANCH   2  18
ATOM     18  C   UNL     1       9.359  -3.740  24.452  0.00  0.00    +0.167 C 
BRANCH  18  19
ATOM     19  C   UNL     1       8.028  -4.437  24.688  0.00  0.00    +0.097 A 
ATOM     20  S   UNL     1       7.625  -4.953  26.284  0.00  0.00    -0.068 S 
ATOM     21  C   UNL     1       6.192  -5.712  25.699  0.00  0.00    +0.077 A 
ATOM     22  C   UNL     1       5.223  -6.452  26.394  0.00  0.00    +0.142 A 
ATOM     23  C   UNL     1       4.140  -7.008  25.710  0.00  0.00    +0.081 A 
ATOM     24  C   UNL     1       4.043  -6.834  24.338  0.00  0.00    +0.163 A 
ATOM     25  C   UNL     1       5.001  -6.091  23.638  0.00  0.00    +0.185 A 
ATOM     26  F   UNL     1       4.880  -5.947  22.308  0.00  0.00    -0.200 F 
ATOM     27  F   UNL     1       2.999  -7.364  23.683  0.00  0.00    -0.202 F 
ATOM     28  F   UNL     1       5.308  -6.627  27.723  0.00  0.00    -0.204 F 
ATOM     29  C   UNL     1       6.095  -5.511  24.323  0.00  0.00    +0.119 A 
ATOM     30  N   UNL     1       7.120  -4.736  23.778  0.00  0.00    -0.239 NA
ENDBRANCH  18  19
ENDBRANCH   2  18
TORSDOF 7
ENDMDL
MODEL 9
REMARK VINA RESULT:      -7.6      2.070      3.196
REMARK  Name = 
REMARK  7 active torsions:
REMARK  status: ('A' for Active; 'I' for Inactive)
REMARK    1  A    between atoms: O_1  and  C_2
REMARK    2  A    between atoms: C_2  and  C_4
REMARK    3  A    between atoms: C_4  and  O_5
REMARK    4  A    between atoms: O_5  and  C_6
REMARK    5  A    between atoms: C_12  and  C_13
REMARK    6  A    between atoms: N_15  and  C_16
REMARK    7  A    between atoms: C_16  and  C_17
REMARK                            x       y       z     vdW  Elec       q    Type
REMARK                         _______ _______ _______ _____ _____    ______ ____
ROOT
ATOM      1  C   UNL     1      10.336   0.955  23.823  0.00  0.00    +0.248 C 
ATOM      2  N   UNL     1       9.779   0.267  22.760  0.00  0.00    -0.305 N 
ATOM      3  H   UNL     1       9.068   0.693  22.181  0.00  0.00    +0.149 HD
ATOM      4  O   UNL     1      10.983   0.368  24.688  0.00  0.00    -0.270 OA
ENDROOT
BRANCH   1   6
ATOM      5  C   UNL     1       9.058   3.171  24.399  0.00  0.00    +0.136 A 
ATOM      6  C   UNL     1      10.175   2.453  23.915  0.00  0.00    +0.078 A 
ATOM      7  C   UNL     1      11.247   3.198  23.361  0.00  0.00    +0.019 A 
ATOM      8  C   UNL     1      11.239   4.598  23.334  0.00  0.00    +0.039 A 
ATOM      9  C   UNL     1      10.171   5.277  23.894  0.00  0.00    +0.127 A 
ATOM     10  F   UNL     1      10.153   6.615  23.885  0.00  0.00    -0.205 F 
ATOM     11  C   UNL     1       9.100   4.578  24.432  0.00  0.00    +0.084 A 
BRANCH   5  12
ATOM     12  O   UNL     1       7.837   2.717  24.833  0.00  0.00    -0.480 OA
BRANCH  12  13
ATOM     13  C   UNL     1       6.725   2.988  24.000  0.00  0.00    +0.349 C 
BRANCH  13  14
ATOM     14  C   UNL     1       6.769   2.465  22.581  0.00  0.00    +0.343 C 
ATOM     15  O   UNL     1       6.898   1.279  22.306  0.00  0.00    -0.247 OA
BRANCH  14  16
ATOM     16  O   UNL     1       6.557   3.419  21.648  0.00  0.00    -0.478 OA
ATOM     17  H   UNL     1       6.176   3.035  20.833  0.00  0.00    +0.295 HD
ENDBRANCH  14  16
ENDBRANCH  13  14
ENDBRANCH  12  13
ENDBRANCH   5  12
ENDBRANCH   1   6
BRANCH   2  18
ATOM     18  C   UNL     1      10.203  -1.101  22.451  0.00  0.00    +0.167 C 
BRANCH  18  19
ATOM     19  C   UNL     1       9.379  -2.157  23.171  0.00  0.00    +0.097 A 
ATOM     20  S   UNL     1       7.764  -2.461  22.648  0.00  0.00    -0.068 S 
ATOM     21  C   UNL     1       7.521  -3.552  23.960  0.00  0.00    +0.077 A 
ATOM     22  C   UNL     1       6.374  -4.274  24.323  0.00  0.00    +0.142 A 
ATOM     23  C   UNL     1       6.388  -5.092  25.455  0.00  0.00    +0.081 A 
ATOM     24  C   UNL     1       7.541  -5.167  26.222  0.00  0.00    +0.163 A 
ATOM     25  C   UNL     1       8.691  -4.456  25.864  0.00  0.00    +0.185 A 
ATOM     26  F   UNL     1       9.789  -4.547  26.632  0.00  0.00    -0.200 F 
ATOM     27  F   UNL     1       7.555  -5.957  27.307  0.00  0.00    -0.202 F 
ATOM     28  F   UNL     1       5.253  -4.208  23.587  0.00  0.00    -0.204 F 
ATOM     29  C   UNL     1       8.693  -3.635  24.710  0.00  0.00    +0.119 A 
ATOM     30  N   UNL     1       9.754  -2.878  24.212  0.00  0.00    -0.239 NA
ENDBRANCH  18  19
ENDBRANCH   2  18
TORSDOF 7
ENDMDL
