MODEL 1
REMARK VINA RESULT:      -6.7      0.000      0.000
REMARK  Name = 
REMARK  19 active torsions:
REMARK  status: ('A' for Active; 'I' for Inactive)
REMARK    1  A    between atoms: O_1  and  C_2
REMARK    2  A    between atoms: C_2  and  C_3
REMARK    3  A    between atoms: C_6  and  O_8
REMARK    4  A    between atoms: O_8  and  C_9
REMARK    5  A    between atoms: C_11  and  O_13
REMARK    6  A    between atoms: C_14  and  O_16
REMARK    7  A    between atoms: C_17  and  O_19
REMARK    8  A    between atoms: O_19  and  C_20
REMARK    9  A    between atoms: C_20  and  C_21
REMARK   10  A    between atoms: C_21  and  C_22
REMARK   11  A    between atoms: C_22  and  C_23
REMARK   12  A    between atoms: C_23  and  C_24
REMARK   13  A    between atoms: C_24  and  C_25
REMARK   14  A    between atoms: C_25  and  C_26
REMARK   15  A    between atoms: C_33  and  C_35
REMARK   16  A    between atoms: C_35  and  O_36
REMARK   17  A    between atoms: C_37  and  O_39
REMARK   18  A    between atoms: C_40  and  O_42
REMARK   19  A    between atoms: C_43  and  O_45
REMARK                            x       y       z     vdW  Elec       q    Type
REMARK                         _______ _______ _______ _____ _____    ______ ____
ROOT
ATOM      1  C   UNL     1       8.163  -3.801  23.497  0.00  0.00    +0.183 C 
ATOM      2  C   UNL     1       9.315  -3.549  24.519  0.00  0.00    +0.178 C 
ATOM      3  O   UNL     1       9.007  -2.448  25.390  0.00  0.00    -0.341 OA
ATOM      4  C   UNL     1       8.858  -1.187  24.697  0.00  0.00    +0.282 C 
ATOM      5  C   UNL     1       7.747  -1.225  23.629  0.00  0.00    +0.201 C 
ATOM      6  C   UNL     1       7.933  -2.470  22.730  0.00  0.00    +0.179 C 
ENDROOT
BRANCH   6   7
ATOM      7  O   UNL     1       9.089  -2.245  21.882  0.00  0.00    -0.386 OA
ATOM      8  H   UNL     1       9.689  -3.027  21.939  0.00  0.00    +0.210 HD
ENDBRANCH   6   7
BRANCH   5   9
ATOM      9  O   UNL     1       6.466  -1.042  24.226  0.00  0.00    -0.384 OA
ATOM     10  H   UNL     1       6.418  -0.128  24.578  0.00  0.00    +0.210 HD
ENDBRANCH   5   9
BRANCH   4  11
ATOM     11  O   UNL     1      10.100  -0.790  24.114  0.00  0.00    -0.349 OA
BRANCH  11  12
ATOM     12  C   UNL     1      10.598   0.492  24.541  0.00  0.00    +0.163 C 
BRANCH  12  13
ATOM     13  C   UNL     1       9.909   1.678  23.872  0.00  0.00    +0.028 C 
BRANCH  13  14
ATOM     14  C   UNL     1      10.102   1.549  22.372  0.00  0.00    +0.002 C 
BRANCH  14  15
ATOM     15  C   UNL     1       8.797   1.565  21.601  0.00  0.00    +0.000 C 
BRANCH  15  16
ATOM     16  C   UNL     1       7.741   2.146  22.529  0.00  0.00    +0.000 C 
BRANCH  16  17
ATOM     17  C   UNL     1       7.200   3.483  22.028  0.00  0.00    +0.003 C 
BRANCH  17  18
ATOM     18  C   UNL     1       6.724   4.366  23.185  0.00  0.00    -0.011 C 
ATOM     19  C   UNL     1       6.328   5.753  22.658  0.00  0.00    +0.003 C 
ATOM     20  C   UNL     1       7.533   6.577  22.208  0.00  0.00    +0.000 C 
ATOM     21  C   UNL     1       8.622   6.655  23.278  0.00  0.00    +0.000 C 
ATOM     22  C   UNL     1       9.003   5.287  23.837  0.00  0.00    +0.000 C 
ATOM     23  C   UNL     1       7.766   4.527  24.308  0.00  0.00    +0.003 C 
ENDBRANCH  17  18
ENDBRANCH  16  17
ENDBRANCH  15  16
ENDBRANCH  14  15
ENDBRANCH  13  14
ENDBRANCH  12  13
ENDBRANCH  11  12
ENDBRANCH   4  11
BRANCH   2  24
ATOM     24  C   UNL     1       9.804  -4.781  25.302  0.00  0.00    +0.190 C 
BRANCH  24  25
ATOM     25  O   UNL     1       9.628  -5.974  24.531  0.00  0.00    -0.392 OA
ATOM     26  H   UNL     1       9.483  -6.698  25.170  0.00  0.00    +0.210 HD
ENDBRANCH  24  25
ENDBRANCH   2  24
BRANCH   1  27
ATOM     27  O   UNL     1       6.953  -4.499  23.940  0.00  0.00    -0.340 OA
BRANCH  27  32
ATOM     28  C   UNL     1       4.333  -4.068  24.821  0.00  0.00    +0.178 C 
ATOM     29  C   UNL     1       3.609  -5.415  24.740  0.00  0.00    +0.177 C 
ATOM     30  C   UNL     1       4.537  -6.432  24.043  0.00  0.00    +0.179 C 
ATOM     31  C   UNL     1       5.102  -5.830  22.765  0.00  0.00    +0.201 C 
ATOM     32  C   UNL     1       5.825  -4.493  23.056  0.00  0.00    +0.282 C 
ATOM     33  O   UNL     1       4.832  -3.596  23.550  0.00  0.00    -0.341 OA
BRANCH  29  34
ATOM     34  O   UNL     1       3.305  -5.867  26.070  0.00  0.00    -0.386 OA
ATOM     35  H   UNL     1       3.931  -5.450  26.688  0.00  0.00    +0.210 HD
ENDBRANCH  29  34
BRANCH  30  36
ATOM     36  O   UNL     1       3.831  -7.636  23.725  0.00  0.00    -0.386 OA
ATOM     37  H   UNL     1       4.299  -8.356  24.194  0.00  0.00    +0.210 HD
ENDBRANCH  30  36
BRANCH  31  38
ATOM     38  O   UNL     1       5.886  -6.800  22.064  0.00  0.00    -0.384 OA
ATOM     39  H   UNL     1       6.624  -7.066  22.637  0.00  0.00    +0.210 HD
ENDBRANCH  31  38
BRANCH  28  40
ATOM     40  C   UNL     1       3.572  -2.967  25.567  0.00  0.00    +0.190 C 
BRANCH  40  41
ATOM     41  O   UNL     1       2.178  -2.992  25.310  0.00  0.00    -0.392 OA
ATOM     42  H   UNL     1       1.959  -3.924  25.126  0.00  0.00    +0.210 HD
ENDBRANCH  40  41
ENDBRANCH  28  40
ENDBRANCH  27  32
ENDBRANCH   1  27
TORSDOF 19
ENDMDL
MODEL 2
REMARK VINA RESULT:      -6.7      1.720      2.739
REMARK  Name = 
REMARK  19 active torsions:
REMARK  status: ('A' for Active; 'I' for Inactive)
REMARK    1  A    between atoms: O_1  and  C_2
REMARK    2  A    between atoms: C_2  and  C_3
REMARK    3  A    between atoms: C_6  and  O_8
REMARK    4  A    between atoms: O_8  and  C_9
REMARK    5  A    between atoms: C_11  and  O_13
REMARK    6  A    between atoms: C_14  and  O_16
REMARK    7  A    between atoms: C_17  and  O_19
REMARK    8  A    between atoms: O_19  and  C_20
REMARK    9  A    between atoms: C_20  and  C_21
REMARK   10  A    between atoms: C_21  and  C_22
REMARK   11  A    between atoms: C_22  and  C_23
REMARK   12  A    between atoms: C_23  and  C_24
REMARK   13  A    between atoms: C_24  and  C_25
REMARK   14  A    between atoms: C_25  and  C_26
REMARK   15  A    between atoms: C_33  and  C_35
REMARK   16  A    between atoms: C_35  and  O_36
REMARK   17  A    between atoms: C_37  and  O_39
REMARK   18  A    between atoms: C_40  and  O_42
REMARK   19  A    between atoms: C_43  and  O_45
REMARK                            x       y       z     vdW  Elec       q    Type
REMARK                         _______ _______ _______ _____ _____    ______ ____
ROOT
ATOM      1  C   UNL     1       6.042  -3.877  23.251  0.00  0.00    +0.183 C 
ATOM      2  C   UNL     1       7.221  -4.315  22.328  0.00  0.00    +0.178 C 
ATOM      3  O   UNL     1       8.492  -4.051  22.945  0.00  0.00    -0.341 OA
ATOM      4  C   UNL     1       8.732  -2.647  23.195  0.00  0.00    +0.282 C 
ATOM      5  C   UNL     1       7.663  -2.014  24.107  0.00  0.00    +0.201 C 
ATOM      6  C   UNL     1       6.253  -2.374  23.579  0.00  0.00    +0.179 C 
ENDROOT
BRANCH   6   7
ATOM      7  O   UNL     1       6.021  -1.620  22.361  0.00  0.00    -0.386 OA
ATOM      8  H   UNL     1       5.659  -2.225  21.671  0.00  0.00    +0.210 HD
ENDBRANCH   6   7
BRANCH   5   9
ATOM      9  O   UNL     1       7.934  -2.299  25.477  0.00  0.00    -0.384 OA
ATOM     10  H   UNL     1       7.233  -1.884  26.022  0.00  0.00    +0.210 HD
ENDBRANCH   5   9
BRANCH   4  11
ATOM     11  O   UNL     1       8.826  -1.931  21.962  0.00  0.00    -0.349 OA
BRANCH  11  12
ATOM     12  C   UNL     1       9.771  -0.845  21.952  0.00  0.00    +0.163 C 
BRANCH  12  13
ATOM     13  C   UNL     1       9.182   0.484  21.488  0.00  0.00    +0.028 C 
BRANCH  13  14
ATOM     14  C   UNL     1      10.021   1.603  22.078  0.00  0.00    +0.002 C 
BRANCH  14  15
ATOM     15  C   UNL     1      10.386   1.371  23.531  0.00  0.00    +0.000 C 
BRANCH  15  16
ATOM     16  C   UNL     1       9.426   2.205  24.366  0.00  0.00    +0.000 C 
BRANCH  16  17
ATOM     17  C   UNL     1       9.540   3.698  24.064  0.00  0.00    +0.003 C 
BRANCH  17  18
ATOM     18  C   UNL     1       8.289   4.459  24.514  0.00  0.00    -0.011 C 
ATOM     19  C   UNL     1       7.070   3.985  23.709  0.00  0.00    +0.003 C 
ATOM     20  C   UNL     1       7.115   4.439  22.251  0.00  0.00    +0.000 C 
ATOM     21  C   UNL     1       7.351   5.943  22.112  0.00  0.00    +0.000 C 
ATOM     22  C   UNL     1       8.538   6.436  22.933  0.00  0.00    +0.000 C 
ATOM     23  C   UNL     1       8.419   5.989  24.387  0.00  0.00    +0.003 C 
ENDBRANCH  17  18
ENDBRANCH  16  17
ENDBRANCH  15  16
ENDBRANCH  14  15
ENDBRANCH  13  14
ENDBRANCH  12  13
ENDBRANCH  11  12
ENDBRANCH   4  11
BRANCH   2  24
ATOM     24  C   UNL     1       7.143  -5.745  21.765  0.00  0.00    +0.190 C 
BRANCH  24  25
ATOM     25  O   UNL     1       5.820  -6.275  21.909  0.00  0.00    -0.392 OA
ATOM     26  H   UNL     1       5.207  -5.521  21.810  0.00  0.00    +0.210 HD
ENDBRANCH  24  25
ENDBRANCH   2  24
BRANCH   1  27
ATOM     27  O   UNL     1       5.663  -4.730  24.380  0.00  0.00    -0.340 OA
BRANCH  27  32
ATOM     28  C   UNL     1       4.801  -5.215  26.998  0.00  0.00    +0.178 C 
ATOM     29  C   UNL     1       4.197  -6.622  27.014  0.00  0.00    +0.177 C 
ATOM     30  C   UNL     1       4.132  -7.147  25.565  0.00  0.00    +0.179 C 
ATOM     31  C   UNL     1       3.509  -6.096  24.658  0.00  0.00    +0.201 C 
ATOM     32  C   UNL     1       4.279  -4.757  24.753  0.00  0.00    +0.282 C 
ATOM     33  O   UNL     1       4.134  -4.303  26.097  0.00  0.00    -0.341 OA
BRANCH  29  34
ATOM     34  O   UNL     1       5.031  -7.483  27.807  0.00  0.00    -0.386 OA
ATOM     35  H   UNL     1       4.804  -8.406  27.600  0.00  0.00    +0.210 HD
ENDBRANCH  29  34
BRANCH  30  36
ATOM     36  O   UNL     1       3.362  -8.352  25.489  0.00  0.00    -0.386 OA
ATOM     37  H   UNL     1       2.600  -8.224  26.089  0.00  0.00    +0.210 HD
ENDBRANCH  30  36
BRANCH  31  38
ATOM     38  O   UNL     1       3.359  -6.612  23.332  0.00  0.00    -0.384 OA
ATOM     39  H   UNL     1       4.233  -6.625  22.909  0.00  0.00    +0.210 HD
ENDBRANCH  31  38
BRANCH  28  40
ATOM     40  C   UNL     1       5.012  -4.583  28.378  0.00  0.00    +0.190 C 
BRANCH  40  41
ATOM     41  O   UNL     1       6.058  -5.199  29.110  0.00  0.00    -0.392 OA
ATOM     42  H   UNL     1       5.621  -5.736  29.796  0.00  0.00    +0.210 HD
ENDBRANCH  40  41
ENDBRANCH  28  40
ENDBRANCH  27  32
ENDBRANCH   1  27
TORSDOF 19
ENDMDL
MODEL 3
REMARK VINA RESULT:      -6.4      1.781      3.056
REMARK  Name = 
REMARK  19 active torsions:
REMARK  status: ('A' for Active; 'I' for Inactive)
REMARK    1  A    between atoms: O_1  and  C_2
REMARK    2  A    between atoms: C_2  and  C_3
REMARK    3  A    between atoms: C_6  and  O_8
REMARK    4  A    between atoms: O_8  and  C_9
REMARK    5  A    between atoms: C_11  and  O_13
REMARK    6  A    between atoms: C_14  and  O_16
REMARK    7  A    between atoms: C_17  and  O_19
REMARK    8  A    between atoms: O_19  and  C_20
REMARK    9  A    between atoms: C_20  and  C_21
REMARK   10  A    between atoms: C_21  and  C_22
REMARK   11  A    between atoms: C_22  and  C_23
REMARK   12  A    between atoms: C_23  and  C_24
REMARK   13  A    between atoms: C_24  and  C_25
REMARK   14  A    between atoms: C_25  and  C_26
REMARK   15  A    between atoms: C_33  and  C_35
REMARK   16  A    between atoms: C_35  and  O_36
REMARK   17  A    between atoms: C_37  and  O_39
REMARK   18  A    between atoms: C_40  and  O_42
REMARK   19  A    between atoms: C_43  and  O_45
REMARK                            x       y       z     vdW  Elec       q    Type
REMARK                         _______ _______ _______ _____ _____    ______ ____
ROOT
ATOM      1  C   UNL     1       5.905  -2.715  23.693  0.00  0.00    +0.183 C 
ATOM      2  C   UNL     1       6.579  -3.332  22.429  0.00  0.00    +0.178 C 
ATOM      3  O   UNL     1       7.976  -3.583  22.653  0.00  0.00    -0.341 OA
ATOM      4  C   UNL     1       8.742  -2.385  22.922  0.00  0.00    +0.282 C 
ATOM      5  C   UNL     1       8.230  -1.617  24.156  0.00  0.00    +0.201 C 
ATOM      6  C   UNL     1       6.698  -1.429  24.052  0.00  0.00    +0.179 C 
ENDROOT
BRANCH   6   7
ATOM      7  O   UNL     1       6.434  -0.445  23.018  0.00  0.00    -0.386 OA
ATOM      8  H   UNL     1       5.719  -0.782  22.427  0.00  0.00    +0.210 HD
ENDBRANCH   6   7
BRANCH   5   9
ATOM      9  O   UNL     1       8.732  -2.200  25.357  0.00  0.00    -0.384 OA
ATOM     10  H   UNL     1       9.031  -1.477  25.948  0.00  0.00    +0.210 HD
ENDBRANCH   5   9
BRANCH   4  11
ATOM     11  O   UNL     1       8.755  -1.535  21.774  0.00  0.00    -0.349 OA
BRANCH  11  12
ATOM     12  C   UNL     1       9.788  -0.532  21.762  0.00  0.00    +0.163 C 
BRANCH  12  13
ATOM     13  C   UNL     1       9.274   0.883  21.512  0.00  0.00    +0.028 C 
BRANCH  13  14
ATOM     14  C   UNL     1      10.192   1.852  22.234  0.00  0.00    +0.002 C 
BRANCH  14  15
ATOM     15  C   UNL     1      10.408   1.496  23.692  0.00  0.00    +0.000 C 
BRANCH  15  16
ATOM     16  C   UNL     1       9.338   2.227  24.488  0.00  0.00    +0.000 C 
BRANCH  16  17
ATOM     17  C   UNL     1       9.438   3.744  24.337  0.00  0.00    +0.003 C 
BRANCH  17  18
ATOM     18  C   UNL     1       8.094   4.426  24.611  0.00  0.00    -0.011 C 
ATOM     19  C   UNL     1       7.010   3.834  23.698  0.00  0.00    +0.003 C 
ATOM     20  C   UNL     1       7.189   4.237  22.235  0.00  0.00    +0.000 C 
ATOM     21  C   UNL     1       7.332   5.748  22.057  0.00  0.00    +0.000 C 
ATOM     22  C   UNL     1       8.381   6.358  22.983  0.00  0.00    +0.000 C 
ATOM     23  C   UNL     1       8.130   5.955  24.433  0.00  0.00    +0.003 C 
ENDBRANCH  17  18
ENDBRANCH  16  17
ENDBRANCH  15  16
ENDBRANCH  14  15
ENDBRANCH  13  14
ENDBRANCH  12  13
ENDBRANCH  11  12
ENDBRANCH   4  11
BRANCH   2  24
ATOM     24  C   UNL     1       5.869  -4.551  21.813  0.00  0.00    +0.190 C 
BRANCH  24  25
ATOM     25  O   UNL     1       6.822  -5.478  21.281  0.00  0.00    -0.392 OA
ATOM     26  H   UNL     1       7.091  -5.129  20.409  0.00  0.00    +0.210 HD
ENDBRANCH  24  25
ENDBRANCH   2  24
BRANCH   1  27
ATOM     27  O   UNL     1       5.560  -3.587  24.819  0.00  0.00    -0.340 OA
BRANCH  27  32
ATOM     28  C   UNL     1       4.318  -5.572  26.350  0.00  0.00    +0.178 C 
ATOM     29  C   UNL     1       5.348  -6.054  27.375  0.00  0.00    +0.177 C 
ATOM     30  C   UNL     1       6.707  -5.399  27.052  0.00  0.00    +0.179 C 
ATOM     31  C   UNL     1       7.023  -5.555  25.573  0.00  0.00    +0.201 C 
ATOM     32  C   UNL     1       5.882  -4.979  24.700  0.00  0.00    +0.282 C 
ATOM     33  O   UNL     1       4.725  -5.765  24.977  0.00  0.00    -0.341 OA
BRANCH  29  34
ATOM     34  O   UNL     1       4.921  -5.665  28.691  0.00  0.00    -0.386 OA
ATOM     35  H   UNL     1       5.443  -4.892  28.968  0.00  0.00    +0.210 HD
ENDBRANCH  29  34
BRANCH  30  36
ATOM     36  O   UNL     1       7.758  -5.990  27.824  0.00  0.00    -0.386 OA
ATOM     37  H   UNL     1       8.288  -5.247  28.175  0.00  0.00    +0.210 HD
ENDBRANCH  30  36
BRANCH  31  38
ATOM     38  O   UNL     1       8.324  -5.035  25.285  0.00  0.00    -0.384 OA
ATOM     39  H   UNL     1       8.936  -5.783  25.185  0.00  0.00    +0.210 HD
ENDBRANCH  31  38
BRANCH  28  40
ATOM     40  C   UNL     1       2.888  -6.071  26.584  0.00  0.00    +0.190 C 
BRANCH  40  41
ATOM     41  O   UNL     1       2.842  -7.285  27.314  0.00  0.00    -0.392 OA
ATOM     42  H   UNL     1       1.938  -7.630  27.200  0.00  0.00    +0.210 HD
ENDBRANCH  40  41
ENDBRANCH  28  40
ENDBRANCH  27  32
ENDBRANCH   1  27
TORSDOF 19
ENDMDL
MODEL 4
REMARK VINA RESULT:      -6.4      2.901      8.530
REMARK  Name = 
REMARK  19 active torsions:
REMARK  status: ('A' for Active; 'I' for Inactive)
REMARK    1  A    between atoms: O_1  and  C_2
REMARK    2  A    between atoms: C_2  and  C_3
REMARK    3  A    between atoms: C_6  and  O_8
REMARK    4  A    between atoms: O_8  and  C_9
REMARK    5  A    between atoms: C_11  and  O_13
REMARK    6  A    between atoms: C_14  and  O_16
REMARK    7  A    between atoms: C_17  and  O_19
REMARK    8  A    between atoms: O_19  and  C_20
REMARK    9  A    between atoms: C_20  and  C_21
REMARK   10  A    between atoms: C_21  and  C_22
REMARK   11  A    between atoms: C_22  and  C_23
REMARK   12  A    between atoms: C_23  and  C_24
REMARK   13  A    between atoms: C_24  and  C_25
REMARK   14  A    between atoms: C_25  and  C_26
REMARK   15  A    between atoms: C_33  and  C_35
REMARK   16  A    between atoms: C_35  and  O_36
REMARK   17  A    between atoms: C_37  and  O_39
REMARK   18  A    between atoms: C_40  and  O_42
REMARK   19  A    between atoms: C_43  and  O_45
REMARK                            x       y       z     vdW  Elec       q    Type
REMARK                         _______ _______ _______ _____ _____    ______ ____
ROOT
ATOM      1  C   UNL     1       9.280   1.461  23.665  0.00  0.00    +0.183 C 
ATOM      2  C   UNL     1       9.151   0.101  22.911  0.00  0.00    +0.178 C 
ATOM      3  O   UNL     1       7.941  -0.583  23.272  0.00  0.00    -0.341 OA
ATOM      4  C   UNL     1       7.875  -0.940  24.672  0.00  0.00    +0.282 C 
ATOM      5  C   UNL     1       7.982   0.283  25.603  0.00  0.00    +0.201 C 
ATOM      6  C   UNL     1       9.193   1.150  25.184  0.00  0.00    +0.179 C 
ENDROOT
BRANCH   6   7
ATOM      7  O   UNL     1      10.404   0.444  25.560  0.00  0.00    -0.386 OA
ATOM      8  H   UNL     1      10.260  -0.008  26.425  0.00  0.00    +0.210 HD
ENDBRANCH   6   7
BRANCH   5   9
ATOM      9  O   UNL     1       6.722   0.942  25.718  0.00  0.00    -0.384 OA
ATOM     10  H   UNL     1       6.217   0.785  24.893  0.00  0.00    +0.210 HD
ENDBRANCH   5   9
BRANCH   4  11
ATOM     11  O   UNL     1       8.885  -1.899  24.988  0.00  0.00    -0.349 OA
BRANCH  11  12
ATOM     12  C   UNL     1       8.616  -2.719  26.141  0.00  0.00    +0.163 C 
BRANCH  12  13
ATOM     13  C   UNL     1       9.007  -4.184  25.965  0.00  0.00    +0.028 C 
BRANCH  13  14
ATOM     14  C   UNL     1       7.860  -5.042  26.465  0.00  0.00    +0.002 C 
BRANCH  14  15
ATOM     15  C   UNL     1       6.715  -4.230  27.037  0.00  0.00    +0.000 C 
BRANCH  15  16
ATOM     16  C   UNL     1       5.437  -4.760  26.405  0.00  0.00    +0.000 C 
BRANCH  16  17
ATOM     17  C   UNL     1       5.709  -5.549  25.125  0.00  0.00    +0.003 C 
BRANCH  17  18
ATOM     18  C   UNL     1       5.079  -4.872  23.903  0.00  0.00    -0.011 C 
ATOM     19  C   UNL     1       4.864  -5.903  22.786  0.00  0.00    +0.003 C 
ATOM     20  C   UNL     1       6.175  -6.367  22.153  0.00  0.00    +0.000 C 
ATOM     21  C   UNL     1       7.053  -5.199  21.702  0.00  0.00    +0.000 C 
ATOM     22  C   UNL     1       7.247  -4.148  22.790  0.00  0.00    +0.000 C 
ATOM     23  C   UNL     1       5.905  -3.694  23.356  0.00  0.00    +0.003 C 
ENDBRANCH  17  18
ENDBRANCH  16  17
ENDBRANCH  15  16
ENDBRANCH  14  15
ENDBRANCH  13  14
ENDBRANCH  12  13
ENDBRANCH  11  12
ENDBRANCH   4  11
BRANCH   2  24
ATOM     24  C   UNL     1       9.346   0.156  21.384  0.00  0.00    +0.190 C 
BRANCH  24  25
ATOM     25  O   UNL     1       8.768   1.348  20.841  0.00  0.00    -0.392 OA
ATOM     26  H   UNL     1       9.337   1.615  20.093  0.00  0.00    +0.210 HD
ENDBRANCH  24  25
ENDBRANCH   2  24
BRANCH   1  27
ATOM     27  O   UNL     1       8.500   2.612  23.204  0.00  0.00    -0.340 OA
BRANCH  27  32
ATOM     28  C   UNL     1       6.047   3.827  23.780  0.00  0.00    +0.178 C 
ATOM     29  C   UNL     1       6.045   5.185  23.073  0.00  0.00    +0.177 C 
ATOM     30  C   UNL     1       7.447   5.431  22.477  0.00  0.00    +0.179 C 
ATOM     31  C   UNL     1       8.514   5.157  23.526  0.00  0.00    +0.201 C 
ATOM     32  C   UNL     1       8.373   3.725  24.097  0.00  0.00    +0.282 C 
ATOM     33  O   UNL     1       7.106   3.675  24.751  0.00  0.00    -0.341 OA
BRANCH  29  34
ATOM     34  O   UNL     1       5.066   5.167  22.021  0.00  0.00    -0.386 OA
ATOM     35  H   UNL     1       4.305   4.638  22.318  0.00  0.00    +0.210 HD
ENDBRANCH  29  34
BRANCH  30  36
ATOM     36  O   UNL     1       7.577   6.780  22.013  0.00  0.00    -0.386 OA
ATOM     37  H   UNL     1       8.473   6.847  21.625  0.00  0.00    +0.210 HD
ENDBRANCH  30  36
BRANCH  31  38
ATOM     38  O   UNL     1       9.810   5.476  23.010  0.00  0.00    -0.384 OA
ATOM     39  H   UNL     1      10.476   5.053  23.577  0.00  0.00    +0.210 HD
ENDBRANCH  31  38
BRANCH  28  40
ATOM     40  C   UNL     1       4.694   3.394  24.357  0.00  0.00    +0.190 C 
BRANCH  40  41
ATOM     41  O   UNL     1       4.446   2.008  24.193  0.00  0.00    -0.392 OA
ATOM     42  H   UNL     1       3.500   1.882  24.393  0.00  0.00    +0.210 HD
ENDBRANCH  40  41
ENDBRANCH  28  40
ENDBRANCH  27  32
ENDBRANCH   1  27
TORSDOF 19
ENDMDL
MODEL 5
REMARK VINA RESULT:      -6.2      1.838      3.411
REMARK  Name = 
REMARK  19 active torsions:
REMARK  status: ('A' for Active; 'I' for Inactive)
REMARK    1  A    between atoms: O_1  and  C_2
REMARK    2  A    between atoms: C_2  and  C_3
REMARK    3  A    between atoms: C_6  and  O_8
REMARK    4  A    between atoms: O_8  and  C_9
REMARK    5  A    between atoms: C_11  and  O_13
REMARK    6  A    between atoms: C_14  and  O_16
REMARK    7  A    between atoms: C_17  and  O_19
REMARK    8  A    between atoms: O_19  and  C_20
REMARK    9  A    between atoms: C_20  and  C_21
REMARK   10  A    between atoms: C_21  and  C_22
REMARK   11  A    between atoms: C_22  and  C_23
REMARK   12  A    between atoms: C_23  and  C_24
REMARK   13  A    between atoms: C_24  and  C_25
REMARK   14  A    between atoms: C_25  and  C_26
REMARK   15  A    between atoms: C_33  and  C_35
REMARK   16  A    between atoms: C_35  and  O_36
REMARK   17  A    between atoms: C_37  and  O_39
REMARK   18  A    between atoms: C_40  and  O_42
REMARK   19  A    between atoms: C_43  and  O_45
REMARK                            x       y       z     vdW  Elec       q    Type
REMARK                         _______ _______ _______ _____ _____    ______ ____
ROOT
ATOM      1  C   UNL     1       7.665  -2.164  25.365  0.00  0.00    +0.183 C 
ATOM      2  C   UNL     1       7.029  -0.749  25.200  0.00  0.00    +0.178 C 
ATOM      3  O   UNL     1       6.448  -0.588  23.896  0.00  0.00    -0.341 OA
ATOM      4  C   UNL     1       7.410  -0.679  22.819  0.00  0.00    +0.282 C 
ATOM      5  C   UNL     1       8.157  -2.027  22.803  0.00  0.00    +0.201 C 
ATOM      6  C   UNL     1       8.698  -2.337  24.219  0.00  0.00    +0.179 C 
ENDROOT
BRANCH   6   7
ATOM      7  O   UNL     1       9.807  -1.440  24.485  0.00  0.00    -0.386 OA
ATOM      8  H   UNL     1      10.015  -0.931  23.666  0.00  0.00    +0.210 HD
ENDBRANCH   6   7
BRANCH   5   9
ATOM      9  O   UNL     1       7.368  -3.034  22.175  0.00  0.00    -0.384 OA
ATOM     10  H   UNL     1       7.881  -3.404  21.426  0.00  0.00    +0.210 HD
ENDBRANCH   5   9
BRANCH   4  11
ATOM     11  O   UNL     1       8.337   0.406  22.888  0.00  0.00    -0.349 OA
BRANCH  11  12
ATOM     12  C   UNL     1       9.177   0.572  21.729  0.00  0.00    +0.163 C 
BRANCH  12  13
ATOM     13  C   UNL     1      10.195   1.701  21.859  0.00  0.00    +0.028 C 
BRANCH  13  14
ATOM     14  C   UNL     1      10.100   2.262  23.266  0.00  0.00    +0.002 C 
BRANCH  14  15
ATOM     15  C   UNL     1      10.919   3.522  23.462  0.00  0.00    +0.000 C 
BRANCH  15  16
ATOM     16  C   UNL     1       9.968   4.593  23.972  0.00  0.00    +0.000 C 
BRANCH  16  17
ATOM     17  C   UNL     1       8.677   4.002  24.536  0.00  0.00    +0.003 C 
BRANCH  17  18
ATOM     18  C   UNL     1       7.452   4.815  24.108  0.00  0.00    -0.011 C 
ATOM     19  C   UNL     1       6.184   4.225  24.742  0.00  0.00    +0.003 C 
ATOM     20  C   UNL     1       5.798   2.876  24.137  0.00  0.00    +0.000 C 
ATOM     21  C   UNL     1       5.716   2.919  22.612  0.00  0.00    +0.000 C 
ATOM     22  C   UNL     1       6.954   3.536  21.968  0.00  0.00    +0.000 C 
ATOM     23  C   UNL     1       7.268   4.897  22.581  0.00  0.00    +0.003 C 
ENDBRANCH  17  18
ENDBRANCH  16  17
ENDBRANCH  15  16
ENDBRANCH  14  15
ENDBRANCH  13  14
ENDBRANCH  12  13
ENDBRANCH  11  12
ENDBRANCH   4  11
BRANCH   2  24
ATOM     24  C   UNL     1       6.065  -0.307  26.316  0.00  0.00    +0.190 C 
BRANCH  24  25
ATOM     25  O   UNL     1       6.775  -0.078  27.538  0.00  0.00    -0.392 OA
ATOM     26  H   UNL     1       7.620   0.347  27.292  0.00  0.00    +0.210 HD
ENDBRANCH  24  25
ENDBRANCH   2  24
BRANCH   1  27
ATOM     27  O   UNL     1       6.794  -3.315  25.619  0.00  0.00    -0.340 OA
BRANCH  27  32
ATOM     28  C   UNL     1       5.241  -5.241  24.314  0.00  0.00    +0.178 C 
ATOM     29  C   UNL     1       4.914  -6.324  25.346  0.00  0.00    +0.177 C 
ATOM     30  C   UNL     1       5.708  -6.030  26.636  0.00  0.00    +0.179 C 
ATOM     31  C   UNL     1       7.167  -5.760  26.299  0.00  0.00    +0.201 C 
ATOM     32  C   UNL     1       7.293  -4.612  25.269  0.00  0.00    +0.282 C 
ATOM     33  O   UNL     1       6.656  -5.067  24.077  0.00  0.00    -0.341 OA
BRANCH  29  34
ATOM     34  O   UNL     1       3.505  -6.298  25.626  0.00  0.00    -0.386 OA
ATOM     35  H   UNL     1       3.216  -5.370  25.663  0.00  0.00    +0.210 HD
ENDBRANCH  29  34
BRANCH  30  36
ATOM     36  O   UNL     1       5.631  -7.131  27.548  0.00  0.00    -0.386 OA
ATOM     37  H   UNL     1       6.548  -7.304  27.843  0.00  0.00    +0.210 HD
ENDBRANCH  30  36
BRANCH  31  38
ATOM     38  O   UNL     1       7.927  -5.582  27.497  0.00  0.00    -0.384 OA
ATOM     39  H   UNL     1       8.718  -5.059  27.282  0.00  0.00    +0.210 HD
ENDBRANCH  31  38
BRANCH  28  40
ATOM     40  C   UNL     1       4.463  -5.344  22.997  0.00  0.00    +0.190 C 
BRANCH  40  41
ATOM     41  O   UNL     1       5.280  -5.129  21.859  0.00  0.00    -0.392 OA
ATOM     42  H   UNL     1       5.866  -5.907  21.802  0.00  0.00    +0.210 HD
ENDBRANCH  40  41
ENDBRANCH  28  40
ENDBRANCH  27  32
ENDBRANCH   1  27
TORSDOF 19
ENDMDL
MODEL 6
REMARK VINA RESULT:      -6.2      1.936      3.107
REMARK  Name = 
REMARK  19 active torsions:
REMARK  status: ('A' for Active; 'I' for Inactive)
REMARK    1  A    between atoms: O_1  and  C_2
REMARK    2  A    between atoms: C_2  and  C_3
REMARK    3  A    between atoms: C_6  and  O_8
REMARK    4  A    between atoms: O_8  and  C_9
REMARK    5  A    between atoms: C_11  and  O_13
REMARK    6  A    between atoms: C_14  and  O_16
REMARK    7  A    between atoms: C_17  and  O_19
REMARK    8  A    between atoms: O_19  and  C_20
REMARK    9  A    between atoms: C_20  and  C_21
REMARK   10  A    between atoms: C_21  and  C_22
REMARK   11  A    between atoms: C_22  and  C_23
REMARK   12  A    between atoms: C_23  and  C_24
REMARK   13  A    between atoms: C_24  and  C_25
REMARK   14  A    between atoms: C_25  and  C_26
REMARK   15  A    between atoms: C_33  and  C_35
REMARK   16  A    between atoms: C_35  and  O_36
REMARK   17  A    between atoms: C_37  and  O_39
REMARK   18  A    between atoms: C_40  and  O_42
REMARK   19  A    between atoms: C_43  and  O_45
REMARK                            x       y       z     vdW  Elec       q    Type
REMARK                         _______ _______ _______ _____ _____    ______ ____
ROOT
ATOM      1  C   UNL     1       6.282  -2.650  25.283  0.00  0.00    +0.183 C 
ATOM      2  C   UNL     1       6.761  -2.584  23.800  0.00  0.00    +0.178 C 
ATOM      3  O   UNL     1       7.991  -3.303  23.617  0.00  0.00    -0.341 OA
ATOM      4  C   UNL     1       9.096  -2.759  24.376  0.00  0.00    +0.282 C 
ATOM      5  C   UNL     1       8.822  -2.739  25.892  0.00  0.00    +0.201 C 
ATOM      6  C   UNL     1       7.439  -2.098  26.161  0.00  0.00    +0.179 C 
ENDROOT
BRANCH   6   7
ATOM      7  O   UNL     1       7.545  -0.673  25.906  0.00  0.00    -0.386 OA
ATOM      8  H   UNL     1       8.248  -0.293  26.485  0.00  0.00    +0.210 HD
ENDBRANCH   6   7
BRANCH   5   9
ATOM      9  O   UNL     1       9.065  -4.020  26.467  0.00  0.00    -0.384 OA
ATOM     10  H   UNL     1       8.523  -4.101  27.280  0.00  0.00    +0.210 HD
ENDBRANCH   5   9
BRANCH   4  11
ATOM     11  O   UNL     1       9.423  -1.450  23.908  0.00  0.00    -0.349 OA
BRANCH  11  12
ATOM     12  C   UNL     1      10.192  -1.405  22.691  0.00  0.00    +0.163 C 
BRANCH  12  13
ATOM     13  C   UNL     1       9.518  -0.634  21.561  0.00  0.00    +0.028 C 
BRANCH  13  14
ATOM     14  C   UNL     1       8.455   0.262  22.170  0.00  0.00    +0.002 C 
BRANCH  14  15
ATOM     15  C   UNL     1       8.412   1.644  21.548  0.00  0.00    +0.000 C 
BRANCH  15  16
ATOM     16  C   UNL     1       7.217   2.364  22.153  0.00  0.00    +0.000 C 
BRANCH  16  17
ATOM     17  C   UNL     1       7.456   3.866  22.295  0.00  0.00    +0.003 C 
BRANCH  17  18
ATOM     18  C   UNL     1       7.647   4.269  23.761  0.00  0.00    -0.011 C 
ATOM     19  C   UNL     1       7.669   5.799  23.885  0.00  0.00    +0.003 C 
ATOM     20  C   UNL     1       8.938   6.419  23.300  0.00  0.00    +0.000 C 
ATOM     21  C   UNL     1      10.211   5.775  23.849  0.00  0.00    +0.000 C 
ATOM     22  C   UNL     1      10.190   4.252  23.764  0.00  0.00    +0.000 C 
ATOM     23  C   UNL     1       8.923   3.687  24.399  0.00  0.00    +0.003 C 
ENDBRANCH  17  18
ENDBRANCH  16  17
ENDBRANCH  15  16
ENDBRANCH  14  15
ENDBRANCH  13  14
ENDBRANCH  12  13
ENDBRANCH  11  12
ENDBRANCH   4  11
BRANCH   2  24
ATOM     24  C   UNL     1       5.713  -2.960  22.736  0.00  0.00    +0.190 C 
BRANCH  24  25
ATOM     25  O   UNL     1       6.056  -4.196  22.100  0.00  0.00    -0.392 OA
ATOM     26  H   UNL     1       5.375  -4.355  21.418  0.00  0.00    +0.210 HD
ENDBRANCH  24  25
ENDBRANCH   2  24
BRANCH   1  27
ATOM     27  O   UNL     1       5.635  -3.869  25.773  0.00  0.00    -0.340 OA
BRANCH  27  32
ATOM     28  C   UNL     1       4.312  -6.181  24.917  0.00  0.00    +0.178 C 
ATOM     29  C   UNL     1       4.262  -7.135  26.114  0.00  0.00    +0.177 C 
ATOM     30  C   UNL     1       5.108  -6.535  27.257  0.00  0.00    +0.179 C 
ATOM     31  C   UNL     1       6.466  -6.101  26.727  0.00  0.00    +0.201 C 
ATOM     32  C   UNL     1       6.308  -5.113  25.545  0.00  0.00    +0.282 C 
ATOM     33  O   UNL     1       5.651  -5.832  24.503  0.00  0.00    -0.341 OA
BRANCH  29  34
ATOM     34  O   UNL     1       2.898  -7.280  26.544  0.00  0.00    -0.386 OA
ATOM     35  H   UNL     1       2.348  -6.655  26.040  0.00  0.00    +0.210 HD
ENDBRANCH  29  34
BRANCH  30  36
ATOM     36  O   UNL     1       5.295  -7.486  28.311  0.00  0.00    -0.386 OA
ATOM     37  H   UNL     1       4.520  -7.394  28.900  0.00  0.00    +0.210 HD
ENDBRANCH  30  36
BRANCH  31  38
ATOM     38  O   UNL     1       7.290  -5.633  27.798  0.00  0.00    -0.384 OA
ATOM     39  H   UNL     1       7.073  -6.144  28.596  0.00  0.00    +0.210 HD
ENDBRANCH  31  38
BRANCH  28  40
ATOM     40  C   UNL     1       3.447  -6.595  23.721  0.00  0.00    +0.190 C 
BRANCH  40  41
ATOM     41  O   UNL     1       3.091  -7.967  23.750  0.00  0.00    -0.392 OA
ATOM     42  H   UNL     1       3.248  -8.263  24.666  0.00  0.00    +0.210 HD
ENDBRANCH  40  41
ENDBRANCH  28  40
ENDBRANCH  27  32
ENDBRANCH   1  27
TORSDOF 19
ENDMDL
MODEL 7
REMARK VINA RESULT:      -6.2      2.537      8.559
REMARK  Name = 
REMARK  19 active torsions:
REMARK  status: ('A' for Active; 'I' for Inactive)
REMARK    1  A    between atoms: O_1  and  C_2
REMARK    2  A    between atoms: C_2  and  C_3
REMARK    3  A    between atoms: C_6  and  O_8
REMARK    4  A    between atoms: O_8  and  C_9
REMARK    5  A    between atoms: C_11  and  O_13
REMARK    6  A    between atoms: C_14  and  O_16
REMARK    7  A    between atoms: C_17  and  O_19
REMARK    8  A    between atoms: O_19  and  C_20
REMARK    9  A    between atoms: C_20  and  C_21
REMARK   10  A    between atoms: C_21  and  C_22
REMARK   11  A    between atoms: C_22  and  C_23
REMARK   12  A    between atoms: C_23  and  C_24
REMARK   13  A    between atoms: C_24  and  C_25
REMARK   14  A    between atoms: C_25  and  C_26
REMARK   15  A    between atoms: C_33  and  C_35
REMARK   16  A    between atoms: C_35  and  O_36
REMARK   17  A    between atoms: C_37  and  O_39
REMARK   18  A    between atoms: C_40  and  O_42
REMARK   19  A    between atoms: C_43  and  O_45
REMARK                            x       y       z     vdW  Elec       q    Type
REMARK                         _______ _______ _______ _____ _____    ______ ____
ROOT
ATOM      1  C   UNL     1       7.698  -0.220  23.100  0.00  0.00    +0.183 C 
ATOM      2  C   UNL     1       7.440  -1.282  24.213  0.00  0.00    +0.178 C 
ATOM      3  O   UNL     1       8.586  -1.433  25.066  0.00  0.00    -0.341 OA
ATOM      4  C   UNL     1       9.761  -1.915  24.374  0.00  0.00    +0.282 C 
ATOM      5  C   UNL     1      10.193  -0.988  23.220  0.00  0.00    +0.201 C 
ATOM      6  C   UNL     1       8.970  -0.667  22.328  0.00  0.00    +0.179 C 
ENDROOT
BRANCH   6   7
ATOM      7  O   UNL     1       8.632  -1.862  21.577  0.00  0.00    -0.386 OA
ATOM      8  H   UNL     1       8.527  -1.627  20.625  0.00  0.00    +0.210 HD
ENDBRANCH   6   7
BRANCH   5   9
ATOM      9  O   UNL     1      10.944   0.118  23.713  0.00  0.00    -0.384 OA
ATOM     10  H   UNL     1      11.376   0.560  22.953  0.00  0.00    +0.210 HD
ENDBRANCH   5   9
BRANCH   4  11
ATOM     11  O   UNL     1       9.547  -3.244  23.896  0.00  0.00    -0.349 OA
BRANCH  11  12
ATOM     12  C   UNL     1       9.378  -4.245  24.918  0.00  0.00    +0.163 C 
BRANCH  12  13
ATOM     13  C   UNL     1       8.308  -5.284  24.595  0.00  0.00    +0.028 C 
BRANCH  13  14
ATOM     14  C   UNL     1       7.566  -4.826  23.353  0.00  0.00    +0.002 C 
BRANCH  14  15
ATOM     15  C   UNL     1       7.498  -5.889  22.274  0.00  0.00    +0.000 C 
BRANCH  15  16
ATOM     16  C   UNL     1       6.079  -5.873  21.727  0.00  0.00    +0.000 C 
BRANCH  16  17
ATOM     17  C   UNL     1       5.123  -5.080  22.617  0.00  0.00    +0.003 C 
BRANCH  17  18
ATOM     18  C   UNL     1       3.987  -5.962  23.145  0.00  0.00    -0.011 C 
ATOM     19  C   UNL     1       2.802  -5.086  23.576  0.00  0.00    +0.003 C 
ATOM     20  C   UNL     1       3.093  -4.285  24.845  0.00  0.00    +0.000 C 
ATOM     21  C   UNL     1       3.609  -5.161  25.985  0.00  0.00    +0.000 C 
ATOM     22  C   UNL     1       4.765  -6.063  25.564  0.00  0.00    +0.000 C 
ATOM     23  C   UNL     1       4.404  -6.868  24.319  0.00  0.00    +0.003 C 
ENDBRANCH  17  18
ENDBRANCH  16  17
ENDBRANCH  15  16
ENDBRANCH  14  15
ENDBRANCH  13  14
ENDBRANCH  12  13
ENDBRANCH  11  12
ENDBRANCH   4  11
BRANCH   2  24
ATOM     24  C   UNL     1       6.141  -1.110  25.022  0.00  0.00    +0.190 C 
BRANCH  24  25
ATOM     25  O   UNL     1       5.362  -0.025  24.505  0.00  0.00    -0.392 OA
ATOM     26  H   UNL     1       4.590   0.068  25.096  0.00  0.00    +0.210 HD
ENDBRANCH  24  25
ENDBRANCH   2  24
BRANCH   1  27
ATOM     27  O   UNL     1       7.625   1.204  23.438  0.00  0.00    -0.340 OA
BRANCH  27  32
ATOM     28  C   UNL     1       9.418   3.351  23.390  0.00  0.00    +0.178 C 
ATOM     29  C   UNL     1       8.598   4.621  23.634  0.00  0.00    +0.177 C 
ATOM     30  C   UNL     1       7.101   4.249  23.630  0.00  0.00    +0.179 C 
ATOM     31  C   UNL     1       6.779   3.398  22.412  0.00  0.00    +0.201 C 
ATOM     32  C   UNL     1       7.685   2.144  22.358  0.00  0.00    +0.282 C 
ATOM     33  O   UNL     1       9.022   2.619  22.208  0.00  0.00    -0.341 OA
BRANCH  29  34
ATOM     34  O   UNL     1       8.958   5.175  24.910  0.00  0.00    -0.386 OA
ATOM     35  H   UNL     1       8.434   5.982  25.055  0.00  0.00    +0.210 HD
ENDBRANCH  29  34
BRANCH  30  36
ATOM     36  O   UNL     1       6.280   5.423  23.616  0.00  0.00    -0.386 OA
ATOM     37  H   UNL     1       5.460   5.174  23.144  0.00  0.00    +0.210 HD
ENDBRANCH  30  36
BRANCH  31  38
ATOM     38  O   UNL     1       5.375   3.130  22.351  0.00  0.00    -0.384 OA
ATOM     39  H   UNL     1       4.935   3.898  21.951  0.00  0.00    +0.210 HD
ENDBRANCH  31  38
BRANCH  28  40
ATOM     40  C   UNL     1      10.938   3.539  23.447  0.00  0.00    +0.190 C 
BRANCH  40  41
ATOM     41  O   UNL     1      11.346   4.836  23.048  0.00  0.00    -0.392 OA
ATOM     42  H   UNL     1      12.063   4.702  22.402  0.00  0.00    +0.210 HD
ENDBRANCH  40  41
ENDBRANCH  28  40
ENDBRANCH  27  32
ENDBRANCH   1  27
TORSDOF 19
ENDMDL
MODEL 8
REMARK VINA RESULT:      -6.2      1.879      3.849
REMARK  Name = 
REMARK  19 active torsions:
REMARK  status: ('A' for Active; 'I' for Inactive)
REMARK    1  A    between atoms: O_1  and  C_2
REMARK    2  A    between atoms: C_2  and  C_3
REMARK    3  A    between atoms: C_6  and  O_8
REMARK    4  A    between atoms: O_8  and  C_9
REMARK    5  A    between atoms: C_11  and  O_13
REMARK    6  A    between atoms: C_14  and  O_16
REMARK    7  A    between atoms: C_17  and  O_19
REMARK    8  A    between atoms: O_19  and  C_20
REMARK    9  A    between atoms: C_20  and  C_21
REMARK   10  A    between atoms: C_21  and  C_22
REMARK   11  A    between atoms: C_22  and  C_23
REMARK   12  A    between atoms: C_23  and  C_24
REMARK   13  A    between atoms: C_24  and  C_25
REMARK   14  A    between atoms: C_25  and  C_26
REMARK   15  A    between atoms: C_33  and  C_35
REMARK   16  A    between atoms: C_35  and  O_36
REMARK   17  A    between atoms: C_37  and  O_39
REMARK   18  A    between atoms: C_40  and  O_42
REMARK   19  A    between atoms: C_43  and  O_45
REMARK                            x       y       z     vdW  Elec       q    Type
REMARK                         _______ _______ _______ _____ _____    ______ ____
ROOT
ATOM      1  C   UNL     1       6.447  -4.529  24.953  0.00  0.00    +0.183 C 
ATOM      2  C   UNL     1       6.574  -3.028  24.547  0.00  0.00    +0.178 C 
ATOM      3  O   UNL     1       6.133  -2.814  23.197  0.00  0.00    -0.341 OA
ATOM      4  C   UNL     1       6.923  -3.521  22.213  0.00  0.00    +0.282 C 
ATOM      5  C   UNL     1       6.925  -5.046  22.437  0.00  0.00    +0.201 C 
ATOM      6  C   UNL     1       7.259  -5.352  23.916  0.00  0.00    +0.179 C 
ENDROOT
BRANCH   6   7
ATOM      7  O   UNL     1       8.666  -5.066  24.130  0.00  0.00    -0.386 OA
ATOM      8  H   UNL     1       8.751  -4.343  24.796  0.00  0.00    +0.210 HD
ENDBRANCH   6   7
BRANCH   5   9
ATOM      9  O   UNL     1       5.743  -5.636  21.903  0.00  0.00    -0.384 OA
ATOM     10  H   UNL     1       4.968  -5.222  22.339  0.00  0.00    +0.210 HD
ENDBRANCH   5   9
BRANCH   4  11
ATOM     11  O   UNL     1       8.259  -3.016  22.192  0.00  0.00    -0.349 OA
BRANCH  11  12
ATOM     12  C   UNL     1       8.380  -1.605  21.930  0.00  0.00    +0.163 C 
BRANCH  12  13
ATOM     13  C   UNL     1       9.821  -1.108  21.865  0.00  0.00    +0.028 C 
BRANCH  13  14
ATOM     14  C   UNL     1      10.518  -1.515  23.150  0.00  0.00    +0.002 C 
BRANCH  14  15
ATOM     15  C   UNL     1       9.891  -0.904  24.387  0.00  0.00    +0.000 C 
BRANCH  15  16
ATOM     16  C   UNL     1      10.608   0.412  24.643  0.00  0.00    +0.000 C 
BRANCH  16  17
ATOM     17  C   UNL     1       9.655   1.606  24.623  0.00  0.00    +0.003 C 
BRANCH  17  18
ATOM     18  C   UNL     1      10.092   2.656  23.596  0.00  0.00    -0.011 C 
ATOM     19  C   UNL     1       9.452   4.012  23.930  0.00  0.00    +0.003 C 
ATOM     20  C   UNL     1       7.947   4.032  23.667  0.00  0.00    +0.000 C 
ATOM     21  C   UNL     1       7.591   3.555  22.259  0.00  0.00    +0.000 C 
ATOM     22  C   UNL     1       8.247   2.226  21.899  0.00  0.00    +0.000 C 
ATOM     23  C   UNL     1       9.753   2.277  22.143  0.00  0.00    +0.003 C 
ENDBRANCH  17  18
ENDBRANCH  16  17
ENDBRANCH  15  16
ENDBRANCH  14  15
ENDBRANCH  13  14
ENDBRANCH  12  13
ENDBRANCH  11  12
ENDBRANCH   4  11
BRANCH   2  24
ATOM     24  C   UNL     1       5.952  -2.011  25.522  0.00  0.00    +0.190 C 
BRANCH  24  25
ATOM     25  O   UNL     1       4.528  -1.977  25.379  0.00  0.00    -0.392 OA
ATOM     26  H   UNL     1       4.167  -2.587  26.050  0.00  0.00    +0.210 HD
ENDBRANCH  24  25
ENDBRANCH   2  24
BRANCH   1  27
ATOM     27  O   UNL     1       5.131  -5.067  25.305  0.00  0.00    -0.340 OA
BRANCH  27  32
ATOM     28  C   UNL     1       2.791  -6.262  24.345  0.00  0.00    +0.178 C 
ATOM     29  C   UNL     1       2.064  -6.856  25.555  0.00  0.00    +0.177 C 
ATOM     30  C   UNL     1       2.980  -6.726  26.790  0.00  0.00    +0.179 C 
ATOM     31  C   UNL     1       4.376  -7.230  26.459  0.00  0.00    +0.201 C 
ATOM     32  C   UNL     1       4.955  -6.487  25.230  0.00  0.00    +0.282 C 
ATOM     33  O   UNL     1       4.110  -6.810  24.128  0.00  0.00    -0.341 OA
BRANCH  29  34
ATOM     34  O   UNL     1       0.845  -6.128  25.775  0.00  0.00    -0.386 OA
ATOM     35  H   UNL     1       0.326  -6.140  24.952  0.00  0.00    +0.210 HD
ENDBRANCH  29  34
BRANCH  30  36
ATOM     36  O   UNL     1       2.459  -7.473  27.896  0.00  0.00    -0.386 OA
ATOM     37  H   UNL     1       3.216  -7.965  28.271  0.00  0.00    +0.210 HD
ENDBRANCH  30  36
BRANCH  31  38
ATOM     38  O   UNL     1       5.203  -7.203  27.625  0.00  0.00    -0.384 OA
ATOM     39  H   UNL     1       4.900  -7.900  28.231  0.00  0.00    +0.210 HD
ENDBRANCH  31  38
BRANCH  28  40
ATOM     40  C   UNL     1       1.976  -6.238  23.047  0.00  0.00    +0.190 C 
BRANCH  40  41
ATOM     41  O   UNL     1       2.136  -7.417  22.276  0.00  0.00    -0.392 OA
ATOM     42  H   UNL     1       1.568  -8.089  22.697  0.00  0.00    +0.210 HD
ENDBRANCH  40  41
ENDBRANCH  28  40
ENDBRANCH  27  32
ENDBRANCH   1  27
TORSDOF 19
ENDMDL
MODEL 9
REMARK VINA RESULT:      -6.1      2.127      4.410
REMARK  Name = 
REMARK  19 active torsions:
REMARK  status: ('A' for Active; 'I' for Inactive)
REMARK    1  A    between atoms: O_1  and  C_2
REMARK    2  A    between atoms: C_2  and  C_3
REMARK    3  A    between atoms: C_6  and  O_8
REMARK    4  A    between atoms: O_8  and  C_9
REMARK    5  A    between atoms: C_11  and  O_13
REMARK    6  A    between atoms: C_14  and  O_16
REMARK    7  A    between atoms: C_17  and  O_19
REMARK    8  A    between atoms: O_19  and  C_20
REMARK    9  A    between atoms: C_20  and  C_21
REMARK   10  A    between atoms: C_21  and  C_22
REMARK   11  A    between atoms: C_22  and  C_23
REMARK   12  A    between atoms: C_23  and  C_24
REMARK   13  A    between atoms: C_24  and  C_25
REMARK   14  A    between atoms: C_25  and  C_26
REMARK   15  A    between atoms: C_33  and  C_35
REMARK   16  A    between atoms: C_35  and  O_36
REMARK   17  A    between atoms: C_37  and  O_39
REMARK   18  A    between atoms: C_40  and  O_42
REMARK   19  A    between atoms: C_43  and  O_45
REMARK                            x       y       z     vdW  Elec       q    Type
REMARK                         _______ _______ _______ _____ _____    ______ ____
ROOT
ATOM      1  C   UNL     1       6.024  -2.204  26.386  0.00  0.00    +0.183 C 
ATOM      2  C   UNL     1       4.968  -1.276  27.062  0.00  0.00    +0.178 C 
ATOM      3  O   UNL     1       4.373  -0.381  26.108  0.00  0.00    -0.341 OA
ATOM      4  C   UNL     1       5.319   0.531  25.503  0.00  0.00    +0.282 C 
ATOM      5  C   UNL     1       6.460  -0.199  24.768  0.00  0.00    +0.201 C 
ATOM      6  C   UNL     1       7.064  -1.282  25.692  0.00  0.00    +0.179 C 
ENDROOT
BRANCH   6   7
ATOM      7  O   UNL     1       7.824  -0.614  26.734  0.00  0.00    -0.386 OA
ATOM      8  H   UNL     1       7.981   0.323  26.468  0.00  0.00    +0.210 HD
ENDBRANCH   6   7
BRANCH   5   9
ATOM      9  O   UNL     1       6.041  -0.615  23.470  0.00  0.00    -0.384 OA
ATOM     10  H   UNL     1       5.410  -1.357  23.574  0.00  0.00    +0.210 HD
ENDBRANCH   5   9
BRANCH   4  11
ATOM     11  O   UNL     1       5.846   1.423  26.486  0.00  0.00    -0.349 OA
BRANCH  11  12
ATOM     12  C   UNL     1       6.031   2.782  26.046  0.00  0.00    +0.163 C 
BRANCH  12  13
ATOM     13  C   UNL     1       7.490   3.228  26.009  0.00  0.00    +0.028 C 
BRANCH  13  14
ATOM     14  C   UNL     1       7.726   3.963  24.703  0.00  0.00    +0.002 C 
BRANCH  14  15
ATOM     15  C   UNL     1       6.855   3.457  23.569  0.00  0.00    +0.000 C 
BRANCH  15  16
ATOM     16  C   UNL     1       7.759   3.293  22.357  0.00  0.00    +0.000 C 
BRANCH  16  17
ATOM     17  C   UNL     1       8.049   1.826  22.044  0.00  0.00    +0.003 C 
BRANCH  17  18
ATOM     18  C   UNL     1       9.551   1.572  21.883  0.00  0.00    -0.011 C 
ATOM     19  C   UNL     1       9.801   0.088  21.579  0.00  0.00    +0.003 C 
ATOM     20  C   UNL     1       9.535  -0.812  22.785  0.00  0.00    +0.000 C 
ATOM     21  C   UNL     1      10.274  -0.345  24.039  0.00  0.00    +0.000 C 
ATOM     22  C   UNL     1      10.063   1.137  24.335  0.00  0.00    +0.000 C 
ATOM     23  C   UNL     1      10.383   1.989  23.110  0.00  0.00    +0.003 C 
ENDBRANCH  17  18
ENDBRANCH  16  17
ENDBRANCH  15  16
ENDBRANCH  14  15
ENDBRANCH  13  14
ENDBRANCH  12  13
ENDBRANCH  11  12
ENDBRANCH   4  11
BRANCH   2  24
ATOM     24  C   UNL     1       3.907  -1.980  27.927  0.00  0.00    +0.190 C 
BRANCH  24  25
ATOM     25  O   UNL     1       4.108  -3.398  27.923  0.00  0.00    -0.392 OA
ATOM     26  H   UNL     1       3.575  -3.751  27.184  0.00  0.00    +0.210 HD
ENDBRANCH  24  25
ENDBRANCH   2  24
BRANCH   1  27
ATOM     27  O   UNL     1       5.568  -3.354  25.601  0.00  0.00    -0.340 OA
BRANCH  27  32
ATOM     28  C   UNL     1       6.094  -4.706  23.209  0.00  0.00    +0.178 C 
ATOM     29  C   UNL     1       5.364  -6.050  23.287  0.00  0.00    +0.177 C 
ATOM     30  C   UNL     1       4.782  -6.212  24.707  0.00  0.00    +0.179 C 
ATOM     31  C   UNL     1       5.848  -5.900  25.746  0.00  0.00    +0.201 C 
ATOM     32  C   UNL     1       6.442  -4.488  25.523  0.00  0.00    +0.282 C 
ATOM     33  O   UNL     1       7.080  -4.516  24.248  0.00  0.00    -0.341 OA
BRANCH  29  34
ATOM     34  O   UNL     1       4.301  -6.065  22.321  0.00  0.00    -0.386 OA
ATOM     35  H   UNL     1       4.591  -6.585  21.551  0.00  0.00    +0.210 HD
ENDBRANCH  29  34
BRANCH  30  36
ATOM     36  O   UNL     1       4.297  -7.544  24.914  0.00  0.00    -0.386 OA
ATOM     37  H   UNL     1       4.953  -8.138  24.498  0.00  0.00    +0.210 HD
ENDBRANCH  30  36
BRANCH  31  38
ATOM     38  O   UNL     1       5.344  -6.141  27.062  0.00  0.00    -0.384 OA
ATOM     39  H   UNL     1       4.379  -6.246  27.005  0.00  0.00    +0.210 HD
ENDBRANCH  31  38
BRANCH  28  40
ATOM     40  C   UNL     1       6.661  -4.355  21.829  0.00  0.00    +0.190 C 
BRANCH  40  41
ATOM     41  O   UNL     1       5.682  -3.824  20.952  0.00  0.00    -0.392 OA
ATOM     42  H   UNL     1       4.965  -4.484  20.924  0.00  0.00    +0.210 HD
ENDBRANCH  40  41
ENDBRANCH  28  40
ENDBRANCH  27  32
ENDBRANCH   1  27
TORSDOF 19
ENDMDL
