MODEL 1
REMARK VINA RESULT:      -6.7      0.000      0.000
REMARK  Name = 
REMARK  1 active torsions:
REMARK  status: ('A' for Active; 'I' for Inactive)
REMARK    1  A    between atoms: C_14  and  C_15
REMARK                            x       y       z     vdW  Elec       q    Type
REMARK                         _______ _______ _______ _____ _____    ______ ____
ROOT
ATOM      1 CL   UNL     1       6.131  -5.821  20.248  0.00  0.00    -0.084 Cl
ATOM      2  C   UNL     1       5.790  -5.376  21.880  0.00  0.00    +0.041 A 
ATOM      3  C   UNL     1       4.708  -5.911  22.540  0.00  0.00    +0.022 A 
ATOM      4  C   UNL     1       4.551  -5.645  23.897  0.00  0.00    +0.025 A 
ATOM      5  C   UNL     1       5.518  -4.923  24.646  0.00  0.00    +0.041 A 
ATOM      6  N   UNL     1       5.338  -5.018  26.027  0.00  0.00    -0.284 N 
ATOM      7  H   UNL     1       4.579  -5.620  26.332  0.00  0.00    +0.155 HD
ATOM      8  C   UNL     1       6.090  -4.671  27.082  0.00  0.00    +0.231 C 
ATOM      9  C   UNL     1       7.123  -3.572  27.060  0.00  0.00    +0.184 C 
ATOM     10  N   UNL     1       8.125  -3.551  26.024  0.00  0.00    -0.256 NA
ATOM     11  C   UNL     1       7.871  -3.787  24.602  0.00  0.00    +0.179 C 
ATOM     12  O   UNL     1       8.766  -4.917  24.265  0.00  0.00    -0.349 OA
ATOM     13  C   UNL     1       9.169  -5.482  25.517  0.00  0.00    +0.178 C 
ATOM     14  C   UNL     1       9.370  -4.238  26.323  0.00  0.00    +0.116 C 
ATOM     15  O   UNL     1       5.809  -5.209  28.159  0.00  0.00    -0.274 OA
ATOM     16  C   UNL     1       6.606  -4.351  23.992  0.00  0.00    +0.026 A 
ATOM     17  C   UNL     1       6.675  -4.572  22.573  0.00  0.00    +0.030 A 
ENDROOT
BRANCH  11  18
ATOM     18  C   UNL     1       8.357  -2.492  23.902  0.00  0.00    +0.022 A 
ATOM     19  C   UNL     1       7.624  -1.285  23.961  0.00  0.00    +0.049 A 
ATOM     20 CL   UNL     1       5.997  -1.194  24.531  0.00  0.00    -0.083 Cl
ATOM     21  C   UNL     1       8.207  -0.077  23.553  0.00  0.00    +0.020 A 
ATOM     22  C   UNL     1       9.494  -0.057  23.026  0.00  0.00    +0.001 A 
ATOM     23  C   UNL     1      10.196  -1.246  22.865  0.00  0.00    +0.000 A 
ATOM     24  C   UNL     1       9.633  -2.451  23.300  0.00  0.00    +0.009 A 
ENDBRANCH  11  18
TORSDOF 1
ENDMDL
MODEL 2
REMARK VINA RESULT:      -6.3      1.738      1.867
REMARK  Name = 
REMARK  1 active torsions:
REMARK  status: ('A' for Active; 'I' for Inactive)
REMARK    1  A    between atoms: C_14  and  C_15
REMARK                            x       y       z     vdW  Elec       q    Type
REMARK                         _______ _______ _______ _____ _____    ______ ____
ROOT
ATOM      1 CL   UNL     1       6.196  -5.899  21.149  0.00  0.00    -0.084 Cl
ATOM      2  C   UNL     1       5.664  -4.774  22.343  0.00  0.00    +0.041 A 
ATOM      3  C   UNL     1       4.432  -4.917  22.940  0.00  0.00    +0.022 A 
ATOM      4  C   UNL     1       4.100  -4.080  24.001  0.00  0.00    +0.025 A 
ATOM      5  C   UNL     1       5.021  -3.151  24.553  0.00  0.00    +0.041 A 
ATOM      6  N   UNL     1       4.617  -2.627  25.782  0.00  0.00    -0.284 N 
ATOM      7  H   UNL     1       3.748  -3.000  26.156  0.00  0.00    +0.155 HD
ATOM      8  C   UNL     1       5.232  -1.892  26.719  0.00  0.00    +0.231 C 
ATOM      9  C   UNL     1       6.386  -0.962  26.442  0.00  0.00    +0.184 C 
ATOM     10  N   UNL     1       7.533  -1.440  25.712  0.00  0.00    -0.256 NA
ATOM     11  C   UNL     1       7.477  -2.259  24.500  0.00  0.00    +0.179 C 
ATOM     12  O   UNL     1       8.263  -3.464  24.849  0.00  0.00    -0.349 OA
ATOM     13  C   UNL     1       8.390  -3.446  26.275  0.00  0.00    +0.178 C 
ATOM     14  C   UNL     1       8.618  -1.987  26.508  0.00  0.00    +0.116 C 
ATOM     15  O   UNL     1       4.720  -1.893  27.845  0.00  0.00    -0.274 OA
ATOM     16  C   UNL     1       6.262  -2.971  23.947  0.00  0.00    +0.026 A 
ATOM     17  C   UNL     1       6.523  -3.791  22.795  0.00  0.00    +0.030 A 
ENDROOT
BRANCH  11  18
ATOM     18  C   UNL     1       8.227  -1.421  23.432  0.00  0.00    +0.022 A 
ATOM     19  C   UNL     1       7.790  -0.135  23.042  0.00  0.00    +0.049 A 
ATOM     20 CL   UNL     1       6.241   0.504  23.459  0.00  0.00    -0.083 Cl
ATOM     21  C   UNL     1       8.622   0.700  22.284  0.00  0.00    +0.020 A 
ATOM     22  C   UNL     1       9.866   0.252  21.851  0.00  0.00    +0.001 A 
ATOM     23  C   UNL     1      10.274  -1.045  22.138  0.00  0.00    +0.000 A 
ATOM     24  C   UNL     1       9.463  -1.873  22.922  0.00  0.00    +0.009 A 
ENDBRANCH  11  18
TORSDOF 1
ENDMDL
MODEL 3
REMARK VINA RESULT:      -6.3      2.869      4.531
REMARK  Name = 
REMARK  1 active torsions:
REMARK  status: ('A' for Active; 'I' for Inactive)
REMARK    1  A    between atoms: C_14  and  C_15
REMARK                            x       y       z     vdW  Elec       q    Type
REMARK                         _______ _______ _______ _____ _____    ______ ____
ROOT
ATOM      1 CL   UNL     1       3.960   1.780  26.010  0.00  0.00    -0.084 Cl
ATOM      2  C   UNL     1       5.093   0.497  26.230  0.00  0.00    +0.041 A 
ATOM      3  C   UNL     1       4.986  -0.353  27.307  0.00  0.00    +0.022 A 
ATOM      4  C   UNL     1       5.825  -1.462  27.371  0.00  0.00    +0.025 A 
ATOM      5  C   UNL     1       6.718  -1.800  26.320  0.00  0.00    +0.041 A 
ATOM      6  N   UNL     1       7.246  -3.088  26.429  0.00  0.00    -0.284 N 
ATOM      7  H   UNL     1       6.899  -3.642  27.207  0.00  0.00    +0.155 HD
ATOM      8  C   UNL     1       7.952  -3.870  25.599  0.00  0.00    +0.231 C 
ATOM      9  C   UNL     1       8.844  -3.349  24.501  0.00  0.00    +0.184 C 
ATOM     10  N   UNL     1       8.334  -2.386  23.558  0.00  0.00    -0.256 NA
ATOM     11  C   UNL     1       7.528  -1.214  23.905  0.00  0.00    +0.179 C 
ATOM     12  O   UNL     1       6.294  -1.384  23.104  0.00  0.00    -0.349 OA
ATOM     13  C   UNL     1       6.295  -2.748  22.669  0.00  0.00    +0.178 C 
ATOM     14  C   UNL     1       7.744  -2.926  22.345  0.00  0.00    +0.116 C 
ATOM     15  O   UNL     1       7.958  -5.080  25.854  0.00  0.00    -0.274 OA
ATOM     16  C   UNL     1       6.861  -0.939  25.235  0.00  0.00    +0.026 A 
ATOM     17  C   UNL     1       6.042   0.243  25.259  0.00  0.00    +0.030 A 
ENDROOT
BRANCH  11  18
ATOM     18  C   UNL     1       8.348  -0.009  23.376  0.00  0.00    +0.022 A 
ATOM     19  C   UNL     1       9.535   0.427  24.008  0.00  0.00    +0.049 A 
ATOM     20 CL   UNL     1      10.025  -0.109  25.574  0.00  0.00    -0.083 Cl
ATOM     21  C   UNL     1      10.390   1.334  23.367  0.00  0.00    +0.020 A 
ATOM     22  C   UNL     1      10.053   1.867  22.127  0.00  0.00    +0.001 A 
ATOM     23  C   UNL     1       8.842   1.529  21.533  0.00  0.00    +0.000 A 
ATOM     24  C   UNL     1       7.999   0.599  22.152  0.00  0.00    +0.009 A 
ENDBRANCH  11  18
TORSDOF 1
ENDMDL
MODEL 4
REMARK VINA RESULT:      -6.1      2.913      4.204
REMARK  Name = 
REMARK  1 active torsions:
REMARK  status: ('A' for Active; 'I' for Inactive)
REMARK    1  A    between atoms: C_14  and  C_15
REMARK                            x       y       z     vdW  Elec       q    Type
REMARK                         _______ _______ _______ _____ _____    ______ ____
ROOT
ATOM      1 CL   UNL     1       3.045  -1.654  26.740  0.00  0.00    -0.084 Cl
ATOM      2  C   UNL     1       4.671  -2.222  26.632  0.00  0.00    +0.041 A 
ATOM      3  C   UNL     1       5.072  -3.335  27.335  0.00  0.00    +0.022 A 
ATOM      4  C   UNL     1       6.345  -3.849  27.108  0.00  0.00    +0.025 A 
ATOM      5  C   UNL     1       7.209  -3.325  26.109  0.00  0.00    +0.041 A 
ATOM      6  N   UNL     1       8.301  -4.147  25.829  0.00  0.00    -0.284 N 
ATOM      7  H   UNL     1       8.326  -5.032  26.328  0.00  0.00    +0.155 HD
ATOM      8  C   UNL     1       9.233  -4.148  24.865  0.00  0.00    +0.231 C 
ATOM      9  C   UNL     1       9.675  -2.916  24.115  0.00  0.00    +0.184 C 
ATOM     10  N   UNL     1       8.692  -2.055  23.508  0.00  0.00    -0.256 NA
ATOM     11  C   UNL     1       7.447  -1.619  24.143  0.00  0.00    +0.179 C 
ATOM     12  O   UNL     1       6.394  -2.065  23.203  0.00  0.00    -0.349 OA
ATOM     13  C   UNL     1       7.024  -3.010  22.332  0.00  0.00    +0.178 C 
ATOM     14  C   UNL     1       8.349  -2.347  22.127  0.00  0.00    +0.116 C 
ATOM     15  O   UNL     1       9.844  -5.208  24.690  0.00  0.00    -0.274 OA
ATOM     16  C   UNL     1       6.833  -2.183  25.406  0.00  0.00    +0.026 A 
ATOM     17  C   UNL     1       5.548  -1.632  25.743  0.00  0.00    +0.030 A 
ENDROOT
BRANCH  11  18
ATOM     18  C   UNL     1       7.537  -0.071  24.151  0.00  0.00    +0.022 A 
ATOM     19  C   UNL     1       8.446   0.624  24.980  0.00  0.00    +0.049 A 
ATOM     20 CL   UNL     1       9.311  -0.125  26.273  0.00  0.00    -0.083 Cl
ATOM     21  C   UNL     1       8.693   1.989  24.778  0.00  0.00    +0.020 A 
ATOM     22  C   UNL     1       8.002   2.694  23.797  0.00  0.00    +0.001 A 
ATOM     23  C   UNL     1       7.031   2.052  23.037  0.00  0.00    +0.000 A 
ATOM     24  C   UNL     1       6.802   0.683  23.212  0.00  0.00    +0.009 A 
ENDBRANCH  11  18
TORSDOF 1
ENDMDL
MODEL 5
REMARK VINA RESULT:      -6.1      3.158      5.895
REMARK  Name = 
REMARK  1 active torsions:
REMARK  status: ('A' for Active; 'I' for Inactive)
REMARK    1  A    between atoms: C_14  and  C_15
REMARK                            x       y       z     vdW  Elec       q    Type
REMARK                         _______ _______ _______ _____ _____    ______ ____
ROOT
ATOM      1 CL   UNL     1       5.139  -0.236  28.315  0.00  0.00    -0.084 Cl
ATOM      2  C   UNL     1       5.512   0.092  26.662  0.00  0.00    +0.041 A 
ATOM      3  C   UNL     1       4.944   1.167  26.017  0.00  0.00    +0.022 A 
ATOM      4  C   UNL     1       5.381   1.486  24.734  0.00  0.00    +0.025 A 
ATOM      5  C   UNL     1       6.457   0.804  24.107  0.00  0.00    +0.041 A 
ATOM      6  N   UNL     1       6.940   1.452  22.969  0.00  0.00    -0.284 N 
ATOM      7  H   UNL     1       6.505   2.345  22.752  0.00  0.00    +0.155 HD
ATOM      8  C   UNL     1       8.024   1.281  22.199  0.00  0.00    +0.231 C 
ATOM      9  C   UNL     1       8.751  -0.031  22.042  0.00  0.00    +0.184 C 
ATOM     10  N   UNL     1       9.158  -0.770  23.210  0.00  0.00    -0.256 NA
ATOM     11  C   UNL     1       8.327  -0.999  24.393  0.00  0.00    +0.179 C 
ATOM     12  O   UNL     1       9.134  -0.449  25.505  0.00  0.00    -0.349 OA
ATOM     13  C   UNL     1      10.143   0.360  24.892  0.00  0.00    +0.178 C 
ATOM     14  C   UNL     1      10.492  -0.491  23.713  0.00  0.00    +0.116 C 
ATOM     15  O   UNL     1       8.350   2.236  21.485  0.00  0.00    -0.274 OA
ATOM     16  C   UNL     1       7.027  -0.302  24.732  0.00  0.00    +0.026 A 
ATOM     17  C   UNL     1       6.478  -0.652  26.013  0.00  0.00    +0.030 A 
ENDROOT
BRANCH  11  18
ATOM     18  C   UNL     1       8.235  -2.543  24.509  0.00  0.00    +0.022 A 
ATOM     19  C   UNL     1       7.485  -3.322  23.600  0.00  0.00    +0.049 A 
ATOM     20 CL   UNL     1       6.359  -2.645  22.480  0.00  0.00    -0.083 Cl
ATOM     21  C   UNL     1       7.633  -4.715  23.565  0.00  0.00    +0.020 A 
ATOM     22  C   UNL     1       8.474  -5.359  24.468  0.00  0.00    +0.001 A 
ATOM     23  C   UNL     1       9.145  -4.621  25.436  0.00  0.00    +0.000 A 
ATOM     24  C   UNL     1       9.027  -3.227  25.456  0.00  0.00    +0.009 A 
ENDBRANCH  11  18
TORSDOF 1
ENDMDL
MODEL 6
REMARK VINA RESULT:      -6.1      2.440      4.913
REMARK  Name = 
REMARK  1 active torsions:
REMARK  status: ('A' for Active; 'I' for Inactive)
REMARK    1  A    between atoms: C_14  and  C_15
REMARK                            x       y       z     vdW  Elec       q    Type
REMARK                         _______ _______ _______ _____ _____    ______ ____
ROOT
ATOM      1 CL   UNL     1       3.194  -6.306  22.734  0.00  0.00    -0.084 Cl
ATOM      2  C   UNL     1       4.781  -5.813  23.197  0.00  0.00    +0.041 A 
ATOM      3  C   UNL     1       5.857  -6.056  22.374  0.00  0.00    +0.022 A 
ATOM      4  C   UNL     1       7.095  -5.515  22.710  0.00  0.00    +0.025 A 
ATOM      5  C   UNL     1       7.266  -4.642  23.817  0.00  0.00    +0.041 A 
ATOM      6  N   UNL     1       8.491  -3.972  23.815  0.00  0.00    -0.284 N 
ATOM      7  H   UNL     1       9.087  -4.147  23.012  0.00  0.00    +0.155 HD
ATOM      8  C   UNL     1       8.986  -2.952  24.530  0.00  0.00    +0.231 C 
ATOM      9  C   UNL     1       8.533  -2.597  25.924  0.00  0.00    +0.184 C 
ATOM     10  N   UNL     1       7.128  -2.434  26.202  0.00  0.00    -0.256 NA
ATOM     11  C   UNL     1       6.068  -3.329  25.734  0.00  0.00    +0.179 C 
ATOM     12  O   UNL     1       5.154  -2.436  24.987  0.00  0.00    -0.349 OA
ATOM     13  C   UNL     1       5.891  -1.231  24.754  0.00  0.00    +0.178 C 
ATOM     14  C   UNL     1       6.598  -1.088  26.064  0.00  0.00    +0.116 C 
ATOM     15  O   UNL     1       9.961  -2.363  24.049  0.00  0.00    -0.274 OA
ATOM     16  C   UNL     1       6.196  -4.405  24.678  0.00  0.00    +0.026 A 
ATOM     17  C   UNL     1       4.963  -5.063  24.342  0.00  0.00    +0.030 A 
ENDROOT
BRANCH  11  18
ATOM     18  C   UNL     1       5.384  -3.832  27.032  0.00  0.00    +0.022 A 
ATOM     19  C   UNL     1       5.998  -4.773  27.888  0.00  0.00    +0.049 A 
ATOM     20 CL   UNL     1       7.394  -5.687  27.444  0.00  0.00    -0.083 Cl
ATOM     21  C   UNL     1       5.487  -5.007  29.172  0.00  0.00    +0.020 A 
ATOM     22  C   UNL     1       4.331  -4.361  29.600  0.00  0.00    +0.001 A 
ATOM     23  C   UNL     1       3.655  -3.506  28.737  0.00  0.00    +0.000 A 
ATOM     24  C   UNL     1       4.178  -3.244  27.466  0.00  0.00    +0.009 A 
ENDBRANCH  11  18
TORSDOF 1
ENDMDL
MODEL 7
REMARK VINA RESULT:      -5.9      5.150      7.231
REMARK  Name = 
REMARK  1 active torsions:
REMARK  status: ('A' for Active; 'I' for Inactive)
REMARK    1  A    between atoms: C_14  and  C_15
REMARK                            x       y       z     vdW  Elec       q    Type
REMARK                         _______ _______ _______ _____ _____    ______ ____
ROOT
ATOM      1 CL   UNL     1       6.368   1.331  28.240  0.00  0.00    -0.084 Cl
ATOM      2  C   UNL     1       7.539   0.845  27.069  0.00  0.00    +0.041 A 
ATOM      3  C   UNL     1       8.140  -0.390  27.152  0.00  0.00    +0.022 A 
ATOM      4  C   UNL     1       8.966  -0.805  26.111  0.00  0.00    +0.025 A 
ATOM      5  C   UNL     1       9.133  -0.043  24.925  0.00  0.00    +0.041 A 
ATOM      6  N   UNL     1       9.745  -0.750  23.888  0.00  0.00    -0.284 N 
ATOM      7  H   UNL     1       9.954  -1.725  24.084  0.00  0.00    +0.155 HD
ATOM      8  C   UNL     1       9.925  -0.504  22.583  0.00  0.00    +0.231 C 
ATOM      9  C   UNL     1       9.985   0.878  21.983  0.00  0.00    +0.184 C 
ATOM     10  N   UNL     1       8.943   1.831  22.273  0.00  0.00    -0.256 NA
ATOM     11  C   UNL     1       8.372   2.077  23.598  0.00  0.00    +0.179 C 
ATOM     12  O   UNL     1       6.924   1.834  23.409  0.00  0.00    -0.349 OA
ATOM     13  C   UNL     1       6.804   1.132  22.167  0.00  0.00    +0.178 C 
ATOM     14  C   UNL     1       7.823   1.858  21.348  0.00  0.00    +0.116 C 
ATOM     15  O   UNL     1      10.186  -1.479  21.869  0.00  0.00    -0.274 OA
ATOM     16  C   UNL     1       8.555   1.221  24.832  0.00  0.00    +0.026 A 
ATOM     17  C   UNL     1       7.789   1.647  25.973  0.00  0.00    +0.030 A 
ENDROOT
BRANCH  11  18
ATOM     18  C   UNL     1       8.633   3.583  23.859  0.00  0.00    +0.022 A 
ATOM     19  C   UNL     1       9.928   4.143  23.795  0.00  0.00    +0.049 A 
ATOM     20 CL   UNL     1      11.368   3.193  23.735  0.00  0.00    -0.083 Cl
ATOM     21  C   UNL     1      10.101   5.534  23.771  0.00  0.00    +0.020 A 
ATOM     22  C   UNL     1       9.005   6.384  23.873  0.00  0.00    +0.001 A 
ATOM     23  C   UNL     1       7.730   5.855  24.037  0.00  0.00    +0.000 A 
ATOM     24  C   UNL     1       7.547   4.467  24.030  0.00  0.00    +0.009 A 
ENDBRANCH  11  18
TORSDOF 1
ENDMDL
MODEL 8
REMARK VINA RESULT:      -5.9      2.894      5.815
REMARK  Name = 
REMARK  1 active torsions:
REMARK  status: ('A' for Active; 'I' for Inactive)
REMARK    1  A    between atoms: C_14  and  C_15
REMARK                            x       y       z     vdW  Elec       q    Type
REMARK                         _______ _______ _______ _____ _____    ______ ____
ROOT
ATOM      1 CL   UNL     1       4.467  -0.569  26.996  0.00  0.00    -0.084 Cl
ATOM      2  C   UNL     1       5.281  -0.104  25.548  0.00  0.00    +0.041 A 
ATOM      3  C   UNL     1       5.277   1.208  25.134  0.00  0.00    +0.022 A 
ATOM      4  C   UNL     1       6.066   1.570  24.045  0.00  0.00    +0.025 A 
ATOM      5  C   UNL     1       6.947   0.657  23.409  0.00  0.00    +0.041 A 
ATOM      6  N   UNL     1       7.861   1.269  22.550  0.00  0.00    -0.284 N 
ATOM      7  H   UNL     1       7.822   2.284  22.516  0.00  0.00    +0.155 HD
ATOM      8  C   UNL     1       8.958   0.839  21.910  0.00  0.00    +0.231 C 
ATOM      9  C   UNL     1       9.198  -0.596  21.514  0.00  0.00    +0.184 C 
ATOM     10  N   UNL     1       9.058  -1.643  22.494  0.00  0.00    -0.256 NA
ATOM     11  C   UNL     1       7.962  -1.751  23.459  0.00  0.00    +0.179 C 
ATOM     12  O   UNL     1       8.647  -1.782  24.771  0.00  0.00    -0.349 OA
ATOM     13  C   UNL     1       9.983  -1.329  24.524  0.00  0.00    +0.178 C 
ATOM     14  C   UNL     1      10.262  -2.007  23.221  0.00  0.00    +0.116 C 
ATOM     15  O   UNL     1       9.743   1.709  21.515  0.00  0.00    -0.274 OA
ATOM     16  C   UNL     1       6.946  -0.682  23.795  0.00  0.00    +0.026 A 
ATOM     17  C   UNL     1       6.044  -1.028  24.860  0.00  0.00    +0.030 A 
ENDROOT
BRANCH  11  18
ATOM     18  C   UNL     1       7.316  -3.129  23.159  0.00  0.00    +0.022 A 
ATOM     19  C   UNL     1       7.248  -4.153  24.130  0.00  0.00    +0.049 A 
ATOM     20 CL   UNL     1       8.130  -4.112  25.614  0.00  0.00    -0.083 Cl
ATOM     21  C   UNL     1       6.433  -5.275  23.925  0.00  0.00    +0.020 A 
ATOM     22  C   UNL     1       5.728  -5.428  22.735  0.00  0.00    +0.001 A 
ATOM     23  C   UNL     1       5.859  -4.481  21.726  0.00  0.00    +0.000 A 
ATOM     24  C   UNL     1       6.645  -3.343  21.937  0.00  0.00    +0.009 A 
ENDBRANCH  11  18
TORSDOF 1
ENDMDL
MODEL 9
REMARK VINA RESULT:      -5.8      3.110      5.074
REMARK  Name = 
REMARK  1 active torsions:
REMARK  status: ('A' for Active; 'I' for Inactive)
REMARK    1  A    between atoms: C_14  and  C_15
REMARK                            x       y       z     vdW  Elec       q    Type
REMARK                         _______ _______ _______ _____ _____    ______ ____
ROOT
ATOM      1 CL   UNL     1       5.423  -5.574  27.714  0.00  0.00    -0.084 Cl
ATOM      2  C   UNL     1       6.762  -4.779  26.972  0.00  0.00    +0.041 A 
ATOM      3  C   UNL     1       7.905  -5.479  26.658  0.00  0.00    +0.022 A 
ATOM      4  C   UNL     1       8.903  -4.840  25.928  0.00  0.00    +0.025 A 
ATOM      5  C   UNL     1       8.745  -3.526  25.414  0.00  0.00    +0.041 A 
ATOM      6  N   UNL     1       9.711  -3.176  24.469  0.00  0.00    -0.284 N 
ATOM      7  H   UNL     1      10.376  -3.906  24.228  0.00  0.00    +0.155 HD
ATOM      8  C   UNL     1       9.838  -2.150  23.615  0.00  0.00    +0.231 C 
ATOM      9  C   UNL     1       9.225  -0.790  23.830  0.00  0.00    +0.184 C 
ATOM     10  N   UNL     1       7.823  -0.677  24.144  0.00  0.00    -0.256 NA
ATOM     11  C   UNL     1       7.107  -1.512  25.109  0.00  0.00    +0.179 C 
ATOM     12  O   UNL     1       6.009  -2.110  24.316  0.00  0.00    -0.349 OA
ATOM     13  C   UNL     1       6.363  -1.904  22.944  0.00  0.00    +0.178 C 
ATOM     14  C   UNL     1       6.923  -0.519  23.014  0.00  0.00    +0.116 C 
ATOM     15  O   UNL     1      10.617  -2.314  22.669  0.00  0.00    -0.274 OA
ATOM     16  C   UNL     1       7.608  -2.791  25.743  0.00  0.00    +0.026 A 
ATOM     17  C   UNL     1       6.648  -3.460  26.579  0.00  0.00    +0.030 A 
ENDROOT
BRANCH  11  18
ATOM     18  C   UNL     1       6.535  -0.507  26.142  0.00  0.00    +0.022 A 
ATOM     19  C   UNL     1       7.350   0.119  27.113  0.00  0.00    +0.049 A 
ATOM     20 CL   UNL     1       8.964  -0.386  27.460  0.00  0.00    -0.083 Cl
ATOM     21  C   UNL     1       6.869   1.209  27.850  0.00  0.00    +0.020 A 
ATOM     22  C   UNL     1       5.561   1.653  27.683  0.00  0.00    +0.001 A 
ATOM     23  C   UNL     1       4.711   0.990  26.806  0.00  0.00    +0.000 A 
ATOM     24  C   UNL     1       5.194  -0.079  26.043  0.00  0.00    +0.009 A 
ENDBRANCH  11  18
TORSDOF 1
ENDMDL
