MODEL 1
REMARK VINA RESULT:      -8.1      0.000      0.000
REMARK  Name = 
REMARK  4 active torsions:
REMARK  status: ('A' for Active; 'I' for Inactive)
REMARK    1  A    between atoms: N_4  and  S_5
REMARK    2  A    between atoms: S_5  and  C_8
REMARK    3  A    between atoms: C_11  and  N_12
REMARK    4  A    between atoms: N_12  and  C_13
REMARK                            x       y       z     vdW  Elec       q    Type
REMARK                         _______ _______ _______ _____ _____    ______ ____
ROOT
ATOM      1  C   UNL     1       8.871  -2.957  23.653  0.00  0.00    +0.124 A 
ATOM      2  C   UNL     1      10.127  -2.348  23.636  0.00  0.00    +0.032 A 
ATOM      3  C   UNL     1      10.286  -1.113  22.994  0.00  0.00    +0.025 A 
ATOM      4  C   UNL     1       9.204  -0.468  22.373  0.00  0.00    +0.031 A 
ATOM      5  C   UNL     1       7.945  -1.081  22.445  0.00  0.00    +0.025 A 
ATOM      6  C   UNL     1       7.774  -2.322  23.070  0.00  0.00    +0.032 A 
ENDROOT
BRANCH   1   7
ATOM      7  S   UNL     1       8.669  -4.520  24.468  0.00  0.00    +0.120 S 
ATOM      8  O   UNL     1       7.937  -5.390  23.574  0.00  0.00    -0.135 OA
ATOM      9  O   UNL     1       9.950  -4.909  25.026  0.00  0.00    -0.135 OA
BRANCH   7  14
ATOM     10  N   UNL     1       8.059  -5.977  27.103  0.00  0.00    -0.288 N 
ATOM     11  H   UNL     1       8.356  -6.445  26.245  0.00  0.00    +0.255 HD
ATOM     12  H   UNL     1       7.610  -6.622  27.738  0.00  0.00    +0.255 HD
ATOM     13  C   UNL     1       7.410  -4.820  26.899  0.00  0.00    +0.399 C 
ATOM     14  N   UNL     1       7.664  -4.142  25.729  0.00  0.00    -0.136 N 
ATOM     15  H   UNL     1       7.080  -3.325  25.568  0.00  0.00    +0.291 HD
ATOM     16  N   UNL     1       6.554  -4.296  27.688  0.00  0.00    -0.128 NA
ATOM     17  H   UNL     1       6.464  -4.883  28.520  0.00  0.00    +0.306 HD
ENDBRANCH   7  14
ENDBRANCH   1   7
BRANCH   4  18
ATOM     18  N   UNL     1       9.408   0.795  21.794  0.00  0.00    -0.320 N 
ATOM     19  H   UNL     1       8.858   1.001  20.956  0.00  0.00    +0.152 HD
BRANCH  18  20
ATOM     20  C   UNL     1      10.162   1.840  22.271  0.00  0.00    +0.085 C 
ATOM     21  C   UNL     1       9.755   2.907  22.972  0.00  0.00    +0.060 C 
ATOM     22  C   UNL     1      10.564   4.037  23.427  0.00  0.00    +0.010 A 
ATOM     23  C   UNL     1      11.900   4.371  23.283  0.00  0.00    +0.010 A 
ATOM     24  C   UNL     1      12.340   5.572  23.850  0.00  0.00    +0.001 A 
ATOM     25  C   UNL     1      11.449   6.415  24.543  0.00  0.00    +0.002 A 
ATOM     26  C   UNL     1      10.102   6.072  24.683  0.00  0.00    +0.024 A 
ATOM     27  C   UNL     1       9.688   4.883  24.115  0.00  0.00    +0.042 A 
ATOM     28  N   UNL     1       8.398   4.355  24.117  0.00  0.00    -0.281 N 
ATOM     29  H   UNL     1       7.589   4.777  24.546  0.00  0.00    +0.155 HD
ATOM     30  C   UNL     1       8.346   3.148  23.434  0.00  0.00    +0.250 C 
ATOM     31  O   UNL     1       7.377   2.436  23.244  0.00  0.00    -0.270 OA
ENDBRANCH  18  20
ENDBRANCH   4  18
TORSDOF 4
ENDMDL
MODEL 2
REMARK VINA RESULT:      -7.9      3.336      4.802
REMARK  Name = 
REMARK  4 active torsions:
REMARK  status: ('A' for Active; 'I' for Inactive)
REMARK    1  A    between atoms: N_4  and  S_5
REMARK    2  A    between atoms: S_5  and  C_8
REMARK    3  A    between atoms: C_11  and  N_12
REMARK    4  A    between atoms: N_12  and  C_13
REMARK                            x       y       z     vdW  Elec       q    Type
REMARK                         _______ _______ _______ _____ _____    ______ ____
ROOT
ATOM      1  C   UNL     1       6.291  -5.431  26.028  0.00  0.00    +0.124 A 
ATOM      2  C   UNL     1       7.469  -5.445  26.777  0.00  0.00    +0.032 A 
ATOM      3  C   UNL     1       8.614  -4.815  26.275  0.00  0.00    +0.025 A 
ATOM      4  C   UNL     1       8.601  -4.160  25.033  0.00  0.00    +0.031 A 
ATOM      5  C   UNL     1       7.393  -4.123  24.322  0.00  0.00    +0.025 A 
ATOM      6  C   UNL     1       6.244  -4.761  24.805  0.00  0.00    +0.032 A 
ENDROOT
BRANCH   1   7
ATOM      7  S   UNL     1       4.839  -6.228  26.666  0.00  0.00    +0.120 S 
ATOM      8  O   UNL     1       5.271  -7.251  27.592  0.00  0.00    -0.135 OA
ATOM      9  O   UNL     1       3.894  -5.199  27.057  0.00  0.00    -0.135 OA
BRANCH   7  14
ATOM     10  N   UNL     1       2.277  -7.869  26.239  0.00  0.00    -0.288 N 
ATOM     11  H   UNL     1       2.761  -7.785  27.135  0.00  0.00    +0.255 HD
ATOM     12  H   UNL     1       1.671  -8.678  26.223  0.00  0.00    +0.255 HD
ATOM     13  C   UNL     1       3.075  -7.723  25.170  0.00  0.00    +0.399 C 
ATOM     14  N   UNL     1       4.229  -6.990  25.328  0.00  0.00    -0.136 N 
ATOM     15  H   UNL     1       4.853  -6.988  24.524  0.00  0.00    +0.291 HD
ATOM     16  N   UNL     1       2.872  -8.225  24.014  0.00  0.00    -0.128 NA
ATOM     17  H   UNL     1       1.983  -8.730  24.021  0.00  0.00    +0.306 HD
ENDBRANCH   7  14
ENDBRANCH   1   7
BRANCH   4  18
ATOM     18  N   UNL     1       9.762  -3.496  24.603  0.00  0.00    -0.320 N 
ATOM     19  H   UNL     1      10.642  -4.004  24.720  0.00  0.00    +0.152 HD
BRANCH  18  20
ATOM     20  C   UNL     1       9.861  -2.299  23.934  0.00  0.00    +0.085 C 
ATOM     21  C   UNL     1       9.592  -1.068  24.390  0.00  0.00    +0.060 C 
ATOM     22  C   UNL     1       9.653   0.190  23.648  0.00  0.00    +0.010 A 
ATOM     23  C   UNL     1       9.960   0.509  22.337  0.00  0.00    +0.010 A 
ATOM     24  C   UNL     1       9.897   1.854  21.957  0.00  0.00    +0.001 A 
ATOM     25  C   UNL     1       9.531   2.851  22.882  0.00  0.00    +0.002 A 
ATOM     26  C   UNL     1       9.221   2.522  24.204  0.00  0.00    +0.024 A 
ATOM     27  C   UNL     1       9.287   1.189  24.557  0.00  0.00    +0.042 A 
ATOM     28  N   UNL     1       9.007   0.635  25.806  0.00  0.00    -0.281 N 
ATOM     29  H   UNL     1       8.720   1.147  26.627  0.00  0.00    +0.155 HD
ATOM     30  C   UNL     1       9.162  -0.744  25.793  0.00  0.00    +0.250 C 
ATOM     31  O   UNL     1       8.988  -1.525  26.709  0.00  0.00    -0.270 OA
ENDBRANCH  18  20
ENDBRANCH   4  18
TORSDOF 4
ENDMDL
MODEL 3
REMARK VINA RESULT:      -7.8      3.065      4.601
REMARK  Name = 
REMARK  4 active torsions:
REMARK  status: ('A' for Active; 'I' for Inactive)
REMARK    1  A    between atoms: N_4  and  S_5
REMARK    2  A    between atoms: S_5  and  C_8
REMARK    3  A    between atoms: C_11  and  N_12
REMARK    4  A    between atoms: N_12  and  C_13
REMARK                            x       y       z     vdW  Elec       q    Type
REMARK                         _______ _______ _______ _____ _____    ______ ____
ROOT
ATOM      1  C   UNL     1       5.848  -5.707  25.090  0.00  0.00    +0.124 A 
ATOM      2  C   UNL     1       6.718  -5.532  26.168  0.00  0.00    +0.032 A 
ATOM      3  C   UNL     1       7.928  -4.856  25.975  0.00  0.00    +0.025 A 
ATOM      4  C   UNL     1       8.283  -4.340  24.718  0.00  0.00    +0.031 A 
ATOM      5  C   UNL     1       7.371  -4.490  23.664  0.00  0.00    +0.025 A 
ATOM      6  C   UNL     1       6.164  -5.177  23.839  0.00  0.00    +0.032 A 
ENDROOT
BRANCH   1   7
ATOM      7  S   UNL     1       4.312  -6.563  25.336  0.00  0.00    +0.120 S 
ATOM      8  O   UNL     1       3.262  -5.570  25.399  0.00  0.00    -0.135 OA
ATOM      9  O   UNL     1       4.256  -7.669  24.400  0.00  0.00    -0.135 OA
BRANCH   7  14
ATOM     10  N   UNL     1       3.574  -5.465  28.109  0.00  0.00    -0.288 N 
ATOM     11  H   UNL     1       3.796  -4.879  27.302  0.00  0.00    +0.255 HD
ATOM     12  H   UNL     1       3.675  -4.952  28.974  0.00  0.00    +0.255 HD
ATOM     13  C   UNL     1       4.152  -6.675  28.083  0.00  0.00    +0.399 C 
ATOM     14  N   UNL     1       4.492  -7.196  26.855  0.00  0.00    -0.136 N 
ATOM     15  H   UNL     1       5.017  -8.067  26.885  0.00  0.00    +0.291 HD
ATOM     16  N   UNL     1       4.440  -7.386  29.103  0.00  0.00    -0.128 NA
ATOM     17  H   UNL     1       4.127  -6.901  29.947  0.00  0.00    +0.306 HD
ENDBRANCH   7  14
ENDBRANCH   1   7
BRANCH   4  18
ATOM     18  N   UNL     1       9.484  -3.621  24.593  0.00  0.00    -0.320 N 
ATOM     19  H   UNL     1      10.326  -4.084  24.943  0.00  0.00    +0.152 HD
BRANCH  18  20
ATOM     20  C   UNL     1       9.697  -2.423  23.954  0.00  0.00    +0.085 C 
ATOM     21  C   UNL     1       9.510  -1.184  24.428  0.00  0.00    +0.060 C 
ATOM     22  C   UNL     1       9.693   0.080  23.716  0.00  0.00    +0.010 A 
ATOM     23  C   UNL     1      10.065   0.399  22.421  0.00  0.00    +0.010 A 
ATOM     24  C   UNL     1      10.120   1.752  22.069  0.00  0.00    +0.001 A 
ATOM     25  C   UNL     1       9.802   2.757  23.003  0.00  0.00    +0.002 A 
ATOM     26  C   UNL     1       9.426   2.428  24.308  0.00  0.00    +0.024 A 
ATOM     27  C   UNL     1       9.377   1.087  24.634  0.00  0.00    +0.042 A 
ATOM     28  N   UNL     1       9.014   0.533  25.862  0.00  0.00    -0.281 N 
ATOM     29  H   UNL     1       8.742   1.050  26.684  0.00  0.00    +0.155 HD
ATOM     30  C   UNL     1       9.062  -0.853  25.823  0.00  0.00    +0.250 C 
ATOM     31  O   UNL     1       8.799  -1.636  26.717  0.00  0.00    -0.270 OA
ENDBRANCH  18  20
ENDBRANCH   4  18
TORSDOF 4
ENDMDL
MODEL 4
REMARK VINA RESULT:      -7.8      2.971      9.041
REMARK  Name = 
REMARK  4 active torsions:
REMARK  status: ('A' for Active; 'I' for Inactive)
REMARK    1  A    between atoms: N_4  and  S_5
REMARK    2  A    between atoms: S_5  and  C_8
REMARK    3  A    between atoms: C_11  and  N_12
REMARK    4  A    between atoms: N_12  and  C_13
REMARK                            x       y       z     vdW  Elec       q    Type
REMARK                         _______ _______ _______ _____ _____    ______ ____
ROOT
ATOM      1  C   UNL     1       9.112   2.115  23.187  0.00  0.00    +0.124 A 
ATOM      2  C   UNL     1       8.250   1.276  23.895  0.00  0.00    +0.032 A 
ATOM      3  C   UNL     1       8.101  -0.057  23.494  0.00  0.00    +0.025 A 
ATOM      4  C   UNL     1       8.810  -0.572  22.397  0.00  0.00    +0.031 A 
ATOM      5  C   UNL     1       9.704   0.280  21.733  0.00  0.00    +0.025 A 
ATOM      6  C   UNL     1       9.851   1.619  22.113  0.00  0.00    +0.032 A 
ENDROOT
BRANCH   1   7
ATOM      7  S   UNL     1       9.302   3.805  23.696  0.00  0.00    +0.120 S 
ATOM      8  O   UNL     1       8.629   3.958  24.967  0.00  0.00    -0.135 OA
ATOM      9  O   UNL     1      10.694   4.175  23.524  0.00  0.00    -0.135 OA
BRANCH   7  14
ATOM     10  N   UNL     1       8.627   6.787  23.396  0.00  0.00    -0.288 N 
ATOM     11  H   UNL     1       8.817   6.330  24.289  0.00  0.00    +0.255 HD
ATOM     12  H   UNL     1       8.125   7.654  23.525  0.00  0.00    +0.255 HD
ATOM     13  C   UNL     1       8.131   5.967  22.456  0.00  0.00    +0.399 C 
ATOM     14  N   UNL     1       8.419   4.625  22.561  0.00  0.00    -0.136 N 
ATOM     15  H   UNL     1       7.943   4.027  21.889  0.00  0.00    +0.291 HD
ATOM     16  N   UNL     1       7.391   6.317  21.477  0.00  0.00    -0.128 NA
ATOM     17  H   UNL     1       7.263   7.331  21.501  0.00  0.00    +0.306 HD
ENDBRANCH   7  14
ENDBRANCH   1   7
BRANCH   4  18
ATOM     18  N   UNL     1       8.666  -1.932  22.073  0.00  0.00    -0.320 N 
ATOM     19  H   UNL     1       9.504  -2.403  21.723  0.00  0.00    +0.152 HD
BRANCH  18  20
ATOM     20  C   UNL     1       7.577  -2.746  22.276  0.00  0.00    +0.085 C 
ATOM     21  C   UNL     1       7.359  -3.607  23.279  0.00  0.00    +0.060 C 
ATOM     22  C   UNL     1       6.218  -4.505  23.452  0.00  0.00    +0.010 A 
ATOM     23  C   UNL     1       5.087  -4.764  22.697  0.00  0.00    +0.010 A 
ATOM     24  C   UNL     1       4.189  -5.727  23.170  0.00  0.00    +0.001 A 
ATOM     25  C   UNL     1       4.431  -6.411  24.376  0.00  0.00    +0.002 A 
ATOM     26  C   UNL     1       5.575  -6.146  25.133  0.00  0.00    +0.024 A 
ATOM     27  C   UNL     1       6.449  -5.193  24.648  0.00  0.00    +0.042 A 
ATOM     28  N   UNL     1       7.651  -4.783  25.224  0.00  0.00    -0.281 N 
ATOM     29  H   UNL     1       8.039  -5.131  26.087  0.00  0.00    +0.155 HD
ATOM     30  C   UNL     1       8.278  -3.818  24.449  0.00  0.00    +0.250 C 
ATOM     31  O   UNL     1       9.339  -3.260  24.662  0.00  0.00    -0.270 OA
ENDBRANCH  18  20
ENDBRANCH   4  18
TORSDOF 4
ENDMDL
MODEL 5
REMARK VINA RESULT:      -7.7      1.591      2.201
REMARK  Name = 
REMARK  4 active torsions:
REMARK  status: ('A' for Active; 'I' for Inactive)
REMARK    1  A    between atoms: N_4  and  S_5
REMARK    2  A    between atoms: S_5  and  C_8
REMARK    3  A    between atoms: C_11  and  N_12
REMARK    4  A    between atoms: N_12  and  C_13
REMARK                            x       y       z     vdW  Elec       q    Type
REMARK                         _______ _______ _______ _____ _____    ______ ____
ROOT
ATOM      1  C   UNL     1       8.660  -3.099  23.657  0.00  0.00    +0.124 A 
ATOM      2  C   UNL     1       7.672  -2.451  22.914  0.00  0.00    +0.032 A 
ATOM      3  C   UNL     1       7.948  -1.204  22.339  0.00  0.00    +0.025 A 
ATOM      4  C   UNL     1       9.204  -0.594  22.488  0.00  0.00    +0.031 A 
ATOM      5  C   UNL     1      10.192  -1.288  23.200  0.00  0.00    +0.025 A 
ATOM      6  C   UNL     1       9.926  -2.528  23.792  0.00  0.00    +0.032 A 
ENDROOT
BRANCH   1   7
ATOM      7  S   UNL     1       8.312  -4.681  24.382  0.00  0.00    +0.120 S 
ATOM      8  O   UNL     1       9.577  -5.320  24.671  0.00  0.00    -0.135 OA
ATOM      9  O   UNL     1       7.302  -4.495  25.408  0.00  0.00    -0.135 OA
BRANCH   7  14
ATOM     10  N   UNL     1       5.369  -5.223  23.685  0.00  0.00    -0.288 N 
ATOM     11  H   UNL     1       5.714  -5.071  24.634  0.00  0.00    +0.255 HD
ATOM     12  H   UNL     1       4.473  -5.690  23.690  0.00  0.00    +0.255 HD
ATOM     13  C   UNL     1       6.283  -5.734  22.846  0.00  0.00    +0.399 C 
ATOM     14  N   UNL     1       7.610  -5.506  23.129  0.00  0.00    -0.136 N 
ATOM     15  H   UNL     1       8.270  -5.993  22.527  0.00  0.00    +0.291 HD
ATOM     16  N   UNL     1       6.034  -6.439  21.811  0.00  0.00    -0.128 NA
ATOM     17  H   UNL     1       5.021  -6.524  21.702  0.00  0.00    +0.306 HD
ENDBRANCH   7  14
ENDBRANCH   1   7
BRANCH   4  18
ATOM     18  N   UNL     1       9.445   0.631  21.843  0.00  0.00    -0.320 N 
ATOM     19  H   UNL     1       8.943   0.785  20.965  0.00  0.00    +0.152 HD
BRANCH  18  20
ATOM     20  C   UNL     1      10.176   1.703  22.295  0.00  0.00    +0.085 C 
ATOM     21  C   UNL     1       9.747   2.771  22.982  0.00  0.00    +0.060 C 
ATOM     22  C   UNL     1      10.530   3.929  23.411  0.00  0.00    +0.010 A 
ATOM     23  C   UNL     1      11.855   4.295  23.249  0.00  0.00    +0.010 A 
ATOM     24  C   UNL     1      12.269   5.517  23.792  0.00  0.00    +0.001 A 
ATOM     25  C   UNL     1      11.363   6.348  24.478  0.00  0.00    +0.002 A 
ATOM     26  C   UNL     1      10.026   5.973  24.637  0.00  0.00    +0.024 A 
ATOM     27  C   UNL     1       9.639   4.764  24.093  0.00  0.00    +0.042 A 
ATOM     28  N   UNL     1       8.362   4.202  24.116  0.00  0.00    -0.281 N 
ATOM     29  H   UNL     1       7.546   4.611  24.545  0.00  0.00    +0.155 HD
ATOM     30  C   UNL     1       8.336   2.983  23.453  0.00  0.00    +0.250 C 
ATOM     31  O   UNL     1       7.385   2.243  23.284  0.00  0.00    -0.270 OA
ENDBRANCH  18  20
ENDBRANCH   4  18
TORSDOF 4
ENDMDL
MODEL 6
REMARK VINA RESULT:      -7.6      3.210      4.967
REMARK  Name = 
REMARK  4 active torsions:
REMARK  status: ('A' for Active; 'I' for Inactive)
REMARK    1  A    between atoms: N_4  and  S_5
REMARK    2  A    between atoms: S_5  and  C_8
REMARK    3  A    between atoms: C_11  and  N_12
REMARK    4  A    between atoms: N_12  and  C_13
REMARK                            x       y       z     vdW  Elec       q    Type
REMARK                         _______ _______ _______ _____ _____    ______ ____
ROOT
ATOM      1  C   UNL     1       6.196  -5.439  26.119  0.00  0.00    +0.124 A 
ATOM      2  C   UNL     1       6.075  -4.730  24.922  0.00  0.00    +0.032 A 
ATOM      3  C   UNL     1       7.191  -4.069  24.395  0.00  0.00    +0.025 A 
ATOM      4  C   UNL     1       8.436  -4.111  25.042  0.00  0.00    +0.031 A 
ATOM      5  C   UNL     1       8.541  -4.867  26.218  0.00  0.00    +0.025 A 
ATOM      6  C   UNL     1       7.430  -5.521  26.764  0.00  0.00    +0.032 A 
ENDROOT
BRANCH   1   7
ATOM      7  S   UNL     1       4.782  -6.279  26.785  0.00  0.00    +0.120 S 
ATOM      8  O   UNL     1       5.262  -7.279  27.713  0.00  0.00    -0.135 OA
ATOM      9  O   UNL     1       3.808  -5.280  27.182  0.00  0.00    -0.135 OA
BRANCH   7  14
ATOM     10  N   UNL     1       2.201  -7.893  26.372  0.00  0.00    -0.288 N 
ATOM     11  H   UNL     1       2.673  -7.788  27.272  0.00  0.00    +0.255 HD
ATOM     12  H   UNL     1       1.581  -8.691  26.372  0.00  0.00    +0.255 HD
ATOM     13  C   UNL     1       3.016  -7.793  25.311  0.00  0.00    +0.399 C 
ATOM     14  N   UNL     1       4.179  -7.073  25.463  0.00  0.00    -0.136 N 
ATOM     15  H   UNL     1       4.814  -7.106  24.669  0.00  0.00    +0.291 HD
ATOM     16  N   UNL     1       2.820  -8.327  24.168  0.00  0.00    -0.128 NA
ATOM     17  H   UNL     1       1.924  -8.818  24.178  0.00  0.00    +0.306 HD
ENDBRANCH   7  14
ENDBRANCH   1   7
BRANCH   4  18
ATOM     18  N   UNL     1       9.536  -3.477  24.440  0.00  0.00    -0.320 N 
ATOM     19  H   UNL     1      10.137  -4.069  23.862  0.00  0.00    +0.152 HD
BRANCH  18  20
ATOM     20  C   UNL     1       9.847  -2.138  24.428  0.00  0.00    +0.085 C 
ATOM     21  C   UNL     1       9.666  -1.252  23.440  0.00  0.00    +0.060 C 
ATOM     22  C   UNL     1      10.051   0.159  23.426  0.00  0.00    +0.010 A 
ATOM     23  C   UNL     1      10.695   0.980  24.335  0.00  0.00    +0.010 A 
ATOM     24  C   UNL     1      10.921   2.312  23.971  0.00  0.00    +0.001 A 
ATOM     25  C   UNL     1      10.508   2.799  22.717  0.00  0.00    +0.002 A 
ATOM     26  C   UNL     1       9.860   1.965  21.803  0.00  0.00    +0.024 A 
ATOM     27  C   UNL     1       9.648   0.654  22.181  0.00  0.00    +0.042 A 
ATOM     28  N   UNL     1       9.040  -0.351  21.428  0.00  0.00    -0.281 N 
ATOM     29  H   UNL     1       8.667  -0.246  20.497  0.00  0.00    +0.155 HD
ATOM     30  C   UNL     1       9.015  -1.554  22.121  0.00  0.00    +0.250 C 
ATOM     31  O   UNL     1       8.567  -2.622  21.748  0.00  0.00    -0.270 OA
ENDBRANCH  18  20
ENDBRANCH   4  18
TORSDOF 4
ENDMDL
MODEL 7
REMARK VINA RESULT:      -7.6      2.862      9.028
REMARK  Name = 
REMARK  4 active torsions:
REMARK  status: ('A' for Active; 'I' for Inactive)
REMARK    1  A    between atoms: N_4  and  S_5
REMARK    2  A    between atoms: S_5  and  C_8
REMARK    3  A    between atoms: C_11  and  N_12
REMARK    4  A    between atoms: N_12  and  C_13
REMARK                            x       y       z     vdW  Elec       q    Type
REMARK                         _______ _______ _______ _____ _____    ______ ____
ROOT
ATOM      1  C   UNL     1       9.429   1.320  23.754  0.00  0.00    +0.124 A 
ATOM      2  C   UNL     1       9.089   0.726  24.971  0.00  0.00    +0.032 A 
ATOM      3  C   UNL     1       9.151  -0.667  25.100  0.00  0.00    +0.025 A 
ATOM      4  C   UNL     1       9.558  -1.481  24.030  0.00  0.00    +0.031 A 
ATOM      5  C   UNL     1       9.937  -0.855  22.834  0.00  0.00    +0.025 A 
ATOM      6  C   UNL     1       9.866   0.536  22.687  0.00  0.00    +0.032 A 
ENDROOT
BRANCH   1   7
ATOM      7  S   UNL     1       9.352   3.086  23.592  0.00  0.00    +0.120 S 
ATOM      8  O   UNL     1       8.665   3.384  22.354  0.00  0.00    -0.135 OA
ATOM      9  O   UNL     1       8.909   3.638  24.858  0.00  0.00    -0.135 OA
BRANCH   7  14
ATOM     10  N   UNL     1      10.739   5.816  23.341  0.00  0.00    -0.288 N 
ATOM     11  H   UNL     1       9.772   5.637  23.065  0.00  0.00    +0.255 HD
ATOM     12  H   UNL     1      11.100   6.649  22.898  0.00  0.00    +0.255 HD
ATOM     13  C   UNL     1      11.534   4.737  23.279  0.00  0.00    +0.399 C 
ATOM     14  N   UNL     1      10.943   3.499  23.392  0.00  0.00    -0.136 N 
ATOM     15  H   UNL     1      11.564   2.708  23.239  0.00  0.00    +0.291 HD
ATOM     16  N   UNL     1      12.798   4.751  23.101  0.00  0.00    -0.128 NA
ATOM     17  H   UNL     1      13.116   5.721  23.047  0.00  0.00    +0.306 HD
ENDBRANCH   7  14
ENDBRANCH   1   7
BRANCH   4  18
ATOM     18  N   UNL     1       9.657  -2.868  24.231  0.00  0.00    -0.320 N 
ATOM     19  H   UNL     1      10.515  -3.312  23.896  0.00  0.00    +0.152 HD
BRANCH  18  20
ATOM     20  C   UNL     1       8.804  -3.691  24.927  0.00  0.00    +0.085 C 
ATOM     21  C   UNL     1       7.699  -4.307  24.486  0.00  0.00    +0.060 C 
ATOM     22  C   UNL     1       6.774  -5.139  25.254  0.00  0.00    +0.010 A 
ATOM     23  C   UNL     1       6.716  -5.520  26.583  0.00  0.00    +0.010 A 
ATOM     24  C   UNL     1       5.649  -6.330  26.987  0.00  0.00    +0.001 A 
ATOM     25  C   UNL     1       4.664  -6.741  26.068  0.00  0.00    +0.002 A 
ATOM     26  C   UNL     1       4.728  -6.351  24.728  0.00  0.00    +0.024 A 
ATOM     27  C   UNL     1       5.788  -5.551  24.351  0.00  0.00    +0.042 A 
ATOM     28  N   UNL     1       6.041  -5.034  23.080  0.00  0.00    -0.281 N 
ATOM     29  H   UNL     1       5.476  -5.185  22.259  0.00  0.00    +0.155 HD
ATOM     30  C   UNL     1       7.190  -4.254  23.073  0.00  0.00    +0.250 C 
ATOM     31  O   UNL     1       7.682  -3.655  22.135  0.00  0.00    -0.270 OA
ENDBRANCH  18  20
ENDBRANCH   4  18
TORSDOF 4
ENDMDL
MODEL 8
REMARK VINA RESULT:      -7.5      3.048      4.964
REMARK  Name = 
REMARK  4 active torsions:
REMARK  status: ('A' for Active; 'I' for Inactive)
REMARK    1  A    between atoms: N_4  and  S_5
REMARK    2  A    between atoms: S_5  and  C_8
REMARK    3  A    between atoms: C_11  and  N_12
REMARK    4  A    between atoms: N_12  and  C_13
REMARK                            x       y       z     vdW  Elec       q    Type
REMARK                         _______ _______ _______ _____ _____    ______ ____
ROOT
ATOM      1  C   UNL     1       4.955  -5.818  24.496  0.00  0.00    +0.124 A 
ATOM      2  C   UNL     1       4.578  -5.233  23.286  0.00  0.00    +0.032 A 
ATOM      3  C   UNL     1       5.502  -4.452  22.580  0.00  0.00    +0.025 A 
ATOM      4  C   UNL     1       6.805  -4.251  23.062  0.00  0.00    +0.031 A 
ATOM      5  C   UNL     1       7.171  -4.888  24.256  0.00  0.00    +0.025 A 
ATOM      6  C   UNL     1       6.253  -5.659  24.980  0.00  0.00    +0.032 A 
ENDROOT
BRANCH   1   7
ATOM      7  S   UNL     1       3.784  -6.810  25.389  0.00  0.00    +0.120 S 
ATOM      8  O   UNL     1       2.774  -5.924  25.922  0.00  0.00    -0.135 OA
ATOM      9  O   UNL     1       3.435  -7.951  24.563  0.00  0.00    -0.135 OA
BRANCH   7  14
ATOM     10  N   UNL     1       4.333  -5.632  28.173  0.00  0.00    -0.288 N 
ATOM     11  H   UNL     1       4.121  -5.072  27.345  0.00  0.00    +0.255 HD
ATOM     12  H   UNL     1       4.786  -5.078  28.886  0.00  0.00    +0.255 HD
ATOM     13  C   UNL     1       4.912  -6.812  27.901  0.00  0.00    +0.399 C 
ATOM     14  N   UNL     1       4.683  -7.368  26.663  0.00  0.00    -0.136 N 
ATOM     15  H   UNL     1       5.218  -8.209  26.462  0.00  0.00    +0.291 HD
ATOM     16  N   UNL     1       5.682  -7.462  28.685  0.00  0.00    -0.128 NA
ATOM     17  H   UNL     1       5.761  -6.957  29.570  0.00  0.00    +0.306 HD
ENDBRANCH   7  14
ENDBRANCH   1   7
BRANCH   4  18
ATOM     18  N   UNL     1       7.709  -3.505  22.286  0.00  0.00    -0.320 N 
ATOM     19  H   UNL     1       8.280  -4.036  21.624  0.00  0.00    +0.152 HD
BRANCH  18  20
ATOM     20  C   UNL     1       7.845  -2.140  22.213  0.00  0.00    +0.085 C 
ATOM     21  C   UNL     1       8.762  -1.363  22.806  0.00  0.00    +0.060 C 
ATOM     22  C   UNL     1       8.861   0.095  22.759  0.00  0.00    +0.010 A 
ATOM     23  C   UNL     1       8.097   1.082  22.161  0.00  0.00    +0.010 A 
ATOM     24  C   UNL     1       8.485   2.414  22.347  0.00  0.00    +0.001 A 
ATOM     25  C   UNL     1       9.616   2.737  23.120  0.00  0.00    +0.002 A 
ATOM     26  C   UNL     1      10.382   1.736  23.723  0.00  0.00    +0.024 A 
ATOM     27  C   UNL     1       9.981   0.428  23.528  0.00  0.00    +0.042 A 
ATOM     28  N   UNL     1      10.580  -0.721  24.044  0.00  0.00    -0.281 N 
ATOM     29  H   UNL     1      11.400  -0.745  24.630  0.00  0.00    +0.155 HD
ATOM     30  C   UNL     1       9.895  -1.864  23.656  0.00  0.00    +0.250 C 
ATOM     31  O   UNL     1      10.148  -3.020  23.939  0.00  0.00    -0.270 OA
ENDBRANCH  18  20
ENDBRANCH   4  18
TORSDOF 4
ENDMDL
MODEL 9
REMARK VINA RESULT:      -7.5      3.412      8.681
REMARK  Name = 
REMARK  4 active torsions:
REMARK  status: ('A' for Active; 'I' for Inactive)
REMARK    1  A    between atoms: N_4  and  S_5
REMARK    2  A    between atoms: S_5  and  C_8
REMARK    3  A    between atoms: C_11  and  N_12
REMARK    4  A    between atoms: N_12  and  C_13
REMARK                            x       y       z     vdW  Elec       q    Type
REMARK                         _______ _______ _______ _____ _____    ______ ____
ROOT
ATOM      1  C   UNL     1       9.165   4.210  24.267  0.00  0.00    +0.124 A 
ATOM      2  C   UNL     1       8.447   3.194  24.900  0.00  0.00    +0.032 A 
ATOM      3  C   UNL     1       8.888   1.869  24.794  0.00  0.00    +0.025 A 
ATOM      4  C   UNL     1      10.046   1.541  24.069  0.00  0.00    +0.031 A 
ATOM      5  C   UNL     1      10.772   2.587  23.482  0.00  0.00    +0.025 A 
ATOM      6  C   UNL     1      10.335   3.914  23.568  0.00  0.00    +0.032 A 
ENDROOT
BRANCH   1   7
ATOM      7  S   UNL     1       8.606   5.890  24.404  0.00  0.00    +0.120 S 
ATOM      8  O   UNL     1       8.487   6.199  25.811  0.00  0.00    -0.135 OA
ATOM      9  O   UNL     1       9.407   6.706  23.511  0.00  0.00    -0.135 OA
BRANCH   7  14
ATOM     10  N   UNL     1       7.568   6.052  21.517  0.00  0.00    -0.288 N 
ATOM     11  H   UNL     1       8.430   6.494  21.841  0.00  0.00    +0.255 HD
ATOM     12  H   UNL     1       7.239   6.473  20.658  0.00  0.00    +0.255 HD
ATOM     13  C   UNL     1       6.641   5.892  22.474  0.00  0.00    +0.399 C 
ATOM     14  N   UNL     1       7.075   5.812  23.778  0.00  0.00    -0.136 N 
ATOM     15  H   UNL     1       6.337   5.792  24.478  0.00  0.00    +0.291 HD
ATOM     16  N   UNL     1       5.380   5.829  22.288  0.00  0.00    -0.128 NA
ATOM     17  H   UNL     1       5.188   5.885  21.285  0.00  0.00    +0.306 HD
ENDBRANCH   7  14
ENDBRANCH   1   7
BRANCH   4  18
ATOM     18  N   UNL     1      10.475   0.203  24.042  0.00  0.00    -0.320 N 
ATOM     19  H   UNL     1      11.351   0.021  23.547  0.00  0.00    +0.152 HD
BRANCH  18  20
ATOM     20  C   UNL     1       9.935  -0.878  24.696  0.00  0.00    +0.085 C 
ATOM     21  C   UNL     1       9.173  -1.858  24.191  0.00  0.00    +0.060 C 
ATOM     22  C   UNL     1       8.563  -2.974  24.912  0.00  0.00    +0.010 A 
ATOM     23  C   UNL     1       8.546  -3.353  26.244  0.00  0.00    +0.010 A 
ATOM     24  C   UNL     1       7.825  -4.501  26.590  0.00  0.00    +0.001 A 
ATOM     25  C   UNL     1       7.136  -5.245  25.613  0.00  0.00    +0.002 A 
ATOM     26  C   UNL     1       7.156  -4.857  24.271  0.00  0.00    +0.024 A 
ATOM     27  C   UNL     1       7.872  -3.720  23.951  0.00  0.00    +0.042 A 
ATOM     28  N   UNL     1       8.015  -3.144  22.689  0.00  0.00    -0.281 N 
ATOM     29  H   UNL     1       7.611  -3.492  21.833  0.00  0.00    +0.155 HD
ATOM     30  C   UNL     1       8.792  -1.995  22.745  0.00  0.00    +0.250 C 
ATOM     31  O   UNL     1       9.100  -1.255  21.829  0.00  0.00    -0.270 OA
ENDBRANCH  18  20
ENDBRANCH   4  18
TORSDOF 4
ENDMDL
