MODEL 1
REMARK VINA RESULT:      -5.8      0.000      0.000
REMARK  Name = 
REMARK  8 active torsions:
REMARK  status: ('A' for Active; 'I' for Inactive)
REMARK    1  A    between atoms: C_1  and  C_2
REMARK    2  A    between atoms: C_2  and  C_3
REMARK    3  A    between atoms: C_3  and  C_14
REMARK    4  A    between atoms: C_4  and  C_5
REMARK    5  A    between atoms: C_4  and  C_7
REMARK    6  A    between atoms: C_5  and  C_6
REMARK    7  A    between atoms: C_10  and  O_11
REMARK    8  A    between atoms: C_17  and  O_18
REMARK                            x       y       z     vdW  Elec       q    Type
REMARK                         _______ _______ _______ _____ _____    ______ ____
ROOT
ATOM      1  C   UNL     1       8.355  -3.192  24.449  0.00  0.00    -0.037 C 
ATOM      2  C   UNL     1       7.022  -3.191  24.192  0.00  0.00    -0.037 C 
ENDROOT
BRANCH   1   3
ATOM      3  C   UNL     1       9.112  -1.923  24.378  0.00  0.00    -0.021 A 
ATOM      4  C   UNL     1       9.714  -1.538  23.172  0.00  0.00    +0.012 A 
ATOM      5  C   UNL     1      10.337  -0.296  23.065  0.00  0.00    +0.046 A 
ATOM      6  C   UNL     1      10.356   0.560  24.161  0.00  0.00    +0.117 A 
ATOM      7  C   UNL     1       9.799   0.177  25.377  0.00  0.00    +0.046 A 
ATOM      8  C   UNL     1       9.175  -1.068  25.484  0.00  0.00    +0.012 A 
BRANCH   6   9
ATOM      9  O   UNL     1      10.919   1.791  23.994  0.00  0.00    -0.507 OA
ATOM     10  H   UNL     1      11.011   2.205  24.867  0.00  0.00    +0.292 HD
ENDBRANCH   6   9
ENDBRANCH   1   3
BRANCH   2  11
ATOM     11  C   UNL     1       6.236  -4.439  24.210  0.00  0.00    -0.021 A 
ATOM     12  C   UNL     1       5.931  -5.086  23.004  0.00  0.00    +0.012 A 
ATOM     13  C   UNL     1       5.126  -6.225  23.004  0.00  0.00    +0.046 A 
ATOM     14  C   UNL     1       4.621  -6.711  24.204  0.00  0.00    +0.117 A 
ATOM     15  C   UNL     1       4.926  -6.090  25.412  0.00  0.00    +0.046 A 
ATOM     16  C   UNL     1       5.739  -4.953  25.413  0.00  0.00    +0.012 A 
BRANCH  14  17
ATOM     17  O   UNL     1       3.812  -7.807  24.152  0.00  0.00    -0.507 OA
ATOM     18  H   UNL     1       3.822  -8.241  25.020  0.00  0.00    +0.292 HD
ENDBRANCH  14  17
ENDBRANCH   2  11
BRANCH   1  20
ATOM     19  C   UNL     1       9.395  -4.781  26.161  0.00  0.00    +0.009 C 
ATOM     20  C   UNL     1       9.222  -4.415  24.692  0.00  0.00    +0.032 C 
ENDBRANCH   1  20
BRANCH   2  21
ATOM     21  C   UNL     1       6.211  -1.980  23.747  0.00  0.00    +0.032 C 
ATOM     22  C   UNL     1       5.540  -1.217  24.881  0.00  0.00    +0.009 C 
ENDBRANCH   2  21
TORSDOF 6
ENDMDL
MODEL 2
REMARK VINA RESULT:      -5.7      2.251      6.897
REMARK  Name = 
REMARK  8 active torsions:
REMARK  status: ('A' for Active; 'I' for Inactive)
REMARK    1  A    between atoms: C_1  and  C_2
REMARK    2  A    between atoms: C_2  and  C_3
REMARK    3  A    between atoms: C_3  and  C_14
REMARK    4  A    between atoms: C_4  and  C_5
REMARK    5  A    between atoms: C_4  and  C_7
REMARK    6  A    between atoms: C_5  and  C_6
REMARK    7  A    between atoms: C_10  and  O_11
REMARK    8  A    between atoms: C_17  and  O_18
REMARK                            x       y       z     vdW  Elec       q    Type
REMARK                         _______ _______ _______ _____ _____    ______ ____
ROOT
ATOM      1  C   UNL     1       7.876  -1.559  22.587  0.00  0.00    -0.037 C 
ATOM      2  C   UNL     1       7.278  -0.606  23.347  0.00  0.00    -0.037 C 
ENDROOT
BRANCH   1   3
ATOM      3  C   UNL     1       7.356  -2.944  22.614  0.00  0.00    -0.021 A 
ATOM      4  C   UNL     1       6.282  -3.300  21.787  0.00  0.00    +0.012 A 
ATOM      5  C   UNL     1       5.855  -4.626  21.725  0.00  0.00    +0.046 A 
ATOM      6  C   UNL     1       6.503  -5.593  22.486  0.00  0.00    +0.117 A 
ATOM      7  C   UNL     1       7.544  -5.250  23.342  0.00  0.00    +0.046 A 
ATOM      8  C   UNL     1       7.971  -3.921  23.405  0.00  0.00    +0.012 A 
BRANCH   6   9
ATOM      9  O   UNL     1       6.095  -6.886  22.348  0.00  0.00    -0.507 OA
ATOM     10  H   UNL     1       5.347  -6.907  21.729  0.00  0.00    +0.292 HD
ENDBRANCH   6   9
ENDBRANCH   1   3
BRANCH   2  11
ATOM     11  C   UNL     1       7.789   0.778  23.384  0.00  0.00    -0.021 A 
ATOM     12  C   UNL     1       7.393   1.692  22.397  0.00  0.00    +0.012 A 
ATOM     13  C   UNL     1       7.927   2.980  22.380  0.00  0.00    +0.046 A 
ATOM     14  C   UNL     1       8.859   3.351  23.342  0.00  0.00    +0.117 A 
ATOM     15  C   UNL     1       9.252   2.462  24.338  0.00  0.00    +0.046 A 
ATOM     16  C   UNL     1       8.710   1.173  24.360  0.00  0.00    +0.012 A 
BRANCH  14  17
ATOM     17  O   UNL     1       9.379   4.609  23.266  0.00  0.00    -0.507 OA
ATOM     18  H   UNL     1       9.380   4.998  24.155  0.00  0.00    +0.292 HD
ENDBRANCH  14  17
ENDBRANCH   2  11
BRANCH   1  20
ATOM     19  C   UNL     1      10.432  -1.526  22.578  0.00  0.00    +0.009 C 
ATOM     20  C   UNL     1       9.146  -1.393  21.772  0.00  0.00    +0.032 C 
ENDBRANCH   1  20
BRANCH   2  21
ATOM     21  C   UNL     1       6.129  -0.844  24.318  0.00  0.00    +0.032 C 
ATOM     22  C   UNL     1       6.556  -1.333  25.696  0.00  0.00    +0.009 C 
ENDBRANCH   2  21
TORSDOF 6
ENDMDL
MODEL 3
REMARK VINA RESULT:      -5.7      0.199      7.025
REMARK  Name = 
REMARK  8 active torsions:
REMARK  status: ('A' for Active; 'I' for Inactive)
REMARK    1  A    between atoms: C_1  and  C_2
REMARK    2  A    between atoms: C_2  and  C_3
REMARK    3  A    between atoms: C_3  and  C_14
REMARK    4  A    between atoms: C_4  and  C_5
REMARK    5  A    between atoms: C_4  and  C_7
REMARK    6  A    between atoms: C_5  and  C_6
REMARK    7  A    between atoms: C_10  and  O_11
REMARK    8  A    between atoms: C_17  and  O_18
REMARK                            x       y       z     vdW  Elec       q    Type
REMARK                         _______ _______ _______ _____ _____    ______ ____
ROOT
ATOM      1  C   UNL     1       6.909  -3.290  24.224  0.00  0.00    -0.037 C 
ATOM      2  C   UNL     1       8.254  -3.300  24.407  0.00  0.00    -0.037 C 
ENDROOT
BRANCH   1   3
ATOM      3  C   UNL     1       6.161  -4.566  24.249  0.00  0.00    -0.021 A 
ATOM      4  C   UNL     1       5.758  -5.113  25.475  0.00  0.00    +0.012 A 
ATOM      5  C   UNL     1       4.961  -6.256  25.504  0.00  0.00    +0.046 A 
ATOM      6  C   UNL     1       4.566  -6.850  24.310  0.00  0.00    +0.117 A 
ATOM      7  C   UNL     1       4.991  -6.343  23.085  0.00  0.00    +0.046 A 
ATOM      8  C   UNL     1       5.790  -5.198  23.057  0.00  0.00    +0.012 A 
BRANCH   6   9
ATOM      9  O   UNL     1       3.735  -7.928  24.382  0.00  0.00    -0.507 OA
ATOM     10  H   UNL     1       2.841  -7.612  24.588  0.00  0.00    +0.292 HD
ENDBRANCH   6   9
ENDBRANCH   1   3
BRANCH   2  11
ATOM     11  C   UNL     1       9.046  -2.056  24.348  0.00  0.00    -0.021 A 
ATOM     12  C   UNL     1       9.075  -1.197  25.455  0.00  0.00    +0.012 A 
ATOM     13  C   UNL     1       9.759   0.016  25.384  0.00  0.00    +0.046 A 
ATOM     14  C   UNL     1      10.406   0.372  24.207  0.00  0.00    +0.117 A 
ATOM     15  C   UNL     1      10.401  -0.475  23.102  0.00  0.00    +0.046 A 
ATOM     16  C   UNL     1       9.722  -1.695  23.177  0.00  0.00    +0.012 A 
BRANCH  14  17
ATOM     17  O   UNL     1      11.034   1.582  24.172  0.00  0.00    -0.507 OA
ATOM     18  H   UNL     1      11.855   1.520  24.686  0.00  0.00    +0.292 HD
ENDBRANCH  14  17
ENDBRANCH   2  11
BRANCH   1  20
ATOM     19  C   UNL     1       5.417  -1.387  25.052  0.00  0.00    +0.009 C 
ATOM     20  C   UNL     1       6.060  -2.085  23.861  0.00  0.00    +0.032 C 
ENDBRANCH   1  20
BRANCH   2  21
ATOM     21  C   UNL     1       9.114  -4.548  24.565  0.00  0.00    +0.032 C 
ATOM     22  C   UNL     1       9.470  -4.892  26.005  0.00  0.00    +0.009 C 
ENDBRANCH   2  21
TORSDOF 6
ENDMDL
MODEL 4
REMARK VINA RESULT:      -5.7      2.152      3.414
REMARK  Name = 
REMARK  8 active torsions:
REMARK  status: ('A' for Active; 'I' for Inactive)
REMARK    1  A    between atoms: C_1  and  C_2
REMARK    2  A    between atoms: C_2  and  C_3
REMARK    3  A    between atoms: C_3  and  C_14
REMARK    4  A    between atoms: C_4  and  C_5
REMARK    5  A    between atoms: C_4  and  C_7
REMARK    6  A    between atoms: C_5  and  C_6
REMARK    7  A    between atoms: C_10  and  O_11
REMARK    8  A    between atoms: C_17  and  O_18
REMARK                            x       y       z     vdW  Elec       q    Type
REMARK                         _______ _______ _______ _____ _____    ______ ____
ROOT
ATOM      1  C   UNL     1       7.246  -0.621  23.414  0.00  0.00    -0.037 C 
ATOM      2  C   UNL     1       7.817  -1.569  22.627  0.00  0.00    -0.037 C 
ENDROOT
BRANCH   1   3
ATOM      3  C   UNL     1       7.803   0.750  23.421  0.00  0.00    -0.021 A 
ATOM      4  C   UNL     1       8.749   1.113  24.389  0.00  0.00    +0.012 A 
ATOM      5  C   UNL     1       9.358   2.365  24.339  0.00  0.00    +0.046 A 
ATOM      6  C   UNL     1       9.023   3.253  23.323  0.00  0.00    +0.117 A 
ATOM      7  C   UNL     1       8.056   2.925  22.377  0.00  0.00    +0.046 A 
ATOM      8  C   UNL     1       7.445   1.669  22.428  0.00  0.00    +0.012 A 
BRANCH   6   9
ATOM      9  O   UNL     1       9.688   4.442  23.274  0.00  0.00    -0.507 OA
ATOM     10  H   UNL     1       9.922   4.623  22.349  0.00  0.00    +0.292 HD
ENDBRANCH   6   9
ENDBRANCH   1   3
BRANCH   2  11
ATOM     11  C   UNL     1       7.322  -2.959  22.620  0.00  0.00    -0.021 A 
ATOM     12  C   UNL     1       6.204  -3.295  21.845  0.00  0.00    +0.012 A 
ATOM     13  C   UNL     1       5.683  -4.588  21.888  0.00  0.00    +0.046 A 
ATOM     14  C   UNL     1       6.275  -5.540  22.710  0.00  0.00    +0.117 A 
ATOM     15  C   UNL     1       7.395  -5.229  23.474  0.00  0.00    +0.046 A 
ATOM     16  C   UNL     1       7.922  -3.935  23.424  0.00  0.00    +0.012 A 
BRANCH  14  17
ATOM     17  O   UNL     1       5.712  -6.782  22.746  0.00  0.00    -0.507 OA
ATOM     18  H   UNL     1       5.177  -6.856  23.552  0.00  0.00    +0.292 HD
ENDBRANCH  14  17
ENDBRANCH   2  11
BRANCH   1  20
ATOM     19  C   UNL     1       6.602  -1.381  25.767  0.00  0.00    +0.009 C 
ATOM     20  C   UNL     1       6.133  -0.840  24.422  0.00  0.00    +0.032 C 
ENDBRANCH   1  20
BRANCH   2  21
ATOM     21  C   UNL     1       9.066  -1.375  21.777  0.00  0.00    +0.032 C 
ATOM     22  C   UNL     1      10.378  -1.548  22.531  0.00  0.00    +0.009 C 
ENDBRANCH   2  21
TORSDOF 6
ENDMDL
MODEL 5
REMARK VINA RESULT:      -5.6      2.663      6.768
REMARK  Name = 
REMARK  8 active torsions:
REMARK  status: ('A' for Active; 'I' for Inactive)
REMARK    1  A    between atoms: C_1  and  C_2
REMARK    2  A    between atoms: C_2  and  C_3
REMARK    3  A    between atoms: C_3  and  C_14
REMARK    4  A    between atoms: C_4  and  C_5
REMARK    5  A    between atoms: C_4  and  C_7
REMARK    6  A    between atoms: C_5  and  C_6
REMARK    7  A    between atoms: C_10  and  O_11
REMARK    8  A    between atoms: C_17  and  O_18
REMARK                            x       y       z     vdW  Elec       q    Type
REMARK                         _______ _______ _______ _____ _____    ______ ____
ROOT
ATOM      1  C   UNL     1       7.658  -1.175  24.407  0.00  0.00    -0.037 C 
ATOM      2  C   UNL     1       8.633  -0.342  23.962  0.00  0.00    -0.037 C 
ENDROOT
BRANCH   1   3
ATOM      3  C   UNL     1       8.001  -2.564  24.782  0.00  0.00    -0.021 A 
ATOM      4  C   UNL     1       7.922  -3.584  23.823  0.00  0.00    +0.012 A 
ATOM      5  C   UNL     1       8.346  -4.874  24.136  0.00  0.00    +0.046 A 
ATOM      6  C   UNL     1       8.850  -5.144  25.403  0.00  0.00    +0.117 A 
ATOM      7  C   UNL     1       8.898  -4.154  26.380  0.00  0.00    +0.046 A 
ATOM      8  C   UNL     1       8.472  -2.860  26.066  0.00  0.00    +0.012 A 
BRANCH   6   9
ATOM      9  O   UNL     1       9.313  -6.403  25.647  0.00  0.00    -0.507 OA
ATOM     10  H   UNL     1      10.188  -6.492  25.235  0.00  0.00    +0.292 HD
ENDBRANCH   6   9
ENDBRANCH   1   3
BRANCH   2  11
ATOM     11  C   UNL     1       8.329   1.038  23.538  0.00  0.00    -0.021 A 
ATOM     12  C   UNL     1       7.787   1.271  22.266  0.00  0.00    +0.012 A 
ATOM     13  C   UNL     1       7.565   2.576  21.827  0.00  0.00    +0.046 A 
ATOM     14  C   UNL     1       7.890   3.644  22.654  0.00  0.00    +0.117 A 
ATOM     15  C   UNL     1       8.414   3.432  23.926  0.00  0.00    +0.046 A 
ATOM     16  C   UNL     1       8.629   2.123  24.368  0.00  0.00    +0.012 A 
BRANCH  14  17
ATOM     17  O   UNL     1       7.687   4.903  22.170  0.00  0.00    -0.507 OA
ATOM     18  H   UNL     1       7.151   4.842  21.363  0.00  0.00    +0.292 HD
ENDBRANCH  14  17
ENDBRANCH   2  11
BRANCH   1  20
ATOM     19  C   UNL     1       5.683  -0.312  25.783  0.00  0.00    +0.009 C 
ATOM     20  C   UNL     1       6.170  -0.874  24.453  0.00  0.00    +0.032 C 
ENDBRANCH   1  20
BRANCH   2  21
ATOM     21  C   UNL     1      10.087  -0.731  23.729  0.00  0.00    +0.032 C 
ATOM     22  C   UNL     1      10.374  -1.306  22.348  0.00  0.00    +0.009 C 
ENDBRANCH   2  21
TORSDOF 6
ENDMDL
MODEL 6
REMARK VINA RESULT:      -5.6      2.292      3.317
REMARK  Name = 
REMARK  8 active torsions:
REMARK  status: ('A' for Active; 'I' for Inactive)
REMARK    1  A    between atoms: C_1  and  C_2
REMARK    2  A    between atoms: C_2  and  C_3
REMARK    3  A    between atoms: C_3  and  C_14
REMARK    4  A    between atoms: C_4  and  C_5
REMARK    5  A    between atoms: C_4  and  C_7
REMARK    6  A    between atoms: C_5  and  C_6
REMARK    7  A    between atoms: C_10  and  O_11
REMARK    8  A    between atoms: C_17  and  O_18
REMARK                            x       y       z     vdW  Elec       q    Type
REMARK                         _______ _______ _______ _____ _____    ______ ____
ROOT
ATOM      1  C   UNL     1       8.194  -0.620  22.770  0.00  0.00    -0.037 C 
ATOM      2  C   UNL     1       7.206  -1.393  23.290  0.00  0.00    -0.037 C 
ENDROOT
BRANCH   1   3
ATOM      3  C   UNL     1       8.250   0.818  23.113  0.00  0.00    -0.021 A 
ATOM      4  C   UNL     1       8.918   1.232  24.273  0.00  0.00    +0.012 A 
ATOM      5  C   UNL     1       9.069   2.590  24.547  0.00  0.00    +0.046 A 
ATOM      6  C   UNL     1       8.555   3.532  23.662  0.00  0.00    +0.117 A 
ATOM      7  C   UNL     1       7.854   3.138  22.527  0.00  0.00    +0.046 A 
ATOM      8  C   UNL     1       7.703   1.777  22.252  0.00  0.00    +0.012 A 
BRANCH   6   9
ATOM      9  O   UNL     1       8.780   4.848  23.936  0.00  0.00    -0.507 OA
ATOM     10  H   UNL     1       8.501   5.023  24.849  0.00  0.00    +0.292 HD
ENDBRANCH   6   9
ENDBRANCH   1   3
BRANCH   2  11
ATOM     11  C   UNL     1       7.087  -2.822  22.943  0.00  0.00    -0.021 A 
ATOM     12  C   UNL     1       6.187  -3.222  21.945  0.00  0.00    +0.012 A 
ATOM     13  C   UNL     1       6.012  -4.576  21.660  0.00  0.00    +0.046 A 
ATOM     14  C   UNL     1       6.729  -5.527  22.376  0.00  0.00    +0.117 A 
ATOM     15  C   UNL     1       7.638  -5.148  23.360  0.00  0.00    +0.046 A 
ATOM     16  C   UNL     1       7.819  -3.790  23.639  0.00  0.00    +0.012 A 
BRANCH  14  17
ATOM     17  O   UNL     1       6.502  -6.841  22.087  0.00  0.00    -0.507 OA
ATOM     18  H   UNL     1       5.863  -6.891  21.358  0.00  0.00    +0.292 HD
ENDBRANCH  14  17
ENDBRANCH   2  11
BRANCH   1  20
ATOM     19  C   UNL     1      10.558  -1.484  22.325  0.00  0.00    +0.009 C 
ATOM     20  C   UNL     1       9.221  -1.049  21.738  0.00  0.00    +0.032 C 
ENDBRANCH   1  20
BRANCH   2  21
ATOM     21  C   UNL     1       6.062  -0.893  24.163  0.00  0.00    +0.032 C 
ATOM     22  C   UNL     1       6.276  -1.087  25.658  0.00  0.00    +0.009 C 
ENDBRANCH   2  21
TORSDOF 6
ENDMDL
MODEL 7
REMARK VINA RESULT:      -5.6      2.006      6.499
REMARK  Name = 
REMARK  8 active torsions:
REMARK  status: ('A' for Active; 'I' for Inactive)
REMARK    1  A    between atoms: C_1  and  C_2
REMARK    2  A    between atoms: C_2  and  C_3
REMARK    3  A    between atoms: C_3  and  C_14
REMARK    4  A    between atoms: C_4  and  C_5
REMARK    5  A    between atoms: C_4  and  C_7
REMARK    6  A    between atoms: C_5  and  C_6
REMARK    7  A    between atoms: C_10  and  O_11
REMARK    8  A    between atoms: C_17  and  O_18
REMARK                            x       y       z     vdW  Elec       q    Type
REMARK                         _______ _______ _______ _____ _____    ______ ____
ROOT
ATOM      1  C   UNL     1       7.376  -2.373  25.201  0.00  0.00    -0.037 C 
ATOM      2  C   UNL     1       7.684  -2.420  23.879  0.00  0.00    -0.037 C 
ENDROOT
BRANCH   1   3
ATOM      3  C   UNL     1       6.824  -3.575  25.863  0.00  0.00    -0.021 A 
ATOM      4  C   UNL     1       5.458  -3.868  25.749  0.00  0.00    +0.012 A 
ATOM      5  C   UNL     1       4.949  -5.053  26.278  0.00  0.00    +0.046 A 
ATOM      6  C   UNL     1       5.803  -5.944  26.916  0.00  0.00    +0.117 A 
ATOM      7  C   UNL     1       7.155  -5.651  27.074  0.00  0.00    +0.046 A 
ATOM      8  C   UNL     1       7.665  -4.463  26.545  0.00  0.00    +0.012 A 
BRANCH   6   9
ATOM      9  O   UNL     1       5.276  -7.120  27.362  0.00  0.00    -0.507 OA
ATOM     10  H   UNL     1       5.938  -7.819  27.237  0.00  0.00    +0.292 HD
ENDBRANCH   6   9
ENDBRANCH   1   3
BRANCH   2  11
ATOM     11  C   UNL     1       8.197  -1.233  23.168  0.00  0.00    -0.021 A 
ATOM     12  C   UNL     1       9.547  -1.176  22.796  0.00  0.00    +0.012 A 
ATOM     13  C   UNL     1      10.059  -0.029  22.190  0.00  0.00    +0.046 A 
ATOM     14  C   UNL     1       9.225   1.060  21.964  0.00  0.00    +0.117 A 
ATOM     15  C   UNL     1       7.879   1.015  22.313  0.00  0.00    +0.046 A 
ATOM     16  C   UNL     1       7.364  -0.138  22.913  0.00  0.00    +0.012 A 
BRANCH  14  17
ATOM     17  O   UNL     1       9.777   2.172  21.400  0.00  0.00    -0.507 OA
ATOM     18  H   UNL     1       9.980   2.809  22.104  0.00  0.00    +0.292 HD
ENDBRANCH  14  17
ENDBRANCH   2  11
BRANCH   1  20
ATOM     19  C   UNL     1       8.760  -0.905  26.770  0.00  0.00    +0.009 C 
ATOM     20  C   UNL     1       7.418  -1.144  26.090  0.00  0.00    +0.032 C 
ENDBRANCH   1  20
BRANCH   2  21
ATOM     21  C   UNL     1       7.438  -3.608  22.958  0.00  0.00    +0.032 C 
ATOM     22  C   UNL     1       6.183  -3.496  22.103  0.00  0.00    +0.009 C 
ENDBRANCH   2  21
TORSDOF 6
ENDMDL
MODEL 8
REMARK VINA RESULT:      -5.6      1.076      2.672
REMARK  Name = 
REMARK  8 active torsions:
REMARK  status: ('A' for Active; 'I' for Inactive)
REMARK    1  A    between atoms: C_1  and  C_2
REMARK    2  A    between atoms: C_2  and  C_3
REMARK    3  A    between atoms: C_3  and  C_14
REMARK    4  A    between atoms: C_4  and  C_5
REMARK    5  A    between atoms: C_4  and  C_7
REMARK    6  A    between atoms: C_5  and  C_6
REMARK    7  A    between atoms: C_10  and  O_11
REMARK    8  A    between atoms: C_17  and  O_18
REMARK                            x       y       z     vdW  Elec       q    Type
REMARK                         _______ _______ _______ _____ _____    ______ ____
ROOT
ATOM      1  C   UNL     1       7.042  -3.083  24.462  0.00  0.00    -0.037 C 
ATOM      2  C   UNL     1       7.270  -4.234  25.145  0.00  0.00    -0.037 C 
ENDROOT
BRANCH   1   3
ATOM      3  C   UNL     1       8.073  -2.022  24.459  0.00  0.00    -0.021 A 
ATOM      4  C   UNL     1       8.077  -1.052  25.470  0.00  0.00    +0.012 A 
ATOM      5  C   UNL     1       9.106  -0.114  25.537  0.00  0.00    +0.046 A 
ATOM      6  C   UNL     1      10.129  -0.147  24.596  0.00  0.00    +0.117 A 
ATOM      7  C   UNL     1      10.119  -1.077  23.561  0.00  0.00    +0.046 A 
ATOM      8  C   UNL     1       9.088  -2.017  23.494  0.00  0.00    +0.012 A 
BRANCH   6   9
ATOM      9  O   UNL     1      11.148   0.748  24.735  0.00  0.00    -0.507 OA
ATOM     10  H   UNL     1      11.764   0.628  23.994  0.00  0.00    +0.292 HD
ENDBRANCH   6   9
ENDBRANCH   1   3
BRANCH   2  11
ATOM     11  C   UNL     1       6.253  -5.301  25.211  0.00  0.00    -0.021 A 
ATOM     12  C   UNL     1       5.756  -5.861  24.026  0.00  0.00    +0.012 A 
ATOM     13  C   UNL     1       4.742  -6.818  24.074  0.00  0.00    +0.046 A 
ATOM     14  C   UNL     1       4.222  -7.206  25.303  0.00  0.00    +0.117 A 
ATOM     15  C   UNL     1       4.714  -6.673  26.490  0.00  0.00    +0.046 A 
ATOM     16  C   UNL     1       5.736  -5.720  26.442  0.00  0.00    +0.012 A 
BRANCH  14  17
ATOM     17  O   UNL     1       3.209  -8.120  25.300  0.00  0.00    -0.507 OA
ATOM     18  H   UNL     1       3.182  -8.550  24.430  0.00  0.00    +0.292 HD
ENDBRANCH  14  17
ENDBRANCH   2  11
BRANCH   1  20
ATOM     19  C   UNL     1       5.764  -2.865  22.259  0.00  0.00    +0.009 C 
ATOM     20  C   UNL     1       5.749  -2.688  23.772  0.00  0.00    +0.032 C 
ENDBRANCH   1  20
BRANCH   2  21
ATOM     21  C   UNL     1       8.495  -4.523  26.004  0.00  0.00    +0.032 C 
ATOM     22  C   UNL     1       9.590  -5.311  25.297  0.00  0.00    +0.009 C 
ENDBRANCH   2  21
TORSDOF 6
ENDMDL
MODEL 9
REMARK VINA RESULT:      -5.6      2.276      6.908
REMARK  Name = 
REMARK  8 active torsions:
REMARK  status: ('A' for Active; 'I' for Inactive)
REMARK    1  A    between atoms: C_1  and  C_2
REMARK    2  A    between atoms: C_2  and  C_3
REMARK    3  A    between atoms: C_3  and  C_14
REMARK    4  A    between atoms: C_4  and  C_5
REMARK    5  A    between atoms: C_4  and  C_7
REMARK    6  A    between atoms: C_5  and  C_6
REMARK    7  A    between atoms: C_10  and  O_11
REMARK    8  A    between atoms: C_17  and  O_18
REMARK                            x       y       z     vdW  Elec       q    Type
REMARK                         _______ _______ _______ _____ _____    ______ ____
ROOT
ATOM      1  C   UNL     1       8.461  -2.154  24.744  0.00  0.00    -0.037 C 
ATOM      2  C   UNL     1       8.710  -0.984  25.386  0.00  0.00    -0.037 C 
ENDROOT
BRANCH   1   3
ATOM      3  C   UNL     1       7.935  -3.307  25.509  0.00  0.00    -0.021 A 
ATOM      4  C   UNL     1       8.823  -4.249  26.047  0.00  0.00    +0.012 A 
ATOM      5  C   UNL     1       8.347  -5.277  26.858  0.00  0.00    +0.046 A 
ATOM      6  C   UNL     1       6.986  -5.362  27.133  0.00  0.00    +0.117 A 
ATOM      7  C   UNL     1       6.086  -4.459  26.575  0.00  0.00    +0.046 A 
ATOM      8  C   UNL     1       6.564  -3.429  25.761  0.00  0.00    +0.012 A 
BRANCH   6   9
ATOM      9  O   UNL     1       6.571  -6.344  27.983  0.00  0.00    -0.507 OA
ATOM     10  H   UNL     1       5.601  -6.377  27.960  0.00  0.00    +0.292 HD
ENDBRANCH   6   9
ENDBRANCH   1   3
BRANCH   2  11
ATOM     11  C   UNL     1       9.274   0.177  24.672  0.00  0.00    -0.021 A 
ATOM     12  C   UNL     1      10.658   0.402  24.693  0.00  0.00    +0.012 A 
ATOM     13  C   UNL     1      11.194   1.536  24.084  0.00  0.00    +0.046 A 
ATOM     14  C   UNL     1      10.348   2.447  23.463  0.00  0.00    +0.117 A 
ATOM     15  C   UNL     1       8.973   2.233  23.419  0.00  0.00    +0.046 A 
ATOM     16  C   UNL     1       8.438   1.092  24.023  0.00  0.00    +0.012 A 
BRANCH  14  17
ATOM     17  O   UNL     1      10.912   3.559  22.910  0.00  0.00    -0.507 OA
ATOM     18  H   UNL     1      10.747   3.548  21.954  0.00  0.00    +0.292 HD
ENDBRANCH  14  17
ENDBRANCH   2  11
BRANCH   1  20
ATOM     19  C   UNL     1       7.593  -2.392  22.351  0.00  0.00    +0.009 C 
ATOM     20  C   UNL     1       8.786  -2.472  23.296  0.00  0.00    +0.032 C 
ENDBRANCH   1  20
BRANCH   2  21
ATOM     21  C   UNL     1       8.570  -0.753  26.885  0.00  0.00    +0.032 C 
ATOM     22  C   UNL     1       7.264  -0.090  27.303  0.00  0.00    +0.009 C 
ENDBRANCH   2  21
TORSDOF 6
ENDMDL
