MODEL 1
REMARK VINA RESULT:      -8.0      0.000      0.000
REMARK  Name = 
REMARK  5 active torsions:
REMARK  status: ('A' for Active; 'I' for Inactive)
REMARK    1  A    between atoms: N_4  and  C_5
REMARK    2  A    between atoms: C_5  and  C_6
REMARK    3  A    between atoms: C_8  and  C_12
REMARK    4  A    between atoms: C_13  and  O_14
REMARK    5  A    between atoms: C_15  and  C_19
REMARK                            x       y       z     vdW  Elec       q    Type
REMARK                         _______ _______ _______ _____ _____    ______ ____
ROOT
ATOM      1  C   UNL     1       8.604   1.094  22.801  0.00  0.00    +0.024 A 
ATOM      2  C   UNL     1       9.065   0.537  21.591  0.00  0.00    +0.012 A 
ATOM      3  C   UNL     1       9.365  -0.824  21.473  0.00  0.00    +0.001 A 
ATOM      4  C   UNL     1       9.221  -1.676  22.566  0.00  0.00    +0.013 A 
ATOM      5  C   UNL     1       8.751  -1.188  23.789  0.00  0.00    +0.040 A 
ATOM      6  C   UNL     1       8.448   0.194  23.885  0.00  0.00    +0.134 A 
ENDROOT
BRANCH   5   7
ATOM      7  C   UNL     1       8.461  -2.133  24.883  0.00  0.00    +0.051 A 
ATOM      8  N   UNL     1       7.334  -2.043  25.675  0.00  0.00    -0.354 N 
ATOM      9  H   UNL     1       6.660  -1.294  25.585  0.00  0.00    +0.166 HD
ATOM     10  C   UNL     1       7.142  -3.198  26.393  0.00  0.00    +0.050 A 
ATOM     11  C   UNL     1       6.071  -3.611  27.182  0.00  0.00    +0.046 A 
ATOM     12  C   UNL     1       6.195  -4.888  27.707  0.00  0.00    +0.113 A 
ATOM     13  N   UNL     1       7.261  -5.702  27.530  0.00  0.00    -0.263 NA
ATOM     14  C   UNL     1       8.299  -5.264  26.775  0.00  0.00    +0.120 A 
ATOM     15  C   UNL     1       8.258  -4.001  26.175  0.00  0.00    +0.018 A 
ATOM     16  C   UNL     1       9.111  -3.291  25.284  0.00  0.00    +0.037 A 
ENDBRANCH   5   7
BRANCH   1  21
ATOM     17  C   UNL     1       8.990   4.886  23.321  0.00  0.00    -0.030 A 
ATOM     18  C   UNL     1       7.726   5.339  22.938  0.00  0.00    +0.005 A 
ATOM     19  C   UNL     1       6.738   4.428  22.584  0.00  0.00    +0.001 A 
ATOM     20  C   UNL     1       7.010   3.057  22.592  0.00  0.00    +0.008 A 
ATOM     21  C   UNL     1       8.294   2.556  22.882  0.00  0.00    -0.014 A 
ATOM     22  C   UNL     1       9.271   3.506  23.253  0.00  0.00    +0.013 A 
BRANCH  17  23
ATOM     23  C   UNL     1      10.030   5.868  23.794  0.00  0.00    +0.141 C 
BRANCH  23  28
ATOM     24  N   UNL     1      13.536   5.472  23.082  0.00  0.00    -0.313 N 
ATOM     25  H   UNL     1      13.505   5.585  22.080  0.00  0.00    +0.146 HD
ATOM     26  H   UNL     1      14.420   5.702  23.520  0.00  0.00    +0.146 HD
ATOM     27  C   UNL     1      12.452   5.850  23.802  0.00  0.00    +0.297 C 
ATOM     28  N   UNL     1      11.286   5.688  23.112  0.00  0.00    -0.295 N 
ATOM     29  H   UNL     1      11.309   5.052  22.331  0.00  0.00    +0.151 HD
ATOM     30  O   UNL     1      12.547   6.265  24.944  0.00  0.00    -0.253 OA
ENDBRANCH  23  28
ENDBRANCH  17  23
ENDBRANCH   1  21
BRANCH   6  31
ATOM     31  O   UNL     1       7.916   0.632  25.083  0.00  0.00    -0.505 OA
ATOM     32  H   UNL     1       7.970  -0.121  25.698  0.00  0.00    +0.292 HD
ENDBRANCH   6  31
TORSDOF 5
ENDMDL
MODEL 2
REMARK VINA RESULT:      -7.9      2.077      2.930
REMARK  Name = 
REMARK  5 active torsions:
REMARK  status: ('A' for Active; 'I' for Inactive)
REMARK    1  A    between atoms: N_4  and  C_5
REMARK    2  A    between atoms: C_5  and  C_6
REMARK    3  A    between atoms: C_8  and  C_12
REMARK    4  A    between atoms: C_13  and  O_14
REMARK    5  A    between atoms: C_15  and  C_19
REMARK                            x       y       z     vdW  Elec       q    Type
REMARK                         _______ _______ _______ _____ _____    ______ ____
ROOT
ATOM      1  C   UNL     1       9.802   1.461  22.882  0.00  0.00    +0.024 A 
ATOM      2  C   UNL     1       9.650   1.080  21.533  0.00  0.00    +0.012 A 
ATOM      3  C   UNL     1       9.360  -0.238  21.167  0.00  0.00    +0.001 A 
ATOM      4  C   UNL     1       9.219  -1.226  22.140  0.00  0.00    +0.013 A 
ATOM      5  C   UNL     1       9.340  -0.909  23.496  0.00  0.00    +0.040 A 
ATOM      6  C   UNL     1       9.630   0.435  23.845  0.00  0.00    +0.134 A 
ENDROOT
BRANCH   5   7
ATOM      7  C   UNL     1       9.036  -1.935  24.511  0.00  0.00    +0.051 A 
ATOM      8  N   UNL     1       8.065  -1.769  25.478  0.00  0.00    -0.354 N 
ATOM      9  H   UNL     1       7.535  -0.914  25.583  0.00  0.00    +0.166 HD
ATOM     10  C   UNL     1       7.765  -2.964  26.085  0.00  0.00    +0.050 A 
ATOM     11  C   UNL     1       6.756  -3.299  26.985  0.00  0.00    +0.046 A 
ATOM     12  C   UNL     1       6.714  -4.640  27.338  0.00  0.00    +0.113 A 
ATOM     13  N   UNL     1       7.576  -5.587  26.902  0.00  0.00    -0.263 NA
ATOM     14  C   UNL     1       8.562  -5.227  26.043  0.00  0.00    +0.120 A 
ATOM     15  C   UNL     1       8.672  -3.903  25.602  0.00  0.00    +0.018 A 
ATOM     16  C   UNL     1       9.510  -3.228  24.670  0.00  0.00    +0.037 A 
ENDBRANCH   5   7
BRANCH   1  21
ATOM     17  C   UNL     1       9.374   5.165  23.827  0.00  0.00    -0.030 A 
ATOM     18  C   UNL     1      10.705   5.559  23.978  0.00  0.00    +0.005 A 
ATOM     19  C   UNL     1      11.732   4.661  23.709  0.00  0.00    +0.001 A 
ATOM     20  C   UNL     1      11.436   3.355  23.305  0.00  0.00    +0.008 A 
ATOM     21  C   UNL     1      10.111   2.884  23.227  0.00  0.00    -0.014 A 
ATOM     22  C   UNL     1       9.091   3.826  23.491  0.00  0.00    +0.013 A 
BRANCH  17  23
ATOM     23  C   UNL     1       8.266   6.166  24.028  0.00  0.00    +0.141 C 
BRANCH  23  28
ATOM     24  N   UNL     1       6.387   7.108  21.106  0.00  0.00    -0.313 N 
ATOM     25  H   UNL     1       7.120   7.576  20.594  0.00  0.00    +0.146 HD
ATOM     26  H   UNL     1       5.637   6.726  20.543  0.00  0.00    +0.146 HD
ATOM     27  C   UNL     1       6.740   6.325  22.155  0.00  0.00    +0.297 C 
ATOM     28  N   UNL     1       7.862   6.775  22.787  0.00  0.00    -0.295 N 
ATOM     29  H   UNL     1       8.109   7.739  22.635  0.00  0.00    +0.151 HD
ATOM     30  O   UNL     1       6.089   5.346  22.478  0.00  0.00    -0.253 OA
ENDBRANCH  23  28
ENDBRANCH  17  23
ENDBRANCH   1  21
BRANCH   6  31
ATOM     31  O   UNL     1       9.670   0.732  25.194  0.00  0.00    -0.505 OA
ATOM     32  H   UNL     1       8.764   0.984  25.446  0.00  0.00    +0.292 HD
ENDBRANCH   6  31
TORSDOF 5
ENDMDL
MODEL 3
REMARK VINA RESULT:      -7.8      1.194      1.344
REMARK  Name = 
REMARK  5 active torsions:
REMARK  status: ('A' for Active; 'I' for Inactive)
REMARK    1  A    between atoms: N_4  and  C_5
REMARK    2  A    between atoms: C_5  and  C_6
REMARK    3  A    between atoms: C_8  and  C_12
REMARK    4  A    between atoms: C_13  and  O_14
REMARK    5  A    between atoms: C_15  and  C_19
REMARK                            x       y       z     vdW  Elec       q    Type
REMARK                         _______ _______ _______ _____ _____    ______ ____
ROOT
ATOM      1  C   UNL     1       8.995   0.250  23.415  0.00  0.00    +0.024 A 
ATOM      2  C   UNL     1      10.064  -0.303  22.683  0.00  0.00    +0.012 A 
ATOM      3  C   UNL     1      10.431  -1.646  22.812  0.00  0.00    +0.001 A 
ATOM      4  C   UNL     1       9.743  -2.484  23.687  0.00  0.00    +0.013 A 
ATOM      5  C   UNL     1       8.661  -2.002  24.429  0.00  0.00    +0.040 A 
ATOM      6  C   UNL     1       8.303  -0.637  24.279  0.00  0.00    +0.134 A 
ENDROOT
BRANCH   5   7
ATOM      7  C   UNL     1       7.854  -2.941  25.230  0.00  0.00    +0.051 A 
ATOM      8  N   UNL     1       6.668  -3.485  24.779  0.00  0.00    -0.354 N 
ATOM      9  H   UNL     1       6.253  -3.235  23.891  0.00  0.00    +0.166 HD
ATOM     10  C   UNL     1       6.284  -4.547  25.561  0.00  0.00    +0.050 A 
ATOM     11  C   UNL     1       5.263  -5.479  25.391  0.00  0.00    +0.046 A 
ATOM     12  C   UNL     1       5.214  -6.470  26.361  0.00  0.00    +0.113 A 
ATOM     13  N   UNL     1       6.043  -6.557  27.426  0.00  0.00    -0.263 NA
ATOM     14  C   UNL     1       7.014  -5.623  27.577  0.00  0.00    +0.120 A 
ATOM     15  C   UNL     1       7.167  -4.598  26.636  0.00  0.00    +0.018 A 
ATOM     16  C   UNL     1       8.103  -3.541  26.455  0.00  0.00    +0.037 A 
ENDBRANCH   5   7
BRANCH   1  21
ATOM     17  C   UNL     1       9.196   4.091  23.449  0.00  0.00    -0.030 A 
ATOM     18  C   UNL     1       7.992   4.428  22.827  0.00  0.00    +0.005 A 
ATOM     19  C   UNL     1       7.093   3.432  22.464  0.00  0.00    +0.001 A 
ATOM     20  C   UNL     1       7.398   2.088  22.704  0.00  0.00    +0.008 A 
ATOM     21  C   UNL     1       8.637   1.693  23.244  0.00  0.00    -0.014 A 
ATOM     22  C   UNL     1       9.521   2.729  23.617  0.00  0.00    +0.013 A 
BRANCH  17  23
ATOM     23  C   UNL     1      10.126   5.176  23.926  0.00  0.00    +0.141 C 
BRANCH  23  28
ATOM     24  N   UNL     1      13.581   5.487  22.967  0.00  0.00    -0.313 N 
ATOM     25  H   UNL     1      13.464   5.496  21.965  0.00  0.00    +0.146 HD
ATOM     26  H   UNL     1      14.416   5.943  23.313  0.00  0.00    +0.146 HD
ATOM     27  C   UNL     1      12.486   5.685  23.740  0.00  0.00    +0.297 C 
ATOM     28  N   UNL     1      11.346   5.211  23.161  0.00  0.00    -0.295 N 
ATOM     29  H   UNL     1      11.462   4.525  22.433  0.00  0.00    +0.151 HD
ATOM     30  O   UNL     1      12.556   6.217  24.835  0.00  0.00    -0.253 OA
ENDBRANCH  23  28
ENDBRANCH  17  23
ENDBRANCH   1  21
BRANCH   6  31
ATOM     31  O   UNL     1       7.185  -0.208  24.968  0.00  0.00    -0.505 OA
ATOM     32  H   UNL     1       6.938  -0.934  25.568  0.00  0.00    +0.292 HD
ENDBRANCH   6  31
TORSDOF 5
ENDMDL
MODEL 4
REMARK VINA RESULT:      -7.7      2.556      9.144
REMARK  Name = 
REMARK  5 active torsions:
REMARK  status: ('A' for Active; 'I' for Inactive)
REMARK    1  A    between atoms: N_4  and  C_5
REMARK    2  A    between atoms: C_5  and  C_6
REMARK    3  A    between atoms: C_8  and  C_12
REMARK    4  A    between atoms: C_13  and  O_14
REMARK    5  A    between atoms: C_15  and  C_19
REMARK                            x       y       z     vdW  Elec       q    Type
REMARK                         _______ _______ _______ _____ _____    ______ ____
ROOT
ATOM      1  C   UNL     1       7.826  -1.552  22.946  0.00  0.00    +0.024 A 
ATOM      2  C   UNL     1       8.933  -1.860  22.130  0.00  0.00    +0.012 A 
ATOM      3  C   UNL     1       9.672  -0.865  21.483  0.00  0.00    +0.001 A 
ATOM      4  C   UNL     1       9.323   0.477  21.623  0.00  0.00    +0.013 A 
ATOM      5  C   UNL     1       8.246   0.850  22.433  0.00  0.00    +0.040 A 
ATOM      6  C   UNL     1       7.514  -0.176  23.084  0.00  0.00    +0.134 A 
ENDROOT
BRANCH   5   7
ATOM      7  C   UNL     1       7.992   2.280  22.689  0.00  0.00    +0.051 A 
ATOM      8  N   UNL     1       8.708   3.016  23.611  0.00  0.00    -0.354 N 
ATOM      9  H   UNL     1       9.419   2.610  24.205  0.00  0.00    +0.166 HD
ATOM     10  C   UNL     1       8.499   4.362  23.436  0.00  0.00    +0.050 A 
ATOM     11  C   UNL     1       9.123   5.463  24.018  0.00  0.00    +0.046 A 
ATOM     12  C   UNL     1       8.693   6.693  23.542  0.00  0.00    +0.113 A 
ATOM     13  N   UNL     1       7.727   6.874  22.613  0.00  0.00    -0.263 NA
ATOM     14  C   UNL     1       7.122   5.784  22.080  0.00  0.00    +0.120 A 
ATOM     15  C   UNL     1       7.504   4.495  22.471  0.00  0.00    +0.018 A 
ATOM     16  C   UNL     1       7.143   3.180  22.063  0.00  0.00    +0.037 A 
ENDBRANCH   5   7
BRANCH   1  21
ATOM     17  C   UNL     1       6.757  -4.215  25.508  0.00  0.00    -0.030 A 
ATOM     18  C   UNL     1       5.563  -4.666  24.944  0.00  0.00    +0.005 A 
ATOM     19  C   UNL     1       5.141  -4.168  23.716  0.00  0.00    +0.001 A 
ATOM     20  C   UNL     1       5.902  -3.202  23.051  0.00  0.00    +0.008 A 
ATOM     21  C   UNL     1       7.065  -2.650  23.621  0.00  0.00    -0.014 A 
ATOM     22  C   UNL     1       7.475  -3.188  24.861  0.00  0.00    +0.013 A 
BRANCH  17  23
ATOM     23  C   UNL     1       7.260  -4.823  26.792  0.00  0.00    +0.141 C 
BRANCH  23  28
ATOM     24  N   UNL     1       5.353  -7.390  28.445  0.00  0.00    -0.313 N 
ATOM     25  H   UNL     1       5.574  -8.164  27.836  0.00  0.00    +0.146 HD
ATOM     26  H   UNL     1       5.097  -7.639  29.393  0.00  0.00    +0.146 HD
ATOM     27  C   UNL     1       6.114  -6.272  28.358  0.00  0.00    +0.297 C 
ATOM     28  N   UNL     1       6.589  -6.061  27.097  0.00  0.00    -0.295 N 
ATOM     29  H   UNL     1       6.103  -6.528  26.349  0.00  0.00    +0.151 HD
ATOM     30  O   UNL     1       6.314  -5.549  29.320  0.00  0.00    -0.253 OA
ENDBRANCH  23  28
ENDBRANCH  17  23
ENDBRANCH   1  21
BRANCH   6  31
ATOM     31  O   UNL     1       6.503   0.227  23.936  0.00  0.00    -0.505 OA
ATOM     32  H   UNL     1       6.401  -0.482  24.594  0.00  0.00    +0.292 HD
ENDBRANCH   6  31
TORSDOF 5
ENDMDL
MODEL 5
REMARK VINA RESULT:      -7.7      2.151      9.260
REMARK  Name = 
REMARK  5 active torsions:
REMARK  status: ('A' for Active; 'I' for Inactive)
REMARK    1  A    between atoms: N_4  and  C_5
REMARK    2  A    between atoms: C_5  and  C_6
REMARK    3  A    between atoms: C_8  and  C_12
REMARK    4  A    between atoms: C_13  and  O_14
REMARK    5  A    between atoms: C_15  and  C_19
REMARK                            x       y       z     vdW  Elec       q    Type
REMARK                         _______ _______ _______ _____ _____    ______ ____
ROOT
ATOM      1  C   UNL     1       8.987  -1.889  23.663  0.00  0.00    +0.024 A 
ATOM      2  C   UNL     1       8.918  -2.120  22.274  0.00  0.00    +0.012 A 
ATOM      3  C   UNL     1       9.084  -1.089  21.345  0.00  0.00    +0.001 A 
ATOM      4  C   UNL     1       9.318   0.216  21.774  0.00  0.00    +0.013 A 
ATOM      5  C   UNL     1       9.415   0.509  23.138  0.00  0.00    +0.040 A 
ATOM      6  C   UNL     1       9.248  -0.554  24.063  0.00  0.00    +0.134 A 
ENDROOT
BRANCH   5   7
ATOM      7  C   UNL     1       9.814   1.863  23.563  0.00  0.00    +0.051 A 
ATOM      8  N   UNL     1      11.088   2.362  23.379  0.00  0.00    -0.354 N 
ATOM      9  H   UNL     1      11.841   1.813  22.987  0.00  0.00    +0.166 HD
ATOM     10  C   UNL     1      11.117   3.723  23.566  0.00  0.00    +0.050 A 
ATOM     11  C   UNL     1      12.127   4.652  23.334  0.00  0.00    +0.046 A 
ATOM     12  C   UNL     1      11.771   5.971  23.576  0.00  0.00    +0.113 A 
ATOM     13  N   UNL     1      10.566   6.380  24.033  0.00  0.00    -0.263 NA
ATOM     14  C   UNL     1       9.608   5.450  24.271  0.00  0.00    +0.120 A 
ATOM     15  C   UNL     1       9.857   4.094  24.030  0.00  0.00    +0.018 A 
ATOM     16  C   UNL     1       9.072   2.908  24.092  0.00  0.00    +0.037 A 
ENDBRANCH   5   7
BRANCH   1  21
ATOM     17  C   UNL     1       7.448  -4.234  26.296  0.00  0.00    -0.030 A 
ATOM     18  C   UNL     1       8.420  -5.233  26.365  0.00  0.00    +0.005 A 
ATOM     19  C   UNL     1       9.591  -5.119  25.625  0.00  0.00    +0.001 A 
ATOM     20  C   UNL     1       9.792  -4.011  24.795  0.00  0.00    +0.008 A 
ATOM     21  C   UNL     1       8.804  -3.024  24.621  0.00  0.00    -0.014 A 
ATOM     22  C   UNL     1       7.633  -3.161  25.399  0.00  0.00    +0.013 A 
BRANCH  17  23
ATOM     23  C   UNL     1       6.223  -4.313  27.169  0.00  0.00    +0.141 C 
BRANCH  23  28
ATOM     24  N   UNL     1       5.234  -7.442  28.649  0.00  0.00    -0.313 N 
ATOM     25  H   UNL     1       5.237  -8.015  27.818  0.00  0.00    +0.146 HD
ATOM     26  H   UNL     1       5.379  -7.937  29.520  0.00  0.00    +0.146 HD
ATOM     27  C   UNL     1       5.847  -6.235  28.595  0.00  0.00    +0.297 C 
ATOM     28  N   UNL     1       5.783  -5.673  27.353  0.00  0.00    -0.295 N 
ATOM     29  H   UNL     1       5.067  -6.022  26.737  0.00  0.00    +0.151 HD
ATOM     30  O   UNL     1       6.371  -5.731  29.573  0.00  0.00    -0.253 OA
ENDBRANCH  23  28
ENDBRANCH  17  23
ENDBRANCH   1  21
BRANCH   6  31
ATOM     31  O   UNL     1       9.422  -0.249  25.399  0.00  0.00    -0.505 OA
ATOM     32  H   UNL     1      10.379  -0.127  25.529  0.00  0.00    +0.292 HD
ENDBRANCH   6  31
TORSDOF 5
ENDMDL
MODEL 6
REMARK VINA RESULT:      -7.6      3.301      8.978
REMARK  Name = 
REMARK  5 active torsions:
REMARK  status: ('A' for Active; 'I' for Inactive)
REMARK    1  A    between atoms: N_4  and  C_5
REMARK    2  A    between atoms: C_5  and  C_6
REMARK    3  A    between atoms: C_8  and  C_12
REMARK    4  A    between atoms: C_13  and  O_14
REMARK    5  A    between atoms: C_15  and  C_19
REMARK                            x       y       z     vdW  Elec       q    Type
REMARK                         _______ _______ _______ _____ _____    ______ ____
ROOT
ATOM      1  C   UNL     1       8.255  -1.750  22.975  0.00  0.00    +0.024 A 
ATOM      2  C   UNL     1       9.590  -1.722  22.523  0.00  0.00    +0.012 A 
ATOM      3  C   UNL     1      10.153  -0.575  21.956  0.00  0.00    +0.001 A 
ATOM      4  C   UNL     1       9.396   0.585  21.812  0.00  0.00    +0.013 A 
ATOM      5  C   UNL     1       8.071   0.629  22.256  0.00  0.00    +0.040 A 
ATOM      6  C   UNL     1       7.522  -0.544  22.833  0.00  0.00    +0.134 A 
ENDROOT
BRANCH   5   7
ATOM      7  C   UNL     1       7.341   1.910  22.235  0.00  0.00    +0.051 A 
ATOM      8  N   UNL     1       5.963   1.987  22.198  0.00  0.00    -0.354 N 
ATOM      9  H   UNL     1       5.369   1.171  22.133  0.00  0.00    +0.166 HD
ATOM     10  C   UNL     1       5.532   3.256  22.500  0.00  0.00    +0.050 A 
ATOM     11  C   UNL     1       4.251   3.750  22.734  0.00  0.00    +0.046 A 
ATOM     12  C   UNL     1       4.202   5.091  23.085  0.00  0.00    +0.113 A 
ATOM     13  N   UNL     1       5.273   5.912  23.177  0.00  0.00    -0.263 NA
ATOM     14  C   UNL     1       6.505   5.408  22.921  0.00  0.00    +0.120 A 
ATOM     15  C   UNL     1       6.667   4.058  22.588  0.00  0.00    +0.018 A 
ATOM     16  C   UNL     1       7.789   3.217  22.348  0.00  0.00    +0.037 A 
ENDBRANCH   5   7
BRANCH   1  21
ATOM     17  C   UNL     1       7.294  -4.460  25.530  0.00  0.00    -0.030 A 
ATOM     18  C   UNL     1       6.543  -5.325  24.733  0.00  0.00    +0.005 A 
ATOM     19  C   UNL     1       6.405  -5.077  23.372  0.00  0.00    +0.001 A 
ATOM     20  C   UNL     1       7.004  -3.950  22.800  0.00  0.00    +0.008 A 
ATOM     21  C   UNL     1       7.694  -3.000  23.577  0.00  0.00    -0.014 A 
ATOM     22  C   UNL     1       7.829  -3.290  24.953  0.00  0.00    +0.013 A 
BRANCH  17  23
ATOM     23  C   UNL     1       7.520  -4.781  26.985  0.00  0.00    +0.141 C 
BRANCH  23  28
ATOM     24  N   UNL     1       5.634  -7.409  28.563  0.00  0.00    -0.313 N 
ATOM     25  H   UNL     1       6.124  -8.204  28.181  0.00  0.00    +0.146 HD
ATOM     26  H   UNL     1       5.168  -7.569  29.448  0.00  0.00    +0.146 HD
ATOM     27  C   UNL     1       6.216  -6.190  28.462  0.00  0.00    +0.297 C 
ATOM     28  N   UNL     1       6.982  -6.069  27.339  0.00  0.00    -0.295 N 
ATOM     29  H   UNL     1       6.793  -6.720  26.593  0.00  0.00    +0.151 HD
ATOM     30  O   UNL     1       6.036  -5.316  29.292  0.00  0.00    -0.253 OA
ENDBRANCH  23  28
ENDBRANCH  17  23
ENDBRANCH   1  21
BRANCH   6  31
ATOM     31  O   UNL     1       6.236  -0.449  23.330  0.00  0.00    -0.505 OA
ATOM     32  H   UNL     1       5.797   0.255  22.821  0.00  0.00    +0.292 HD
ENDBRANCH   6  31
TORSDOF 5
ENDMDL
MODEL 7
REMARK VINA RESULT:      -7.5      3.917      8.893
REMARK  Name = 
REMARK  5 active torsions:
REMARK  status: ('A' for Active; 'I' for Inactive)
REMARK    1  A    between atoms: N_4  and  C_5
REMARK    2  A    between atoms: C_5  and  C_6
REMARK    3  A    between atoms: C_8  and  C_12
REMARK    4  A    between atoms: C_13  and  O_14
REMARK    5  A    between atoms: C_15  and  C_19
REMARK                            x       y       z     vdW  Elec       q    Type
REMARK                         _______ _______ _______ _____ _____    ______ ____
ROOT
ATOM      1  C   UNL     1       8.341  -1.014  22.619  0.00  0.00    +0.024 A 
ATOM      2  C   UNL     1       9.533  -0.572  22.011  0.00  0.00    +0.012 A 
ATOM      3  C   UNL     1       9.729   0.767  21.657  0.00  0.00    +0.001 A 
ATOM      4  C   UNL     1       8.732   1.712  21.892  0.00  0.00    +0.013 A 
ATOM      5  C   UNL     1       7.534   1.341  22.509  0.00  0.00    +0.040 A 
ATOM      6  C   UNL     1       7.359  -0.022  22.864  0.00  0.00    +0.134 A 
ENDROOT
BRANCH   5   7
ATOM      7  C   UNL     1       6.560   2.382  22.887  0.00  0.00    +0.051 A 
ATOM      8  N   UNL     1       5.210   2.279  22.619  0.00  0.00    -0.354 N 
ATOM      9  H   UNL     1       4.810   1.506  22.103  0.00  0.00    +0.166 HD
ATOM     10  C   UNL     1       4.493   3.205  23.337  0.00  0.00    +0.050 A 
ATOM     11  C   UNL     1       3.119   3.362  23.504  0.00  0.00    +0.046 A 
ATOM     12  C   UNL     1       2.752   4.381  24.370  0.00  0.00    +0.113 A 
ATOM     13  N   UNL     1       3.611   5.211  25.004  0.00  0.00    -0.263 NA
ATOM     14  C   UNL     1       4.942   5.048  24.805  0.00  0.00    +0.120 A 
ATOM     15  C   UNL     1       5.418   4.029  23.973  0.00  0.00    +0.018 A 
ATOM     16  C   UNL     1       6.711   3.546  23.625  0.00  0.00    +0.037 A 
ENDBRANCH   5   7
BRANCH   1  21
ATOM     17  C   UNL     1       7.235  -4.697  22.535  0.00  0.00    -0.030 A 
ATOM     18  C   UNL     1       7.945  -5.215  23.620  0.00  0.00    +0.005 A 
ATOM     19  C   UNL     1       8.717  -4.374  24.413  0.00  0.00    +0.001 A 
ATOM     20  C   UNL     1       8.799  -3.009  24.117  0.00  0.00    +0.008 A 
ATOM     21  C   UNL     1       8.176  -2.456  22.982  0.00  0.00    -0.014 A 
ATOM     22  C   UNL     1       7.387  -3.334  22.206  0.00  0.00    +0.013 A 
BRANCH  17  23
ATOM     23  C   UNL     1       6.326  -5.593  21.734  0.00  0.00    +0.141 C 
BRANCH  23  28
ATOM     24  N   UNL     1       3.533  -6.904  23.586  0.00  0.00    -0.313 N 
ATOM     25  H   UNL     1       4.023  -7.588  24.144  0.00  0.00    +0.146 HD
ATOM     26  H   UNL     1       2.668  -6.557  23.982  0.00  0.00    +0.146 HD
ATOM     27  C   UNL     1       4.263  -5.958  22.948  0.00  0.00    +0.297 C 
ATOM     28  N   UNL     1       5.497  -6.410  22.581  0.00  0.00    -0.295 N 
ATOM     29  H   UNL     1       5.612  -7.410  22.528  0.00  0.00    +0.151 HD
ATOM     30  O   UNL     1       3.824  -4.842  22.728  0.00  0.00    -0.253 OA
ENDBRANCH  23  28
ENDBRANCH  17  23
ENDBRANCH   1  21
BRANCH   6  31
ATOM     31  O   UNL     1       6.196  -0.344  23.538  0.00  0.00    -0.505 OA
ATOM     32  H   UNL     1       5.471  -0.245  22.896  0.00  0.00    +0.292 HD
ENDBRANCH   6  31
TORSDOF 5
ENDMDL
MODEL 8
REMARK VINA RESULT:      -7.4      3.049      4.468
REMARK  Name = 
REMARK  5 active torsions:
REMARK  status: ('A' for Active; 'I' for Inactive)
REMARK    1  A    between atoms: N_4  and  C_5
REMARK    2  A    between atoms: C_5  and  C_6
REMARK    3  A    between atoms: C_8  and  C_12
REMARK    4  A    between atoms: C_13  and  O_14
REMARK    5  A    between atoms: C_15  and  C_19
REMARK                            x       y       z     vdW  Elec       q    Type
REMARK                         _______ _______ _______ _____ _____    ______ ____
ROOT
ATOM      1  C   UNL     1       8.739  -2.644  23.944  0.00  0.00    +0.024 A 
ATOM      2  C   UNL     1       9.812  -3.399  24.462  0.00  0.00    +0.012 A 
ATOM      3  C   UNL     1       9.609  -4.624  25.104  0.00  0.00    +0.001 A 
ATOM      4  C   UNL     1       8.322  -5.135  25.259  0.00  0.00    +0.013 A 
ATOM      5  C   UNL     1       7.218  -4.444  24.752  0.00  0.00    +0.040 A 
ATOM      6  C   UNL     1       7.447  -3.206  24.100  0.00  0.00    +0.134 A 
ENDROOT
BRANCH   5   7
ATOM      7  C   UNL     1       5.886  -5.077  24.791  0.00  0.00    +0.051 A 
ATOM      8  N   UNL     1       4.978  -4.978  23.757  0.00  0.00    -0.354 N 
ATOM      9  H   UNL     1       5.149  -4.425  22.928  0.00  0.00    +0.166 HD
ATOM     10  C   UNL     1       3.966  -5.896  23.900  0.00  0.00    +0.050 A 
ATOM     11  C   UNL     1       2.939  -6.261  23.032  0.00  0.00    +0.046 A 
ATOM     12  C   UNL     1       2.130  -7.290  23.491  0.00  0.00    +0.113 A 
ATOM     13  N   UNL     1       2.257  -7.906  24.688  0.00  0.00    -0.263 NA
ATOM     14  C   UNL     1       3.253  -7.514  25.521  0.00  0.00    +0.120 A 
ATOM     15  C   UNL     1       4.143  -6.504  25.140  0.00  0.00    +0.018 A 
ATOM     16  C   UNL     1       5.309  -5.930  25.720  0.00  0.00    +0.037 A 
ENDBRANCH   5   7
BRANCH   1  21
ATOM     17  C   UNL     1       9.448   1.091  23.357  0.00  0.00    -0.030 A 
ATOM     18  C   UNL     1       9.600   1.120  21.970  0.00  0.00    +0.005 A 
ATOM     19  C   UNL     1       9.406  -0.037  21.223  0.00  0.00    +0.001 A 
ATOM     20  C   UNL     1       9.077  -1.238  21.860  0.00  0.00    +0.008 A 
ATOM     21  C   UNL     1       9.003  -1.338  23.263  0.00  0.00    -0.014 A 
ATOM     22  C   UNL     1       9.189  -0.142  23.991  0.00  0.00    +0.013 A 
BRANCH  17  23
ATOM     23  C   UNL     1       9.566   2.364  24.154  0.00  0.00    +0.141 C 
BRANCH  23  28
ATOM     24  N   UNL     1      10.912   5.539  23.124  0.00  0.00    -0.313 N 
ATOM     25  H   UNL     1      11.140   5.309  22.169  0.00  0.00    +0.146 HD
ATOM     26  H   UNL     1      10.740   6.521  23.308  0.00  0.00    +0.146 HD
ATOM     27  C   UNL     1      10.093   4.702  23.805  0.00  0.00    +0.297 C 
ATOM     28  N   UNL     1      10.227   3.404  23.408  0.00  0.00    -0.295 N 
ATOM     29  H   UNL     1      11.079   3.166  22.926  0.00  0.00    +0.151 HD
ATOM     30  O   UNL     1       9.346   5.100  24.682  0.00  0.00    -0.253 OA
ENDBRANCH  23  28
ENDBRANCH  17  23
ENDBRANCH   1  21
BRANCH   6  31
ATOM     31  O   UNL     1       6.345  -2.583  23.545  0.00  0.00    -0.505 OA
ATOM     32  H   UNL     1       5.709  -3.288  23.335  0.00  0.00    +0.292 HD
ENDBRANCH   6  31
TORSDOF 5
ENDMDL
MODEL 9
REMARK VINA RESULT:      -7.3      4.033      9.675
REMARK  Name = 
REMARK  5 active torsions:
REMARK  status: ('A' for Active; 'I' for Inactive)
REMARK    1  A    between atoms: N_4  and  C_5
REMARK    2  A    between atoms: C_5  and  C_6
REMARK    3  A    between atoms: C_8  and  C_12
REMARK    4  A    between atoms: C_13  and  O_14
REMARK    5  A    between atoms: C_15  and  C_19
REMARK                            x       y       z     vdW  Elec       q    Type
REMARK                         _______ _______ _______ _____ _____    ______ ____
ROOT
ATOM      1  C   UNL     1       7.601  -2.876  24.513  0.00  0.00    +0.024 A 
ATOM      2  C   UNL     1       7.813  -3.101  25.888  0.00  0.00    +0.012 A 
ATOM      3  C   UNL     1       8.478  -2.172  26.694  0.00  0.00    +0.001 A 
ATOM      4  C   UNL     1       8.963  -0.985  26.149  0.00  0.00    +0.013 A 
ATOM      5  C   UNL     1       8.769  -0.693  24.796  0.00  0.00    +0.040 A 
ATOM      6  C   UNL     1       8.088  -1.648  23.998  0.00  0.00    +0.134 A 
ENDROOT
BRANCH   5   7
ATOM      7  C   UNL     1       9.153   0.632  24.277  0.00  0.00    +0.051 A 
ATOM      8  N   UNL     1       8.300   1.718  24.286  0.00  0.00    -0.354 N 
ATOM      9  H   UNL     1       7.342   1.660  24.605  0.00  0.00    +0.166 HD
ATOM     10  C   UNL     1       8.985   2.885  24.048  0.00  0.00    +0.050 A 
ATOM     11  C   UNL     1       8.572   4.213  24.123  0.00  0.00    +0.046 A 
ATOM     12  C   UNL     1       9.570   5.145  23.878  0.00  0.00    +0.113 A 
ATOM     13  N   UNL     1      10.849   4.850  23.555  0.00  0.00    -0.263 NA
ATOM     14  C   UNL     1      11.217   3.547  23.469  0.00  0.00    +0.120 A 
ATOM     15  C   UNL     1      10.292   2.529  23.727  0.00  0.00    +0.018 A 
ATOM     16  C   UNL     1      10.366   1.109  23.803  0.00  0.00    +0.037 A 
ENDBRANCH   5   7
BRANCH   1  21
ATOM     17  C   UNL     1       4.804  -5.055  23.022  0.00  0.00    -0.030 A 
ATOM     18  C   UNL     1       5.510  -5.772  22.054  0.00  0.00    +0.005 A 
ATOM     19  C   UNL     1       6.885  -5.607  21.930  0.00  0.00    +0.001 A 
ATOM     20  C   UNL     1       7.563  -4.711  22.762  0.00  0.00    +0.008 A 
ATOM     21  C   UNL     1       6.883  -3.898  23.689  0.00  0.00    -0.014 A 
ATOM     22  C   UNL     1       5.490  -4.101  23.802  0.00  0.00    +0.013 A 
BRANCH  17  23
ATOM     23  C   UNL     1       3.331  -5.303  23.217  0.00  0.00    +0.141 C 
BRANCH  23  28
ATOM     24  N   UNL     1       1.580  -8.250  22.119  0.00  0.00    -0.313 N 
ATOM     25  H   UNL     1       2.152  -8.948  22.570  0.00  0.00    +0.146 HD
ATOM     26  H   UNL     1       0.624  -8.526  21.928  0.00  0.00    +0.146 HD
ATOM     27  C   UNL     1       1.710  -6.962  22.518  0.00  0.00    +0.297 C 
ATOM     28  N   UNL     1       2.976  -6.671  22.935  0.00  0.00    -0.295 N 
ATOM     29  H   UNL     1       3.706  -7.290  22.623  0.00  0.00    +0.151 HD
ATOM     30  O   UNL     1       0.780  -6.175  22.476  0.00  0.00    -0.253 OA
ENDBRANCH  23  28
ENDBRANCH  17  23
ENDBRANCH   1  21
BRANCH   6  31
ATOM     31  O   UNL     1       7.846  -1.300  22.683  0.00  0.00    -0.505 OA
ATOM     32  H   UNL     1       7.287  -2.004  22.312  0.00  0.00    +0.292 HD
ENDBRANCH   6  31
TORSDOF 5
ENDMDL
