MODEL 1
REMARK VINA RESULT:      -5.7      0.000      0.000
REMARK  Name = 
REMARK  7 active torsions:
REMARK  status: ('A' for Active; 'I' for Inactive)
REMARK    1  A    between atoms: C_2  and  N_3
REMARK    2  A    between atoms: C_2  and  C_4
REMARK    3  A    between atoms: C_2  and  C_14
REMARK    4  A    between atoms: C_4  and  S_5
REMARK    5  A    between atoms: S_5  and  C_6
REMARK    6  A    between atoms: C_6  and  C_7
REMARK    7  A    between atoms: C_14  and  O_15
REMARK                            x       y       z     vdW  Elec       q    Type
REMARK                         _______ _______ _______ _____ _____    ______ ____
ROOT
ATOM      1  C   UNK     1       8.300  -4.343  23.983  0.00  0.00    +0.099 C 
ENDROOT
BRANCH   1   2
ATOM      2  C   UNK     1       8.782  -4.782  25.374  0.00  0.00    +0.171 C 
BRANCH   2   3
ATOM      3  N   UNK     1       9.954  -5.684  25.261  0.00  0.00    -0.318 NA
ATOM      4  H   UNK     1       9.904  -6.435  25.950  0.00  0.00    +0.119 HD
ATOM      5  H   UNK     1      10.128  -6.049  24.332  0.00  0.00    +0.119 HD
ENDBRANCH   2   3
BRANCH   2   6
ATOM      6  C   UNK     1       7.650  -5.426  26.190  0.00  0.00    +0.323 C 
ATOM      7  O   UNK     1       6.507  -5.565  25.778  0.00  0.00    -0.249 OA
BRANCH   6   8
ATOM      8  O   UNK     1       8.017  -5.825  27.431  0.00  0.00    -0.480 OA
ATOM      9  H   UNK     1       8.034  -6.794  27.515  0.00  0.00    +0.295 HD
ENDBRANCH   6   8
ENDBRANCH   2   6
ENDBRANCH   1   2
BRANCH   1  10
ATOM     10  S   UNK     1       7.909  -2.569  23.781  0.00  0.00    -0.154 S 
BRANCH  10  11
ATOM     11  C   UNK     1       9.215  -2.088  22.608  0.00  0.00    +0.104 C 
BRANCH  11  12
ATOM     12  C   UNK     1       9.650  -0.662  22.818  0.00  0.00    -0.037 A 
ATOM     13  C   UNK     1       9.608   0.264  21.765  0.00  0.00    +0.005 A 
ATOM     14  C   UNK     1      10.017   1.583  21.966  0.00  0.00    +0.015 A 
ATOM     15  C   UNK     1      10.469   1.983  23.225  0.00  0.00    +0.018 A 
ATOM     16 BR   UNK     1      11.028   3.768  23.492  0.00  0.00    -0.050 Br
ATOM     17  C   UNK     1      10.508   1.079  24.283  0.00  0.00    +0.015 A 
ATOM     18  C   UNK     1      10.095  -0.238  24.082  0.00  0.00    +0.005 A 
ENDBRANCH  11  12
ENDBRANCH  10  11
ENDBRANCH   1  10
TORSDOF 7
ENDMDL
MODEL 2
REMARK VINA RESULT:      -5.3      1.481      2.052
REMARK  Name = 
REMARK  7 active torsions:
REMARK  status: ('A' for Active; 'I' for Inactive)
REMARK    1  A    between atoms: C_2  and  N_3
REMARK    2  A    between atoms: C_2  and  C_4
REMARK    3  A    between atoms: C_2  and  C_14
REMARK    4  A    between atoms: C_4  and  S_5
REMARK    5  A    between atoms: S_5  and  C_6
REMARK    6  A    between atoms: C_6  and  C_7
REMARK    7  A    between atoms: C_14  and  O_15
REMARK                            x       y       z     vdW  Elec       q    Type
REMARK                         _______ _______ _______ _____ _____    ______ ____
ROOT
ATOM      1  C   UNK     1       7.938  -3.029  24.255  0.00  0.00    +0.099 C 
ENDROOT
BRANCH   1   2
ATOM      2  C   UNK     1       7.815  -4.542  24.495  0.00  0.00    +0.171 C 
BRANCH   2   3
ATOM      3  N   UNK     1       6.556  -4.858  25.212  0.00  0.00    -0.318 NA
ATOM      4  H   UNK     1       5.901  -5.346  24.601  0.00  0.00    +0.119 HD
ATOM      5  H   UNK     1       6.674  -5.348  26.091  0.00  0.00    +0.119 HD
ENDBRANCH   2   3
BRANCH   2   6
ATOM      6  C   UNK     1       9.042  -5.101  25.233  0.00  0.00    +0.323 C 
ATOM      7  O   UNK     1      10.197  -4.846  24.925  0.00  0.00    -0.249 OA
BRANCH   6   8
ATOM      8  O   UNK     1       8.742  -5.925  26.264  0.00  0.00    -0.480 OA
ATOM      9  H   UNK     1       8.240  -6.707  25.976  0.00  0.00    +0.295 HD
ENDBRANCH   6   8
ENDBRANCH   2   6
ENDBRANCH   1   2
BRANCH   1  10
ATOM     10  S   UNK     1       8.275  -2.504  22.537  0.00  0.00    -0.154 S 
BRANCH  10  11
ATOM     11  C   UNK     1       9.995  -1.934  22.711  0.00  0.00    +0.104 C 
BRANCH  11  12
ATOM     12  C   UNK     1      10.065  -0.450  22.952  0.00  0.00    -0.037 A 
ATOM     13  C   UNK     1      10.357   0.058  24.226  0.00  0.00    +0.005 A 
ATOM     14  C   UNK     1      10.416   1.435  24.443  0.00  0.00    +0.015 A 
ATOM     15  C   UNK     1      10.186   2.313  23.382  0.00  0.00    +0.018 A 
ATOM     16 BR   UNK     1      10.260   4.178  23.680  0.00  0.00    -0.050 Br
ATOM     17  C   UNK     1       9.905   1.826  22.109  0.00  0.00    +0.015 A 
ATOM     18  C   UNK     1       9.849   0.449  21.893  0.00  0.00    +0.005 A 
ENDBRANCH  11  12
ENDBRANCH  10  11
ENDBRANCH   1  10
TORSDOF 7
ENDMDL
MODEL 3
REMARK VINA RESULT:      -5.2      2.365      2.892
REMARK  Name = 
REMARK  7 active torsions:
REMARK  status: ('A' for Active; 'I' for Inactive)
REMARK    1  A    between atoms: C_2  and  N_3
REMARK    2  A    between atoms: C_2  and  C_4
REMARK    3  A    between atoms: C_2  and  C_14
REMARK    4  A    between atoms: C_4  and  S_5
REMARK    5  A    between atoms: S_5  and  C_6
REMARK    6  A    between atoms: C_6  and  C_7
REMARK    7  A    between atoms: C_14  and  O_15
REMARK                            x       y       z     vdW  Elec       q    Type
REMARK                         _______ _______ _______ _____ _____    ______ ____
ROOT
ATOM      1  C   UNK     1       7.895  -3.242  22.673  0.00  0.00    +0.099 C 
ENDROOT
BRANCH   1   2
ATOM      2  C   UNK     1       7.244  -4.583  23.047  0.00  0.00    +0.171 C 
BRANCH   2   3
ATOM      3  N   UNK     1       8.272  -5.563  23.475  0.00  0.00    -0.318 NA
ATOM      4  H   UNK     1       9.008  -5.650  22.774  0.00  0.00    +0.119 HD
ATOM      5  H   UNK     1       8.661  -5.403  24.398  0.00  0.00    +0.119 HD
ENDBRANCH   2   3
BRANCH   2   6
ATOM      6  C   UNK     1       6.381  -5.134  21.902  0.00  0.00    +0.323 C 
ATOM      7  O   UNK     1       5.815  -4.431  21.076  0.00  0.00    -0.249 OA
BRANCH   6   8
ATOM      8  O   UNK     1       6.279  -6.484  21.882  0.00  0.00    -0.480 OA
ATOM      9  H   UNK     1       6.493  -6.882  22.743  0.00  0.00    +0.295 HD
ENDBRANCH   6   8
ENDBRANCH   2   6
ENDBRANCH   1   2
BRANCH   1  10
ATOM     10  S   UNK     1       9.233  -2.654  23.772  0.00  0.00    -0.154 S 
BRANCH  10  11
ATOM     11  C   UNK     1      10.218  -1.691  22.583  0.00  0.00    +0.104 C 
BRANCH  11  12
ATOM     12  C   UNK     1      10.145  -0.215  22.871  0.00  0.00    -0.037 A 
ATOM     13  C   UNK     1      10.405   0.280  24.157  0.00  0.00    +0.005 A 
ATOM     14  C   UNK     1      10.331   1.649  24.417  0.00  0.00    +0.015 A 
ATOM     15  C   UNK     1      10.000   2.532  23.388  0.00  0.00    +0.018 A 
ATOM     16 BR   UNK     1       9.895   4.385  23.745  0.00  0.00    -0.050 Br
ATOM     17  C   UNK     1       9.749   2.059  22.103  0.00  0.00    +0.015 A 
ATOM     18  C   UNK     1       9.827   0.690  21.843  0.00  0.00    +0.005 A 
ENDBRANCH  11  12
ENDBRANCH  10  11
ENDBRANCH   1  10
TORSDOF 7
ENDMDL
MODEL 4
REMARK VINA RESULT:      -5.2      2.279      2.972
REMARK  Name = 
REMARK  7 active torsions:
REMARK  status: ('A' for Active; 'I' for Inactive)
REMARK    1  A    between atoms: C_2  and  N_3
REMARK    2  A    between atoms: C_2  and  C_4
REMARK    3  A    between atoms: C_2  and  C_14
REMARK    4  A    between atoms: C_4  and  S_5
REMARK    5  A    between atoms: S_5  and  C_6
REMARK    6  A    between atoms: C_6  and  C_7
REMARK    7  A    between atoms: C_14  and  O_15
REMARK                            x       y       z     vdW  Elec       q    Type
REMARK                         _______ _______ _______ _____ _____    ______ ____
ROOT
ATOM      1  C   UNK     1       7.295  -3.775  25.982  0.00  0.00    +0.099 C 
ENDROOT
BRANCH   1   2
ATOM      2  C   UNK     1       7.746  -5.244  25.991  0.00  0.00    +0.171 C 
BRANCH   2   3
ATOM      3  N   UNK     1       7.926  -5.728  27.381  0.00  0.00    -0.318 NA
ATOM      4  H   UNK     1       8.867  -6.098  27.520  0.00  0.00    +0.119 HD
ATOM      5  H   UNK     1       7.683  -5.060  28.104  0.00  0.00    +0.119 HD
ENDBRANCH   2   3
BRANCH   2   6
ATOM      6  C   UNK     1       9.015  -5.454  25.151  0.00  0.00    +0.323 C 
ATOM      7  O   UNK     1       9.014  -5.583  23.935  0.00  0.00    -0.249 OA
BRANCH   6   8
ATOM      8  O   UNK     1      10.159  -5.499  25.874  0.00  0.00    -0.480 OA
ATOM      9  H   UNK     1      10.401  -6.407  26.124  0.00  0.00    +0.295 HD
ENDBRANCH   6   8
ENDBRANCH   2   6
ENDBRANCH   1   2
BRANCH   1  10
ATOM     10  S   UNK     1       5.658  -3.432  25.244  0.00  0.00    -0.154 S 
BRANCH  10  11
ATOM     11  C   UNK     1       6.096  -3.456  23.478  0.00  0.00    +0.104 C 
BRANCH  11  12
ATOM     12  C   UNK     1       6.983  -2.297  23.111  0.00  0.00    -0.037 A 
ATOM     13  C   UNK     1       6.622  -0.982  23.442  0.00  0.00    +0.005 A 
ATOM     14  C   UNK     1       7.448   0.087  23.094  0.00  0.00    +0.015 A 
ATOM     15  C   UNK     1       8.644  -0.153  22.415  0.00  0.00    +0.018 A 
ATOM     16 BR   UNK     1       9.757   1.298  21.941  0.00  0.00    -0.050 Br
ATOM     17  C   UNK     1       9.022  -1.452  22.088  0.00  0.00    +0.015 A 
ATOM     18  C   UNK     1       8.198  -2.522  22.439  0.00  0.00    +0.005 A 
ENDBRANCH  11  12
ENDBRANCH  10  11
ENDBRANCH   1  10
TORSDOF 7
ENDMDL
MODEL 5
REMARK VINA RESULT:      -5.0      4.115      5.426
REMARK  Name = 
REMARK  7 active torsions:
REMARK  status: ('A' for Active; 'I' for Inactive)
REMARK    1  A    between atoms: C_2  and  N_3
REMARK    2  A    between atoms: C_2  and  C_4
REMARK    3  A    between atoms: C_2  and  C_14
REMARK    4  A    between atoms: C_4  and  S_5
REMARK    5  A    between atoms: S_5  and  C_6
REMARK    6  A    between atoms: C_6  and  C_7
REMARK    7  A    between atoms: C_14  and  O_15
REMARK                            x       y       z     vdW  Elec       q    Type
REMARK                         _______ _______ _______ _____ _____    ______ ____
ROOT
ATOM      1  C   UNK     1       8.680  -3.288  25.685  0.00  0.00    +0.099 C 
ENDROOT
BRANCH   1   2
ATOM      2  C   UNK     1       8.918  -4.615  26.422  0.00  0.00    +0.171 C 
BRANCH   2   3
ATOM      3  N   UNK     1       9.801  -5.503  25.627  0.00  0.00    -0.318 NA
ATOM      4  H   UNK     1      10.683  -5.039  25.407  0.00  0.00    +0.119 HD
ATOM      5  H   UNK     1       9.960  -6.422  26.027  0.00  0.00    +0.119 HD
ENDBRANCH   2   3
BRANCH   2   6
ATOM      6  C   UNK     1       7.596  -5.310  26.782  0.00  0.00    +0.323 C 
ATOM      7  O   UNK     1       6.552  -5.149  26.166  0.00  0.00    -0.249 OA
BRANCH   6   8
ATOM      8  O   UNK     1       7.671  -6.120  27.865  0.00  0.00    -0.480 OA
ATOM      9  H   UNK     1       7.327  -7.011  27.682  0.00  0.00    +0.295 HD
ENDBRANCH   6   8
ENDBRANCH   2   6
ENDBRANCH   1   2
BRANCH   1  10
ATOM     10  S   UNK     1       9.612  -3.041  24.132  0.00  0.00    -0.154 S 
BRANCH  10  11
ATOM     11  C   UNK     1       8.285  -2.400  23.065  0.00  0.00    +0.104 C 
BRANCH  11  12
ATOM     12  C   UNK     1       7.075  -3.296  23.085  0.00  0.00    -0.037 A 
ATOM     13  C   UNK     1       5.829  -2.812  23.509  0.00  0.00    +0.005 A 
ATOM     14  C   UNK     1       4.714  -3.650  23.530  0.00  0.00    +0.015 A 
ATOM     15  C   UNK     1       4.839  -4.979  23.122  0.00  0.00    +0.018 A 
ATOM     16 BR   UNK     1       3.328  -6.113  23.157  0.00  0.00    -0.050 Br
ATOM     17  C   UNK     1       6.066  -5.474  22.690  0.00  0.00    +0.015 A 
ATOM     18  C   UNK     1       7.180  -4.634  22.666  0.00  0.00    +0.005 A 
ENDBRANCH  11  12
ENDBRANCH  10  11
ENDBRANCH   1  10
TORSDOF 7
ENDMDL
MODEL 6
REMARK VINA RESULT:      -5.0      4.966      6.575
REMARK  Name = 
REMARK  7 active torsions:
REMARK  status: ('A' for Active; 'I' for Inactive)
REMARK    1  A    between atoms: C_2  and  N_3
REMARK    2  A    between atoms: C_2  and  C_4
REMARK    3  A    between atoms: C_2  and  C_14
REMARK    4  A    between atoms: C_4  and  S_5
REMARK    5  A    between atoms: S_5  and  C_6
REMARK    6  A    between atoms: C_6  and  C_7
REMARK    7  A    between atoms: C_14  and  O_15
REMARK                            x       y       z     vdW  Elec       q    Type
REMARK                         _______ _______ _______ _____ _____    ______ ____
ROOT
ATOM      1  C   UNK     1      10.073   1.844  24.162  0.00  0.00    +0.099 C 
ENDROOT
BRANCH   1   2
ATOM      2  C   UNK     1       8.703   2.213  23.570  0.00  0.00    +0.171 C 
BRANCH   2   3
ATOM      3  N   UNK     1       7.628   1.406  24.196  0.00  0.00    -0.318 NA
ATOM      4  H   UNK     1       6.772   1.954  24.297  0.00  0.00    +0.119 HD
ATOM      5  H   UNK     1       7.443   0.515  23.750  0.00  0.00    +0.119 HD
ENDBRANCH   2   3
BRANCH   2   6
ATOM      6  C   UNK     1       8.692   2.079  22.040  0.00  0.00    +0.323 C 
ATOM      7  O   UNK     1       7.681   1.877  21.381  0.00  0.00    -0.249 OA
BRANCH   6   8
ATOM      8  O   UNK     1       9.911   2.192  21.463  0.00  0.00    -0.480 OA
ATOM      9  H   UNK     1       9.859   2.206  20.491  0.00  0.00    +0.295 HD
ENDBRANCH   6   8
ENDBRANCH   2   6
ENDBRANCH   1   2
BRANCH   1  10
ATOM     10  S   UNK     1      10.218   0.177  24.897  0.00  0.00    -0.154 S 
BRANCH  10  11
ATOM     11  C   UNK     1      10.433  -0.817  23.388  0.00  0.00    +0.104 C 
BRANCH  11  12
ATOM     12  C   UNK     1       9.435  -1.943  23.320  0.00  0.00    -0.037 A 
ATOM     13  C   UNK     1       8.402  -1.931  22.371  0.00  0.00    +0.005 A 
ATOM     14  C   UNK     1       7.478  -2.975  22.317  0.00  0.00    +0.015 A 
ATOM     15  C   UNK     1       7.586  -4.042  23.212  0.00  0.00    +0.018 A 
ATOM     16 BR   UNK     1       6.330  -5.452  23.140  0.00  0.00    -0.050 Br
ATOM     17  C   UNK     1       8.611  -4.074  24.152  0.00  0.00    +0.015 A 
ATOM     18  C   UNK     1       9.536  -3.031  24.204  0.00  0.00    +0.005 A 
ENDBRANCH  11  12
ENDBRANCH  10  11
ENDBRANCH   1  10
TORSDOF 7
ENDMDL
MODEL 7
REMARK VINA RESULT:      -4.9      2.708      3.137
REMARK  Name = 
REMARK  7 active torsions:
REMARK  status: ('A' for Active; 'I' for Inactive)
REMARK    1  A    between atoms: C_2  and  N_3
REMARK    2  A    between atoms: C_2  and  C_4
REMARK    3  A    between atoms: C_2  and  C_14
REMARK    4  A    between atoms: C_4  and  S_5
REMARK    5  A    between atoms: S_5  and  C_6
REMARK    6  A    between atoms: C_6  and  C_7
REMARK    7  A    between atoms: C_14  and  O_15
REMARK                            x       y       z     vdW  Elec       q    Type
REMARK                         _______ _______ _______ _____ _____    ______ ____
ROOT
ATOM      1  C   UNK     1       6.457  -4.088  23.722  0.00  0.00    +0.099 C 
ENDROOT
BRANCH   1   2
ATOM      2  C   UNK     1       6.554  -3.959  22.194  0.00  0.00    +0.171 C 
BRANCH   2   3
ATOM      3  N   UNK     1       5.417  -3.169  21.662  0.00  0.00    -0.318 NA
ATOM      4  H   UNK     1       4.542  -3.439  22.113  0.00  0.00    +0.119 HD
ATOM      5  H   UNK     1       5.545  -2.164  21.681  0.00  0.00    +0.119 HD
ENDBRANCH   2   3
BRANCH   2   6
ATOM      6  C   UNK     1       6.656  -5.332  21.513  0.00  0.00    +0.323 C 
ATOM      7  O   UNK     1       6.020  -5.647  20.517  0.00  0.00    -0.249 OA
BRANCH   6   8
ATOM      8  O   UNK     1       7.510  -6.190  22.117  0.00  0.00    -0.480 OA
ATOM      9  H   UNK     1       7.100  -7.054  22.296  0.00  0.00    +0.295 HD
ENDBRANCH   6   8
ENDBRANCH   2   6
ENDBRANCH   1   2
BRANCH   1  10
ATOM     10  S   UNK     1       7.794  -3.304  24.691  0.00  0.00    -0.154 S 
BRANCH  10  11
ATOM     11  C   UNK     1       8.980  -2.942  23.358  0.00  0.00    +0.104 C 
BRANCH  11  12
ATOM     12  C   UNK     1       9.389  -1.493  23.360  0.00  0.00    -0.037 A 
ATOM     13  C   UNK     1       9.503  -0.777  22.159  0.00  0.00    +0.005 A 
ATOM     14  C   UNK     1       9.888   0.564  22.168  0.00  0.00    +0.015 A 
ATOM     15  C   UNK     1      10.157   1.199  23.382  0.00  0.00    +0.018 A 
ATOM     16 BR   UNK     1      10.683   3.013  23.391  0.00  0.00    -0.050 Br
ATOM     17  C   UNK     1      10.039   0.506  24.584  0.00  0.00    +0.015 A 
ATOM     18  C   UNK     1       9.651  -0.834  24.574  0.00  0.00    +0.005 A 
ENDBRANCH  11  12
ENDBRANCH  10  11
ENDBRANCH   1  10
TORSDOF 7
ENDMDL
MODEL 8
REMARK VINA RESULT:      -4.9      1.771      2.263
REMARK  Name = 
REMARK  7 active torsions:
REMARK  status: ('A' for Active; 'I' for Inactive)
REMARK    1  A    between atoms: C_2  and  N_3
REMARK    2  A    between atoms: C_2  and  C_4
REMARK    3  A    between atoms: C_2  and  C_14
REMARK    4  A    between atoms: C_4  and  S_5
REMARK    5  A    between atoms: S_5  and  C_6
REMARK    6  A    between atoms: C_6  and  C_7
REMARK    7  A    between atoms: C_14  and  O_15
REMARK                            x       y       z     vdW  Elec       q    Type
REMARK                         _______ _______ _______ _____ _____    ______ ____
ROOT
ATOM      1  C   UNK     1       7.526  -3.395  24.477  0.00  0.00    +0.099 C 
ENDROOT
BRANCH   1   2
ATOM      2  C   UNK     1       8.868  -3.799  25.107  0.00  0.00    +0.171 C 
BRANCH   2   3
ATOM      3  N   UNK     1       9.983  -3.563  24.159  0.00  0.00    -0.318 NA
ATOM      4  H   UNK     1      10.087  -2.567  23.959  0.00  0.00    +0.119 HD
ATOM      5  H   UNK     1      10.869  -3.978  24.425  0.00  0.00    +0.119 HD
ENDBRANCH   2   3
BRANCH   2   6
ATOM      6  C   UNK     1       8.847  -5.253  25.604  0.00  0.00    +0.323 C 
ATOM      7  O   UNK     1       7.958  -5.721  26.302  0.00  0.00    -0.249 OA
BRANCH   6   8
ATOM      8  O   UNK     1       9.914  -5.989  25.214  0.00  0.00    -0.480 OA
ATOM      9  H   UNK     1      10.153  -5.827  24.285  0.00  0.00    +0.295 HD
ENDBRANCH   6   8
ENDBRANCH   2   6
ENDBRANCH   1   2
BRANCH   1  10
ATOM     10  S   UNK     1       6.781  -1.838  25.080  0.00  0.00    -0.154 S 
BRANCH  10  11
ATOM     11  C   UNK     1       8.152  -1.204  26.096  0.00  0.00    +0.104 C 
BRANCH  11  12
ATOM     12  C   UNK     1       8.849  -0.049  25.427  0.00  0.00    -0.037 A 
ATOM     13  C   UNK     1      10.174  -0.169  24.984  0.00  0.00    +0.005 A 
ATOM     14  C   UNK     1      10.815   0.907  24.369  0.00  0.00    +0.015 A 
ATOM     15  C   UNK     1      10.130   2.111  24.191  0.00  0.00    +0.018 A 
ATOM     16 BR   UNK     1      11.002   3.568  23.364  0.00  0.00    -0.050 Br
ATOM     17  C   UNK     1       8.811   2.244  24.616  0.00  0.00    +0.015 A 
ATOM     18  C   UNK     1       8.170   1.166  25.228  0.00  0.00    +0.005 A 
ENDBRANCH  11  12
ENDBRANCH  10  11
ENDBRANCH   1  10
TORSDOF 7
ENDMDL
MODEL 9
REMARK VINA RESULT:      -4.9      4.923      6.756
REMARK  Name = 
REMARK  7 active torsions:
REMARK  status: ('A' for Active; 'I' for Inactive)
REMARK    1  A    between atoms: C_2  and  N_3
REMARK    2  A    between atoms: C_2  and  C_4
REMARK    3  A    between atoms: C_2  and  C_14
REMARK    4  A    between atoms: C_4  and  S_5
REMARK    5  A    between atoms: S_5  and  C_6
REMARK    6  A    between atoms: C_6  and  C_7
REMARK    7  A    between atoms: C_14  and  O_15
REMARK                            x       y       z     vdW  Elec       q    Type
REMARK                         _______ _______ _______ _____ _____    ______ ____
ROOT
ATOM      1  C   UNK     1      10.236  -0.136  24.266  0.00  0.00    +0.099 C 
ENDROOT
BRANCH   1   2
ATOM      2  C   UNK     1      10.454   1.129  23.420  0.00  0.00    +0.171 C 
BRANCH   2   3
ATOM      3  N   UNK     1       9.891   2.319  24.103  0.00  0.00    -0.318 NA
ATOM      4  H   UNK     1      10.186   2.353  25.079  0.00  0.00    +0.119 HD
ATOM      5  H   UNK     1      10.063   3.203  23.637  0.00  0.00    +0.119 HD
ENDBRANCH   2   3
BRANCH   2   6
ATOM      6  C   UNK     1       9.883   0.969  22.002  0.00  0.00    +0.323 C 
ATOM      7  O   UNK     1       9.716  -0.111  21.454  0.00  0.00    -0.249 OA
BRANCH   6   8
ATOM      8  O   UNK     1       9.586   2.137  21.387  0.00  0.00    -0.480 OA
ATOM      9  H   UNK     1       8.829   2.588  21.799  0.00  0.00    +0.295 HD
ENDBRANCH   6   8
ENDBRANCH   2   6
ENDBRANCH   1   2
BRANCH   1  10
ATOM     10  S   UNK     1       8.601  -0.305  25.067  0.00  0.00    -0.154 S 
BRANCH  10  11
ATOM     11  C   UNK     1       8.665  -2.059  25.548  0.00  0.00    +0.104 C 
BRANCH  11  12
ATOM     12  C   UNK     1       8.088  -2.949  24.478  0.00  0.00    -0.037 A 
ATOM     13  C   UNK     1       8.263  -4.339  24.529  0.00  0.00    +0.005 A 
ATOM     14  C   UNK     1       7.730  -5.156  23.531  0.00  0.00    +0.015 A 
ATOM     15  C   UNK     1       7.013  -4.585  22.478  0.00  0.00    +0.018 A 
ATOM     16 BR   UNK     1       6.297  -5.694  21.126  0.00  0.00    -0.050 Br
ATOM     17  C   UNK     1       6.821  -3.208  22.418  0.00  0.00    +0.015 A 
ATOM     18  C   UNK     1       7.352  -2.392  23.418  0.00  0.00    +0.005 A 
ENDBRANCH  11  12
ENDBRANCH  10  11
ENDBRANCH   1  10
TORSDOF 7
ENDMDL
