MODEL 1
REMARK VINA RESULT:      -6.6      0.000      0.000
REMARK  Name = 
REMARK  10 active torsions:
REMARK  status: ('A' for Active; 'I' for Inactive)
REMARK    1  A    between atoms: C_1  and  C_2
REMARK    2  A    between atoms: C_2  and  C_3
REMARK    3  A    between atoms: C_2  and  O_4
REMARK    4  A    between atoms: O_4  and  C_5
REMARK    5  A    between atoms: C_7  and  N_8
REMARK    6  A    between atoms: C_9  and  C_11
REMARK    7  A    between atoms: C_15  and  O_16
REMARK    8  A    between atoms: O_16  and  C_17
REMARK    9  A    between atoms: C_17  and  C_18
REMARK   10  A    between atoms: C_18  and  N_19
REMARK                            x       y       z     vdW  Elec       q    Type
REMARK                         _______ _______ _______ _____ _____    ______ ____
ROOT
ATOM      1  N   UNL     1       8.844   0.452  24.201  0.00  0.00    -0.281 N 
ATOM      2  H   UNL     1       8.683   0.124  25.146  0.00  0.00    +0.155 HD
ATOM      3  C   UNL     1       8.756  -0.452  23.160  0.00  0.00    +0.248 C 
ATOM      4  O   UNL     1       9.015  -0.213  21.984  0.00  0.00    -0.270 OA
ENDROOT
BRANCH   3   5
ATOM      5  C   UNL     1       8.299  -1.840  23.482  0.00  0.00    +0.040 A 
ATOM      6  C   UNL     1       9.088  -2.799  24.121  0.00  0.00    +0.036 A 
ATOM      7  C   UNL     1       8.576  -4.087  24.384  0.00  0.00    +0.085 A 
ATOM      8 CL   UNL     1       9.620  -5.125  25.295  0.00  0.00    -0.080 Cl
ATOM      9  C   UNL     1       7.280  -4.449  23.979  0.00  0.00    +0.157 A 
ATOM     10  C   UNL     1       6.498  -3.470  23.342  0.00  0.00    +0.085 A 
ATOM     11 CL   UNL     1       4.877  -3.803  22.831  0.00  0.00    -0.080 Cl
ATOM     12  C   UNL     1       7.000  -2.190  23.094  0.00  0.00    +0.036 A 
BRANCH   9  13
ATOM     13  O   UNL     1       6.649  -5.643  24.224  0.00  0.00    -0.488 OA
BRANCH  13  14
ATOM     14  C   UNL     1       6.016  -5.816  25.497  0.00  0.00    +0.244 C 
BRANCH  14  15
ATOM     15  C   UNL     1       4.699  -6.587  25.320  0.00  0.00    +0.119 C 
BRANCH  15  16
ATOM     16  N   UNL     1       4.626  -7.250  24.015  0.00  0.00    -0.327 NA
ATOM     17  H   UNL     1       5.350  -7.967  23.961  0.00  0.00    +0.118 HD
ATOM     18  H   UNL     1       3.737  -7.748  23.955  0.00  0.00    +0.118 HD
ENDBRANCH  15  16
ENDBRANCH  14  15
ENDBRANCH  13  14
ENDBRANCH   9  13
ENDBRANCH   3   5
BRANCH   1  23
ATOM     19  C   UNL     1      10.590   3.744  23.640  0.00  0.00    +0.123 A 
ATOM     20  C   UNL     1       9.509   4.608  23.793  0.00  0.00    +0.046 A 
ATOM     21  C   UNL     1       8.244   4.101  24.095  0.00  0.00    +0.005 A 
ATOM     22  C   UNL     1       8.048   2.724  24.222  0.00  0.00    +0.023 A 
ATOM     23  C   UNL     1       9.124   1.838  24.089  0.00  0.00    +0.037 A 
ATOM     24  C   UNL     1      10.393   2.363  23.812  0.00  0.00    +0.069 A 
BRANCH  19  25
ATOM     25  O   UNL     1      11.870   4.112  23.320  0.00  0.00    -0.489 OA
BRANCH  25  27
ATOM     26  C   UNL     1      12.459   6.175  24.364  0.00  0.00    +0.051 C 
ATOM     27  C   UNL     1      12.160   5.487  23.035  0.00  0.00    +0.167 C 
ATOM     28  C   UNL     1      13.367   5.593  22.106  0.00  0.00    +0.051 C 
ENDBRANCH  25  27
ENDBRANCH  19  25
ENDBRANCH   1  23
TORSDOF 8
ENDMDL
MODEL 2
REMARK VINA RESULT:      -6.5      3.459      9.114
REMARK  Name = 
REMARK  10 active torsions:
REMARK  status: ('A' for Active; 'I' for Inactive)
REMARK    1  A    between atoms: C_1  and  C_2
REMARK    2  A    between atoms: C_2  and  C_3
REMARK    3  A    between atoms: C_2  and  O_4
REMARK    4  A    between atoms: O_4  and  C_5
REMARK    5  A    between atoms: C_7  and  N_8
REMARK    6  A    between atoms: C_9  and  C_11
REMARK    7  A    between atoms: C_15  and  O_16
REMARK    8  A    between atoms: O_16  and  C_17
REMARK    9  A    between atoms: C_17  and  C_18
REMARK   10  A    between atoms: C_18  and  N_19
REMARK                            x       y       z     vdW  Elec       q    Type
REMARK                         _______ _______ _______ _____ _____    ______ ____
ROOT
ATOM      1  N   UNL     1       8.437  -0.733  24.621  0.00  0.00    -0.281 N 
ATOM      2  H   UNL     1       7.690  -0.177  25.020  0.00  0.00    +0.155 HD
ATOM      3  C   UNL     1       9.490  -0.085  24.005  0.00  0.00    +0.248 C 
ATOM      4  O   UNL     1      10.410  -0.632  23.403  0.00  0.00    -0.270 OA
ENDROOT
BRANCH   3   5
ATOM      5  C   UNL     1       9.527   1.409  24.080  0.00  0.00    +0.040 A 
ATOM      6  C   UNL     1      10.621   2.189  23.697  0.00  0.00    +0.036 A 
ATOM      7  C   UNL     1      10.570   3.594  23.804  0.00  0.00    +0.085 A 
ATOM      8 CL   UNL     1      11.947   4.434  23.173  0.00  0.00    -0.080 Cl
ATOM      9  C   UNL     1       9.437   4.241  24.328  0.00  0.00    +0.157 A 
ATOM     10  C   UNL     1       8.344   3.441  24.704  0.00  0.00    +0.085 A 
ATOM     11 CL   UNL     1       6.890   4.141  25.332  0.00  0.00    -0.080 Cl
ATOM     12  C   UNL     1       8.390   2.049  24.585  0.00  0.00    +0.036 A 
BRANCH   9  13
ATOM     13  O   UNL     1       9.242   5.595  24.430  0.00  0.00    -0.488 OA
BRANCH  13  14
ATOM     14  C   UNL     1       9.202   6.358  23.220  0.00  0.00    +0.244 C 
BRANCH  14  15
ATOM     15  C   UNL     1       7.742   6.607  22.812  0.00  0.00    +0.119 C 
BRANCH  15  16
ATOM     16  N   UNL     1       7.464   6.129  21.455  0.00  0.00    -0.327 NA
ATOM     17  H   UNL     1       6.537   5.703  21.433  0.00  0.00    +0.118 HD
ATOM     18  H   UNL     1       7.416   6.935  20.832  0.00  0.00    +0.118 HD
ENDBRANCH  15  16
ENDBRANCH  14  15
ENDBRANCH  13  14
ENDBRANCH   9  13
ENDBRANCH   3   5
BRANCH   1  23
ATOM     19  C   UNL     1       7.856  -4.396  23.954  0.00  0.00    +0.123 A 
ATOM     20  C   UNL     1       8.136  -4.908  25.218  0.00  0.00    +0.046 A 
ATOM     21  C   UNL     1       8.486  -4.049  26.260  0.00  0.00    +0.005 A 
ATOM     22  C   UNL     1       8.582  -2.674  26.038  0.00  0.00    +0.023 A 
ATOM     23  C   UNL     1       8.289  -2.135  24.780  0.00  0.00    +0.037 A 
ATOM     24  C   UNL     1       7.913  -3.007  23.750  0.00  0.00    +0.069 A 
BRANCH  19  25
ATOM     25  O   UNL     1       7.527  -5.132  22.846  0.00  0.00    -0.489 OA
BRANCH  25  27
ATOM     26  C   UNL     1       6.245  -5.741  20.928  0.00  0.00    +0.051 C 
ATOM     27  C   UNL     1       6.245  -4.947  22.231  0.00  0.00    +0.167 C 
ATOM     28  C   UNL     1       5.137  -5.452  23.153  0.00  0.00    +0.051 C 
ENDBRANCH  25  27
ENDBRANCH  19  25
ENDBRANCH   1  23
TORSDOF 8
ENDMDL
MODEL 3
REMARK VINA RESULT:      -6.5      1.663      1.919
REMARK  Name = 
REMARK  10 active torsions:
REMARK  status: ('A' for Active; 'I' for Inactive)
REMARK    1  A    between atoms: C_1  and  C_2
REMARK    2  A    between atoms: C_2  and  C_3
REMARK    3  A    between atoms: C_2  and  O_4
REMARK    4  A    between atoms: O_4  and  C_5
REMARK    5  A    between atoms: C_7  and  N_8
REMARK    6  A    between atoms: C_9  and  C_11
REMARK    7  A    between atoms: C_15  and  O_16
REMARK    8  A    between atoms: O_16  and  C_17
REMARK    9  A    between atoms: C_17  and  C_18
REMARK   10  A    between atoms: C_18  and  N_19
REMARK                            x       y       z     vdW  Elec       q    Type
REMARK                         _______ _______ _______ _____ _____    ______ ____
ROOT
ATOM      1  N   UNL     1       8.363   1.187  24.492  0.00  0.00    -0.281 N 
ATOM      2  H   UNL     1       7.421   0.985  24.178  0.00  0.00    +0.155 HD
ATOM      3  C   UNL     1       9.223   0.133  24.737  0.00  0.00    +0.248 C 
ATOM      4  O   UNL     1      10.353   0.230  25.206  0.00  0.00    -0.270 OA
ENDROOT
BRANCH   3   5
ATOM      5  C   UNL     1       8.748  -1.244  24.398  0.00  0.00    +0.040 A 
ATOM      6  C   UNL     1       9.395  -2.418  24.789  0.00  0.00    +0.036 A 
ATOM      7  C   UNL     1       8.878  -3.678  24.423  0.00  0.00    +0.085 A 
ATOM      8 CL   UNL     1       9.713  -5.042  25.087  0.00  0.00    -0.080 Cl
ATOM      9  C   UNL     1       7.723  -3.784  23.628  0.00  0.00    +0.157 A 
ATOM     10  C   UNL     1       7.082  -2.593  23.247  0.00  0.00    +0.085 A 
ATOM     11 CL   UNL     1       5.636  -2.614  22.294  0.00  0.00    -0.080 Cl
ATOM     12  C   UNL     1       7.587  -1.345  23.622  0.00  0.00    +0.036 A 
BRANCH   9  13
ATOM     13  O   UNL     1       7.091  -4.943  23.253  0.00  0.00    -0.488 OA
BRANCH  13  14
ATOM     14  C   UNL     1       7.530  -5.587  22.053  0.00  0.00    +0.244 C 
BRANCH  14  15
ATOM     15  C   UNL     1       6.320  -5.893  21.156  0.00  0.00    +0.119 C 
BRANCH  15  16
ATOM     16  N   UNL     1       5.092  -6.065  21.937  0.00  0.00    -0.327 NA
ATOM     17  H   UNL     1       5.317  -6.525  22.819  0.00  0.00    +0.118 HD
ATOM     18  H   UNL     1       4.737  -5.141  22.186  0.00  0.00    +0.118 HD
ENDBRANCH  15  16
ENDBRANCH  14  15
ENDBRANCH  13  14
ENDBRANCH   9  13
ENDBRANCH   3   5
BRANCH   1  23
ATOM     19  C   UNL     1       9.854   4.610  23.982  0.00  0.00    +0.123 A 
ATOM     20  C   UNL     1       9.091   5.333  24.894  0.00  0.00    +0.046 A 
ATOM     21  C   UNL     1       8.124   4.686  25.666  0.00  0.00    +0.005 A 
ATOM     22  C   UNL     1       7.900   3.317  25.513  0.00  0.00    +0.023 A 
ATOM     23  C   UNL     1       8.668   2.567  24.615  0.00  0.00    +0.037 A 
ATOM     24  C   UNL     1       9.652   3.224  23.865  0.00  0.00    +0.069 A 
BRANCH  19  25
ATOM     25  O   UNL     1      10.813   5.128  23.151  0.00  0.00    -0.489 OA
BRANCH  25  27
ATOM     26  C   UNL     1      13.053   5.391  22.373  0.00  0.00    +0.051 C 
ATOM     27  C   UNL     1      12.169   5.215  23.605  0.00  0.00    +0.167 C 
ATOM     28  C   UNL     1      12.338   6.407  24.545  0.00  0.00    +0.051 C 
ENDBRANCH  25  27
ENDBRANCH  19  25
ENDBRANCH   1  23
TORSDOF 8
ENDMDL
MODEL 4
REMARK VINA RESULT:      -6.5      1.114      2.185
REMARK  Name = 
REMARK  10 active torsions:
REMARK  status: ('A' for Active; 'I' for Inactive)
REMARK    1  A    between atoms: C_1  and  C_2
REMARK    2  A    between atoms: C_2  and  C_3
REMARK    3  A    between atoms: C_2  and  O_4
REMARK    4  A    between atoms: O_4  and  C_5
REMARK    5  A    between atoms: C_7  and  N_8
REMARK    6  A    between atoms: C_9  and  C_11
REMARK    7  A    between atoms: C_15  and  O_16
REMARK    8  A    between atoms: O_16  and  C_17
REMARK    9  A    between atoms: C_17  and  C_18
REMARK   10  A    between atoms: C_18  and  N_19
REMARK                            x       y       z     vdW  Elec       q    Type
REMARK                         _______ _______ _______ _____ _____    ______ ____
ROOT
ATOM      1  N   UNL     1       8.485   0.691  24.237  0.00  0.00    -0.281 N 
ATOM      2  H   UNL     1       8.182   0.447  25.172  0.00  0.00    +0.155 HD
ATOM      3  C   UNL     1       8.526  -0.297  23.272  0.00  0.00    +0.248 C 
ATOM      4  O   UNL     1       8.959  -0.162  22.131  0.00  0.00    -0.270 OA
ENDROOT
BRANCH   3   5
ATOM      5  C   UNL     1       7.994  -1.647  23.637  0.00  0.00    +0.040 A 
ATOM      6  C   UNL     1       6.667  -2.044  23.458  0.00  0.00    +0.036 A 
ATOM      7  C   UNL     1       6.249  -3.337  23.833  0.00  0.00    +0.085 A 
ATOM      8 CL   UNL     1       4.611  -3.731  23.433  0.00  0.00    -0.080 Cl
ATOM      9  C   UNL     1       7.144  -4.244  24.428  0.00  0.00    +0.157 A 
ATOM     10  C   UNL     1       8.476  -3.830  24.596  0.00  0.00    +0.085 A 
ATOM     11 CL   UNL     1       9.665  -4.881  25.290  0.00  0.00    -0.080 Cl
ATOM     12  C   UNL     1       8.893  -2.553  24.212  0.00  0.00    +0.036 A 
BRANCH   9  13
ATOM     13  O   UNL     1       6.878  -5.542  24.783  0.00  0.00    -0.488 OA
BRANCH  13  14
ATOM     14  C   UNL     1       5.965  -5.767  25.863  0.00  0.00    +0.244 C 
BRANCH  14  15
ATOM     15  C   UNL     1       6.533  -5.163  27.156  0.00  0.00    +0.119 C 
BRANCH  15  16
ATOM     16  N   UNL     1       7.501  -6.058  27.797  0.00  0.00    -0.327 NA
ATOM     17  H   UNL     1       7.057  -6.958  27.979  0.00  0.00    +0.118 HD
ATOM     18  H   UNL     1       8.254  -6.248  27.134  0.00  0.00    +0.118 HD
ENDBRANCH  15  16
ENDBRANCH  14  15
ENDBRANCH  13  14
ENDBRANCH   9  13
ENDBRANCH   3   5
BRANCH   1  23
ATOM     19  C   UNL     1      10.372   3.900  23.646  0.00  0.00    +0.123 A 
ATOM     20  C   UNL     1       9.303   4.789  23.594  0.00  0.00    +0.046 A 
ATOM     21  C   UNL     1       7.998   4.328  23.772  0.00  0.00    +0.005 A 
ATOM     22  C   UNL     1       7.752   2.970  23.980  0.00  0.00    +0.023 A 
ATOM     23  C   UNL     1       8.813   2.059  24.054  0.00  0.00    +0.037 A 
ATOM     24  C   UNL     1      10.120   2.540  23.899  0.00  0.00    +0.069 A 
BRANCH  19  25
ATOM     25  O   UNL     1      11.691   4.220  23.464  0.00  0.00    -0.489 OA
BRANCH  25  27
ATOM     26  C   UNL     1      12.363   6.282  24.459  0.00  0.00    +0.051 C 
ATOM     27  C   UNL     1      12.052   5.570  23.145  0.00  0.00    +0.167 C 
ATOM     28  C   UNL     1      13.279   5.591  22.235  0.00  0.00    +0.051 C 
ENDBRANCH  25  27
ENDBRANCH  19  25
ENDBRANCH   1  23
TORSDOF 8
ENDMDL
MODEL 5
REMARK VINA RESULT:      -6.4      1.176      1.578
REMARK  Name = 
REMARK  10 active torsions:
REMARK  status: ('A' for Active; 'I' for Inactive)
REMARK    1  A    between atoms: C_1  and  C_2
REMARK    2  A    between atoms: C_2  and  C_3
REMARK    3  A    between atoms: C_2  and  O_4
REMARK    4  A    between atoms: O_4  and  C_5
REMARK    5  A    between atoms: C_7  and  N_8
REMARK    6  A    between atoms: C_9  and  C_11
REMARK    7  A    between atoms: C_15  and  O_16
REMARK    8  A    between atoms: O_16  and  C_17
REMARK    9  A    between atoms: C_17  and  C_18
REMARK   10  A    between atoms: C_18  and  N_19
REMARK                            x       y       z     vdW  Elec       q    Type
REMARK                         _______ _______ _______ _____ _____    ______ ____
ROOT
ATOM      1  N   UNL     1       8.509   0.485  24.173  0.00  0.00    -0.281 N 
ATOM      2  H   UNL     1       8.253   0.193  25.108  0.00  0.00    +0.155 HD
ATOM      3  C   UNL     1       8.503  -0.453  23.158  0.00  0.00    +0.248 C 
ATOM      4  O   UNL     1       8.876  -0.258  22.005  0.00  0.00    -0.270 OA
ENDROOT
BRANCH   3   5
ATOM      5  C   UNL     1       7.991  -1.822  23.480  0.00  0.00    +0.040 A 
ATOM      6  C   UNL     1       7.753  -2.816  22.529  0.00  0.00    +0.036 A 
ATOM      7  C   UNL     1       7.268  -4.081  22.922  0.00  0.00    +0.085 A 
ATOM      8 CL   UNL     1       7.144  -5.252  21.652  0.00  0.00    -0.080 Cl
ATOM      9  C   UNL     1       6.978  -4.360  24.268  0.00  0.00    +0.157 A 
ATOM     10  C   UNL     1       7.228  -3.349  25.213  0.00  0.00    +0.085 A 
ATOM     11 CL   UNL     1       6.935  -3.601  26.901  0.00  0.00    -0.080 Cl
ATOM     12  C   UNL     1       7.723  -2.101  24.825  0.00  0.00    +0.036 A 
BRANCH   9  13
ATOM     13  O   UNL     1       6.558  -5.560  24.784  0.00  0.00    -0.488 OA
BRANCH  13  14
ATOM     14  C   UNL     1       5.184  -5.921  24.606  0.00  0.00    +0.244 C 
BRANCH  14  15
ATOM     15  C   UNL     1       4.709  -6.757  25.804  0.00  0.00    +0.119 C 
BRANCH  15  16
ATOM     16  N   UNL     1       3.735  -7.777  25.405  0.00  0.00    -0.327 NA
ATOM     17  H   UNL     1       3.777  -8.557  26.063  0.00  0.00    +0.118 HD
ATOM     18  H   UNL     1       2.799  -7.384  25.498  0.00  0.00    +0.118 HD
ENDBRANCH  15  16
ENDBRANCH  14  15
ENDBRANCH  13  14
ENDBRANCH   9  13
ENDBRANCH   3   5
BRANCH   1  23
ATOM     19  C   UNL     1      10.358   3.728  23.653  0.00  0.00    +0.123 A 
ATOM     20  C   UNL     1       9.286   4.614  23.698  0.00  0.00    +0.046 A 
ATOM     21  C   UNL     1       7.992   4.139  23.916  0.00  0.00    +0.005 A 
ATOM     22  C   UNL     1       7.760   2.770  24.067  0.00  0.00    +0.023 A 
ATOM     23  C   UNL     1       8.824   1.862  24.043  0.00  0.00    +0.037 A 
ATOM     24  C   UNL     1      10.121   2.356  23.849  0.00  0.00    +0.069 A 
BRANCH  19  25
ATOM     25  O   UNL     1      11.666   4.063  23.423  0.00  0.00    -0.489 OA
BRANCH  25  27
ATOM     26  C   UNL     1      12.307   6.137  24.412  0.00  0.00    +0.051 C 
ATOM     27  C   UNL     1      12.001   5.419  23.101  0.00  0.00    +0.167 C 
ATOM     28  C   UNL     1      13.222   5.460  22.184  0.00  0.00    +0.051 C 
ENDBRANCH  25  27
ENDBRANCH  19  25
ENDBRANCH   1  23
TORSDOF 8
ENDMDL
MODEL 6
REMARK VINA RESULT:      -6.3      1.493      2.561
REMARK  Name = 
REMARK  10 active torsions:
REMARK  status: ('A' for Active; 'I' for Inactive)
REMARK    1  A    between atoms: C_1  and  C_2
REMARK    2  A    between atoms: C_2  and  C_3
REMARK    3  A    between atoms: C_2  and  O_4
REMARK    4  A    between atoms: O_4  and  C_5
REMARK    5  A    between atoms: C_7  and  N_8
REMARK    6  A    between atoms: C_9  and  C_11
REMARK    7  A    between atoms: C_15  and  O_16
REMARK    8  A    between atoms: O_16  and  C_17
REMARK    9  A    between atoms: C_17  and  C_18
REMARK   10  A    between atoms: C_18  and  N_19
REMARK                            x       y       z     vdW  Elec       q    Type
REMARK                         _______ _______ _______ _____ _____    ______ ____
ROOT
ATOM      1  N   UNL     1       8.794   0.104  24.005  0.00  0.00    -0.281 N 
ATOM      2  H   UNL     1       8.646  -0.185  24.964  0.00  0.00    +0.155 HD
ATOM      3  C   UNL     1       8.629  -0.826  22.997  0.00  0.00    +0.248 C 
ATOM      4  O   UNL     1       8.864  -0.636  21.806  0.00  0.00    -0.270 OA
ENDROOT
BRANCH   3   5
ATOM      5  C   UNL     1       8.114  -2.178  23.376  0.00  0.00    +0.040 A 
ATOM      6  C   UNL     1       8.882  -3.166  23.998  0.00  0.00    +0.036 A 
ATOM      7  C   UNL     1       8.315  -4.417  24.318  0.00  0.00    +0.085 A 
ATOM      8 CL   UNL     1       9.347  -5.492  25.200  0.00  0.00    -0.080 Cl
ATOM      9  C   UNL     1       6.980  -4.714  23.990  0.00  0.00    +0.157 A 
ATOM     10  C   UNL     1       6.222  -3.707  23.370  0.00  0.00    +0.085 A 
ATOM     11 CL   UNL     1       4.560  -3.959  22.952  0.00  0.00    -0.080 Cl
ATOM     12  C   UNL     1       6.779  -2.462  23.065  0.00  0.00    +0.036 A 
BRANCH   9  13
ATOM     13  O   UNL     1       6.299  -5.864  24.297  0.00  0.00    -0.488 OA
BRANCH  13  14
ATOM     14  C   UNL     1       5.681  -5.953  25.586  0.00  0.00    +0.244 C 
BRANCH  14  15
ATOM     15  C   UNL     1       4.410  -6.811  25.494  0.00  0.00    +0.119 C 
BRANCH  15  16
ATOM     16  N   UNL     1       4.307  -7.497  24.203  0.00  0.00    -0.327 NA
ATOM     17  H   UNL     1       3.325  -7.686  24.001  0.00  0.00    +0.118 HD
ATOM     18  H   UNL     1       4.624  -6.860  23.472  0.00  0.00    +0.118 HD
ENDBRANCH  15  16
ENDBRANCH  14  15
ENDBRANCH  13  14
ENDBRANCH   9  13
ENDBRANCH   3   5
BRANCH   1  23
ATOM     19  C   UNL     1       8.618   3.857  23.709  0.00  0.00    +0.123 A 
ATOM     20  C   UNL     1       9.976   4.145  23.613  0.00  0.00    +0.046 A 
ATOM     21  C   UNL     1      10.914   3.111  23.626  0.00  0.00    +0.005 A 
ATOM     22  C   UNL     1      10.500   1.785  23.760  0.00  0.00    +0.023 A 
ATOM     23  C   UNL     1       9.138   1.471  23.840  0.00  0.00    +0.037 A 
ATOM     24  C   UNL     1       8.207   2.516  23.800  0.00  0.00    +0.069 A 
BRANCH  19  25
ATOM     25  O   UNL     1       7.604   4.778  23.732  0.00  0.00    -0.489 OA
BRANCH  25  27
ATOM     26  C   UNL     1       5.404   5.184  22.902  0.00  0.00    +0.051 C 
ATOM     27  C   UNL     1       6.879   5.061  22.529  0.00  0.00    +0.167 C 
ATOM     28  C   UNL     1       7.373   6.365  21.907  0.00  0.00    +0.051 C 
ENDBRANCH  25  27
ENDBRANCH  19  25
ENDBRANCH   1  23
TORSDOF 8
ENDMDL
MODEL 7
REMARK VINA RESULT:      -6.2      2.096      3.024
REMARK  Name = 
REMARK  10 active torsions:
REMARK  status: ('A' for Active; 'I' for Inactive)
REMARK    1  A    between atoms: C_1  and  C_2
REMARK    2  A    between atoms: C_2  and  C_3
REMARK    3  A    between atoms: C_2  and  O_4
REMARK    4  A    between atoms: O_4  and  C_5
REMARK    5  A    between atoms: C_7  and  N_8
REMARK    6  A    between atoms: C_9  and  C_11
REMARK    7  A    between atoms: C_15  and  O_16
REMARK    8  A    between atoms: O_16  and  C_17
REMARK    9  A    between atoms: C_17  and  C_18
REMARK   10  A    between atoms: C_18  and  N_19
REMARK                            x       y       z     vdW  Elec       q    Type
REMARK                         _______ _______ _______ _____ _____    ______ ____
ROOT
ATOM      1  N   UNL     1       8.527  -0.318  24.065  0.00  0.00    -0.281 N 
ATOM      2  H   UNL     1       8.231  -0.530  25.010  0.00  0.00    +0.155 HD
ATOM      3  C   UNL     1       8.434  -1.305  23.102  0.00  0.00    +0.248 C 
ATOM      4  O   UNL     1       8.839  -1.215  21.947  0.00  0.00    -0.270 OA
ENDROOT
BRANCH   3   5
ATOM      5  C   UNL     1       7.776  -2.592  23.488  0.00  0.00    +0.040 A 
ATOM      6  C   UNL     1       7.647  -3.694  22.641  0.00  0.00    +0.036 A 
ATOM      7  C   UNL     1       7.009  -4.870  23.088  0.00  0.00    +0.085 A 
ATOM      8 CL   UNL     1       7.037  -6.196  21.974  0.00  0.00    -0.080 Cl
ATOM      9  C   UNL     1       6.458  -4.950  24.378  0.00  0.00    +0.157 A 
ATOM     10  C   UNL     1       6.602  -3.834  25.220  0.00  0.00    +0.085 A 
ATOM     11 CL   UNL     1       5.986  -3.840  26.838  0.00  0.00    -0.080 Cl
ATOM     12  C   UNL     1       7.246  -2.674  24.782  0.00  0.00    +0.036 A 
BRANCH   9  13
ATOM     13  O   UNL     1       5.866  -6.049  24.949  0.00  0.00    -0.488 OA
BRANCH  13  14
ATOM     14  C   UNL     1       4.558  -6.415  24.497  0.00  0.00    +0.244 C 
BRANCH  14  15
ATOM     15  C   UNL     1       3.819  -7.173  25.610  0.00  0.00    +0.119 C 
BRANCH  15  16
ATOM     16  N   UNL     1       3.111  -8.348  25.094  0.00  0.00    -0.327 NA
ATOM     17  H   UNL     1       2.408  -8.642  25.773  0.00  0.00    +0.118 HD
ATOM     18  H   UNL     1       2.593  -8.072  24.259  0.00  0.00    +0.118 HD
ENDBRANCH  15  16
ENDBRANCH  14  15
ENDBRANCH  13  14
ENDBRANCH   9  13
ENDBRANCH   3   5
BRANCH   1  23
ATOM     19  C   UNL     1       8.677   3.427  23.676  0.00  0.00    +0.123 A 
ATOM     20  C   UNL     1      10.055   3.594  23.573  0.00  0.00    +0.046 A 
ATOM     21  C   UNL     1      10.900   2.484  23.611  0.00  0.00    +0.005 A 
ATOM     22  C   UNL     1      10.372   1.202  23.778  0.00  0.00    +0.023 A 
ATOM     23  C   UNL     1       8.989   1.009  23.867  0.00  0.00    +0.037 A 
ATOM     24  C   UNL     1       8.151   2.130  23.800  0.00  0.00    +0.069 A 
BRANCH  19  25
ATOM     25  O   UNL     1       7.746   4.433  23.677  0.00  0.00    -0.489 OA
BRANCH  25  27
ATOM     26  C   UNL     1       5.562   4.695  22.752  0.00  0.00    +0.051 C 
ATOM     27  C   UNL     1       7.059   4.760  22.462  0.00  0.00    +0.167 C 
ATOM     28  C   UNL     1       7.443   6.164  21.998  0.00  0.00    +0.051 C 
ENDBRANCH  25  27
ENDBRANCH  19  25
ENDBRANCH   1  23
TORSDOF 8
ENDMDL
MODEL 8
REMARK VINA RESULT:      -6.1      2.194      2.915
REMARK  Name = 
REMARK  10 active torsions:
REMARK  status: ('A' for Active; 'I' for Inactive)
REMARK    1  A    between atoms: C_1  and  C_2
REMARK    2  A    between atoms: C_2  and  C_3
REMARK    3  A    between atoms: C_2  and  O_4
REMARK    4  A    between atoms: O_4  and  C_5
REMARK    5  A    between atoms: C_7  and  N_8
REMARK    6  A    between atoms: C_9  and  C_11
REMARK    7  A    between atoms: C_15  and  O_16
REMARK    8  A    between atoms: O_16  and  C_17
REMARK    9  A    between atoms: C_17  and  C_18
REMARK   10  A    between atoms: C_18  and  N_19
REMARK                            x       y       z     vdW  Elec       q    Type
REMARK                         _______ _______ _______ _____ _____    ______ ____
ROOT
ATOM      1  N   UNL     1       8.315  -0.721  23.835  0.00  0.00    -0.281 N 
ATOM      2  H   UNL     1       7.789  -0.834  24.693  0.00  0.00    +0.155 HD
ATOM      3  C   UNL     1       8.415  -1.795  22.970  0.00  0.00    +0.248 C 
ATOM      4  O   UNL     1       9.093  -1.825  21.947  0.00  0.00    -0.270 OA
ENDROOT
BRANCH   3   5
ATOM      5  C   UNL     1       7.629  -3.025  23.296  0.00  0.00    +0.040 A 
ATOM      6  C   UNL     1       7.316  -3.438  24.593  0.00  0.00    +0.036 A 
ATOM      7  C   UNL     1       6.570  -4.615  24.809  0.00  0.00    +0.085 A 
ATOM      8 CL   UNL     1       6.149  -4.931  26.459  0.00  0.00    -0.080 Cl
ATOM      9  C   UNL     1       6.157  -5.419  23.733  0.00  0.00    +0.157 A 
ATOM     10  C   UNL     1       6.476  -4.987  22.435  0.00  0.00    +0.085 A 
ATOM     11 CL   UNL     1       5.987  -5.887  21.039  0.00  0.00    -0.080 Cl
ATOM     12  C   UNL     1       7.203  -3.812  22.220  0.00  0.00    +0.036 A 
BRANCH   9  13
ATOM     13  O   UNL     1       5.383  -6.550  23.806  0.00  0.00    -0.488 OA
BRANCH  13  14
ATOM     14  C   UNL     1       3.971  -6.385  23.977  0.00  0.00    +0.244 C 
BRANCH  14  15
ATOM     15  C   UNL     1       3.433  -7.469  24.923  0.00  0.00    +0.119 C 
BRANCH  15  16
ATOM     16  N   UNL     1       2.698  -8.510  24.200  0.00  0.00    -0.327 NA
ATOM     17  H   UNL     1       2.180  -8.082  23.431  0.00  0.00    +0.118 HD
ATOM     18  H   UNL     1       3.374  -9.138  23.764  0.00  0.00    +0.118 HD
ENDBRANCH  15  16
ENDBRANCH  14  15
ENDBRANCH  13  14
ENDBRANCH   9  13
ENDBRANCH   3   5
BRANCH   1  23
ATOM     19  C   UNL     1       8.737   2.935  23.023  0.00  0.00    +0.123 A 
ATOM     20  C   UNL     1      10.066   3.103  23.402  0.00  0.00    +0.046 A 
ATOM     21  C   UNL     1      10.797   2.021  23.893  0.00  0.00    +0.005 A 
ATOM     22  C   UNL     1      10.197   0.768  24.030  0.00  0.00    +0.023 A 
ATOM     23  C   UNL     1       8.867   0.571  23.639  0.00  0.00    +0.037 A 
ATOM     24  C   UNL     1       8.153   1.660  23.123  0.00  0.00    +0.069 A 
BRANCH  19  25
ATOM     25  O   UNL     1       7.908   3.918  22.551  0.00  0.00    -0.489 OA
BRANCH  25  27
ATOM     26  C   UNL     1       7.813   6.284  22.260  0.00  0.00    +0.051 C 
ATOM     27  C   UNL     1       7.784   5.146  23.278  0.00  0.00    +0.167 C 
ATOM     28  C   UNL     1       6.471   5.173  24.056  0.00  0.00    +0.051 C 
ENDBRANCH  25  27
ENDBRANCH  19  25
ENDBRANCH   1  23
TORSDOF 8
ENDMDL
MODEL 9
REMARK VINA RESULT:      -6.0      3.469      9.444
REMARK  Name = 
REMARK  10 active torsions:
REMARK  status: ('A' for Active; 'I' for Inactive)
REMARK    1  A    between atoms: C_1  and  C_2
REMARK    2  A    between atoms: C_2  and  C_3
REMARK    3  A    between atoms: C_2  and  O_4
REMARK    4  A    between atoms: O_4  and  C_5
REMARK    5  A    between atoms: C_7  and  N_8
REMARK    6  A    between atoms: C_9  and  C_11
REMARK    7  A    between atoms: C_15  and  O_16
REMARK    8  A    between atoms: O_16  and  C_17
REMARK    9  A    between atoms: C_17  and  C_18
REMARK   10  A    between atoms: C_18  and  N_19
REMARK                            x       y       z     vdW  Elec       q    Type
REMARK                         _______ _______ _______ _____ _____    ______ ____
ROOT
ATOM      1  N   UNL     1       8.341  -0.505  24.589  0.00  0.00    -0.281 N 
ATOM      2  H   UNL     1       7.530   0.036  24.864  0.00  0.00    +0.155 HD
ATOM      3  C   UNL     1       9.420   0.151  24.029  0.00  0.00    +0.248 C 
ATOM      4  O   UNL     1      10.423  -0.388  23.570  0.00  0.00    -0.270 OA
ENDROOT
BRANCH   3   5
ATOM      5  C   UNL     1       9.375   1.646  23.981  0.00  0.00    +0.040 A 
ATOM      6  C   UNL     1       8.219   2.405  24.179  0.00  0.00    +0.036 A 
ATOM      7  C   UNL     1       8.268   3.813  24.113  0.00  0.00    +0.085 A 
ATOM      8 CL   UNL     1       6.788   4.623  24.506  0.00  0.00    -0.080 Cl
ATOM      9  C   UNL     1       9.466   4.484  23.813  0.00  0.00    +0.157 A 
ATOM     10  C   UNL     1      10.620   3.705  23.623  0.00  0.00    +0.085 A 
ATOM     11 CL   UNL     1      12.153   4.434  23.279  0.00  0.00    -0.080 Cl
ATOM     12  C   UNL     1      10.575   2.310  23.701  0.00  0.00    +0.036 A 
BRANCH   9  13
ATOM     13  O   UNL     1       9.656   5.842  23.777  0.00  0.00    -0.488 OA
BRANCH  13  14
ATOM     14  C   UNL     1       9.397   6.586  24.972  0.00  0.00    +0.244 C 
BRANCH  14  15
ATOM     15  C   UNL     1      10.725   7.017  25.613  0.00  0.00    +0.119 C 
BRANCH  15  16
ATOM     16  N   UNL     1      10.648   7.028  27.076  0.00  0.00    -0.327 NA
ATOM     17  H   UNL     1       9.999   6.303  27.383  0.00  0.00    +0.118 HD
ATOM     18  H   UNL     1      11.559   6.762  27.450  0.00  0.00    +0.118 HD
ENDBRANCH  15  16
ENDBRANCH  14  15
ENDBRANCH  13  14
ENDBRANCH   9  13
ENDBRANCH   3   5
BRANCH   1  23
ATOM     19  C   UNL     1       7.941  -4.231  24.184  0.00  0.00    +0.123 A 
ATOM     20  C   UNL     1       8.194  -4.633  25.492  0.00  0.00    +0.046 A 
ATOM     21  C   UNL     1       8.468  -3.684  26.478  0.00  0.00    +0.005 A 
ATOM     22  C   UNL     1       8.514  -2.326  26.154  0.00  0.00    +0.023 A 
ATOM     23  C   UNL     1       8.246  -1.897  24.850  0.00  0.00    +0.037 A 
ATOM     24  C   UNL     1       7.947  -2.860  23.876  0.00  0.00    +0.069 A 
BRANCH  19  25
ATOM     25  O   UNL     1       7.685  -5.062  23.125  0.00  0.00    -0.489 OA
BRANCH  25  27
ATOM     26  C   UNL     1       6.538  -5.773  21.158  0.00  0.00    +0.051 C 
ATOM     27  C   UNL     1       6.416  -4.989  22.462  0.00  0.00    +0.167 C 
ATOM     28  C   UNL     1       5.324  -5.598  23.339  0.00  0.00    +0.051 C 
ENDBRANCH  25  27
ENDBRANCH  19  25
ENDBRANCH   1  23
TORSDOF 8
ENDMDL
