MODEL 1
REMARK VINA RESULT:      -6.9      0.000      0.000
REMARK  Name = 
REMARK  4 active torsions:
REMARK  status: ('A' for Active; 'I' for Inactive)
REMARK    1  A    between atoms: C_1  and  N_2
REMARK    2  A    between atoms: C_4  and  C_5
REMARK    3  A    between atoms: N_7  and  C_8
REMARK    4  A    between atoms: N_16  and  C_17
REMARK                            x       y       z     vdW  Elec       q    Type
REMARK                         _______ _______ _______ _____ _____    ______ ____
ROOT
ATOM      1  C   UNL     1       8.777  -2.209  23.629  0.00  0.00    +0.265 C 
ATOM      2  N   UNL     1       8.095  -1.018  23.756  0.00  0.00    -0.307 N 
ATOM      3  H   UNL     1       7.084  -1.081  23.844  0.00  0.00    +0.149 HD
ATOM      4  O   UNL     1      10.001  -2.245  23.513  0.00  0.00    -0.268 OA
ENDROOT
BRANCH   1  12
ATOM      5  C   UNL     1       6.152  -6.037  22.148  0.00  0.00    +0.173 C 
ATOM      6  N   UNL     1       6.802  -5.108  23.044  0.00  0.00    -0.266 N 
ATOM      7  C   UNL     1       6.687  -5.112  24.412  0.00  0.00    +0.069 A 
ATOM      8  C   UNL     1       7.468  -4.046  24.840  0.00  0.00    +0.032 A 
ATOM      9  C   UNL     1       7.592  -3.793  26.221  0.00  0.00    +0.012 A 
ATOM     10  C   UNL     1       6.899  -4.597  27.129  0.00  0.00    +0.001 A 
ATOM     11  C   UNL     1       6.095  -5.638  26.676  0.00  0.00    +0.002 A 
ATOM     12  C   UNL     1       7.960  -3.432  23.652  0.00  0.00    +0.155 A 
ATOM     13  C   UNL     1       5.978  -5.926  25.308  0.00  0.00    +0.028 A 
ATOM     14  N   UNL     1       7.579  -4.113  22.549  0.00  0.00    -0.166 NA
ENDBRANCH   1  12
BRANCH   2  15
ATOM     15  C   UNL     1       8.805   0.257  23.666  0.00  0.00    +0.076 C 
ATOM     16  C   UNL     1       8.501   1.186  24.853  0.00  0.00    +0.041 C 
ATOM     17  C   UNL     1       8.799   2.685  24.632  0.00  0.00    +0.058 C 
ATOM     18  N   UNL     1       9.448   3.009  23.360  0.00  0.00    -0.299 NA
ATOM     19  C   UNL     1      10.881   2.732  23.356  0.00  0.00    +0.105 C 
ATOM     20  C   UNL     1       8.703   2.412  22.251  0.00  0.00    +0.058 C 
ATOM     21  C   UNL     1       7.290   3.033  22.175  0.00  0.00    +0.019 C 
ATOM     22  C   UNL     1       6.578   3.273  23.508  0.00  0.00    +0.003 C 
ATOM     23  C   UNL     1       7.513   3.526  24.687  0.00  0.00    +0.019 C 
ATOM     24  C   UNL     1       8.670   0.880  22.278  0.00  0.00    +0.041 C 
ENDBRANCH   2  15
TORSDOF 2
ENDMDL
MODEL 2
REMARK VINA RESULT:      -6.8      1.480      7.401
REMARK  Name = 
REMARK  4 active torsions:
REMARK  status: ('A' for Active; 'I' for Inactive)
REMARK    1  A    between atoms: C_1  and  N_2
REMARK    2  A    between atoms: C_4  and  C_5
REMARK    3  A    between atoms: N_7  and  C_8
REMARK    4  A    between atoms: N_16  and  C_17
REMARK                            x       y       z     vdW  Elec       q    Type
REMARK                         _______ _______ _______ _____ _____    ______ ____
ROOT
ATOM      1  C   UNL     1       8.799  -0.801  22.191  0.00  0.00    +0.265 C 
ATOM      2  N   UNL     1       7.664  -1.337  22.762  0.00  0.00    -0.307 N 
ATOM      3  H   UNL     1       7.104  -0.709  23.333  0.00  0.00    +0.149 HD
ATOM      4  O   UNL     1       9.548  -1.474  21.485  0.00  0.00    -0.268 OA
ENDROOT
BRANCH   1  12
ATOM      5  C   UNL     1      11.088   3.337  23.360  0.00  0.00    +0.173 C 
ATOM      6  N   UNL     1      10.017   2.446  22.977  0.00  0.00    -0.266 N 
ATOM      7  C   UNL     1       8.696   2.799  22.852  0.00  0.00    +0.069 A 
ATOM      8  C   UNL     1       8.047   1.629  22.479  0.00  0.00    +0.032 A 
ATOM      9  C   UNL     1       6.659   1.659  22.235  0.00  0.00    +0.012 A 
ATOM     10  C   UNL     1       5.959   2.856  22.407  0.00  0.00    +0.001 A 
ATOM     11  C   UNL     1       6.625   4.007  22.816  0.00  0.00    +0.002 A 
ATOM     12  C   UNL     1       9.055   0.622  22.463  0.00  0.00    +0.155 A 
ATOM     13  C   UNL     1       8.009   4.008  23.039  0.00  0.00    +0.028 A 
ATOM     14  N   UNL     1      10.274   1.138  22.732  0.00  0.00    -0.166 NA
ENDBRANCH   1  12
BRANCH   2  15
ATOM     15  C   UNL     1       7.363  -2.760  22.618  0.00  0.00    +0.076 C 
ATOM     16  C   UNL     1       5.885  -3.017  22.280  0.00  0.00    +0.041 C 
ATOM     17  C   UNL     1       5.363  -4.441  22.571  0.00  0.00    +0.058 C 
ATOM     18  N   UNL     1       6.379  -5.397  23.018  0.00  0.00    -0.299 NA
ATOM     19  C   UNL     1       7.192  -5.927  21.929  0.00  0.00    +0.105 C 
ATOM     20  C   UNL     1       7.137  -4.835  24.135  0.00  0.00    +0.058 C 
ATOM     21  C   UNL     1       6.203  -4.614  25.346  0.00  0.00    +0.019 C 
ATOM     22  C   UNL     1       4.809  -4.063  25.039  0.00  0.00    +0.003 C 
ATOM     23  C   UNL     1       4.275  -4.429  23.657  0.00  0.00    +0.019 C 
ATOM     24  C   UNL     1       7.936  -3.577  23.774  0.00  0.00    +0.041 C 
ENDBRANCH   2  15
TORSDOF 2
ENDMDL
MODEL 3
REMARK VINA RESULT:      -6.8      1.094      2.257
REMARK  Name = 
REMARK  4 active torsions:
REMARK  status: ('A' for Active; 'I' for Inactive)
REMARK    1  A    between atoms: C_1  and  N_2
REMARK    2  A    between atoms: C_4  and  C_5
REMARK    3  A    between atoms: N_7  and  C_8
REMARK    4  A    between atoms: N_16  and  C_17
REMARK                            x       y       z     vdW  Elec       q    Type
REMARK                         _______ _______ _______ _____ _____    ______ ____
ROOT
ATOM      1  C   UNL     1       8.565  -2.072  24.311  0.00  0.00    +0.265 C 
ATOM      2  N   UNL     1       7.942  -0.844  24.367  0.00  0.00    -0.307 N 
ATOM      3  H   UNL     1       6.942  -0.851  24.552  0.00  0.00    +0.149 HD
ATOM      4  O   UNL     1       9.770  -2.178  24.091  0.00  0.00    -0.268 OA
ENDROOT
BRANCH   1  12
ATOM      5  C   UNL     1       6.232  -5.719  26.546  0.00  0.00    +0.173 C 
ATOM      6  N   UNL     1       6.683  -4.855  25.480  0.00  0.00    -0.266 N 
ATOM      7  C   UNL     1       6.434  -5.046  24.143  0.00  0.00    +0.069 A 
ATOM      8  C   UNL     1       7.064  -3.984  23.506  0.00  0.00    +0.032 A 
ATOM      9  C   UNL     1       6.970  -3.868  22.104  0.00  0.00    +0.012 A 
ATOM     10  C   UNL     1       6.275  -4.840  21.381  0.00  0.00    +0.001 A 
ATOM     11  C   UNL     1       5.681  -5.914  22.038  0.00  0.00    +0.002 A 
ATOM     12  C   UNL     1       7.710  -3.247  24.541  0.00  0.00    +0.155 A 
ATOM     13  C   UNL     1       5.739  -6.036  23.434  0.00  0.00    +0.028 A 
ATOM     14  N   UNL     1       7.439  -3.765  25.759  0.00  0.00    -0.166 NA
ENDBRANCH   1  12
BRANCH   2  15
ATOM     15  C   UNL     1       8.687   0.379  24.075  0.00  0.00    +0.076 C 
ATOM     16  C   UNL     1       8.380   1.508  25.074  0.00  0.00    +0.041 C 
ATOM     17  C   UNL     1       8.722   2.938  24.602  0.00  0.00    +0.058 C 
ATOM     18  N   UNL     1       9.407   3.021  23.310  0.00  0.00    -0.299 NA
ATOM     19  C   UNL     1      10.832   2.717  23.393  0.00  0.00    +0.105 C 
ATOM     20  C   UNL     1       8.672   2.256  22.304  0.00  0.00    +0.058 C 
ATOM     21  C   UNL     1       7.278   2.884  22.083  0.00  0.00    +0.019 C 
ATOM     22  C   UNL     1       6.542   3.368  23.335  0.00  0.00    +0.003 C 
ATOM     23  C   UNL     1       7.458   3.804  24.475  0.00  0.00    +0.019 C 
ATOM     24  C   UNL     1       8.599   0.753  22.597  0.00  0.00    +0.041 C 
ENDBRANCH   2  15
TORSDOF 2
ENDMDL
MODEL 4
REMARK VINA RESULT:      -6.7      1.459      7.429
REMARK  Name = 
REMARK  4 active torsions:
REMARK  status: ('A' for Active; 'I' for Inactive)
REMARK    1  A    between atoms: C_1  and  N_2
REMARK    2  A    between atoms: C_4  and  C_5
REMARK    3  A    between atoms: N_7  and  C_8
REMARK    4  A    between atoms: N_16  and  C_17
REMARK                            x       y       z     vdW  Elec       q    Type
REMARK                         _______ _______ _______ _____ _____    ______ ____
ROOT
ATOM      1  C   UNL     1       8.760  -0.384  24.732  0.00  0.00    +0.265 C 
ATOM      2  N   UNL     1       8.167  -1.298  23.887  0.00  0.00    -0.307 N 
ATOM      3  H   UNL     1       7.962  -0.977  22.943  0.00  0.00    +0.149 HD
ATOM      4  O   UNL     1       9.046  -0.667  25.893  0.00  0.00    -0.268 OA
ENDROOT
BRANCH   1  12
ATOM      5  C   UNL     1      11.116   3.677  23.432  0.00  0.00    +0.173 C 
ATOM      6  N   UNL     1      10.034   2.732  23.585  0.00  0.00    -0.266 N 
ATOM      7  C   UNL     1       8.725   2.961  23.242  0.00  0.00    +0.069 A 
ATOM      8  C   UNL     1       8.058   1.789  23.573  0.00  0.00    +0.032 A 
ATOM      9  C   UNL     1       6.676   1.684  23.312  0.00  0.00    +0.012 A 
ATOM     10  C   UNL     1       6.000   2.773  22.757  0.00  0.00    +0.001 A 
ATOM     11  C   UNL     1       6.683   3.950  22.465  0.00  0.00    +0.002 A 
ATOM     12  C   UNL     1       9.042   0.942  24.161  0.00  0.00    +0.155 A 
ATOM     13  C   UNL     1       8.062   4.068  22.691  0.00  0.00    +0.028 A 
ATOM     14  N   UNL     1      10.267   1.512  24.129  0.00  0.00    -0.166 NA
ENDBRANCH   1  12
BRANCH   2  15
ATOM     15  C   UNL     1       7.774  -2.616  24.379  0.00  0.00    +0.076 C 
ATOM     16  C   UNL     1       8.447  -3.761  23.603  0.00  0.00    +0.041 C 
ATOM     17  C   UNL     1       7.765  -5.142  23.708  0.00  0.00    +0.058 C 
ATOM     18  N   UNL     1       6.633  -5.208  24.634  0.00  0.00    -0.299 NA
ATOM     19  C   UNL     1       7.036  -5.310  26.033  0.00  0.00    +0.105 C 
ATOM     20  C   UNL     1       5.685  -4.132  24.344  0.00  0.00    +0.058 C 
ATOM     21  C   UNL     1       5.088  -4.326  22.933  0.00  0.00    +0.019 C 
ATOM     22  C   UNL     1       6.057  -4.780  21.839  0.00  0.00    +0.003 C 
ATOM     23  C   UNL     1       7.234  -5.611  22.343  0.00  0.00    +0.019 C 
ATOM     24  C   UNL     1       6.260  -2.726  24.551  0.00  0.00    +0.041 C 
ENDBRANCH   2  15
TORSDOF 2
ENDMDL
MODEL 5
REMARK VINA RESULT:      -6.7      2.108      3.376
REMARK  Name = 
REMARK  4 active torsions:
REMARK  status: ('A' for Active; 'I' for Inactive)
REMARK    1  A    between atoms: C_1  and  N_2
REMARK    2  A    between atoms: C_4  and  C_5
REMARK    3  A    between atoms: N_7  and  C_8
REMARK    4  A    between atoms: N_16  and  C_17
REMARK                            x       y       z     vdW  Elec       q    Type
REMARK                         _______ _______ _______ _____ _____    ______ ____
ROOT
ATOM      1  C   UNL     1       5.850  -1.821  24.787  0.00  0.00    +0.265 C 
ATOM      2  N   UNL     1       7.067  -1.328  24.368  0.00  0.00    -0.307 N 
ATOM      3  H   UNL     1       7.733  -2.008  24.009  0.00  0.00    +0.149 HD
ATOM      4  O   UNL     1       4.975  -1.086  25.241  0.00  0.00    -0.268 OA
ENDROOT
BRANCH   1  12
ATOM      5  C   UNL     1       5.048  -6.498  25.889  0.00  0.00    +0.173 C 
ATOM      6  N   UNL     1       5.315  -5.324  25.092  0.00  0.00    -0.266 N 
ATOM      7  C   UNL     1       5.605  -5.325  23.749  0.00  0.00    +0.069 A 
ATOM      8  C   UNL     1       5.794  -3.988  23.424  0.00  0.00    +0.032 A 
ATOM      9  C   UNL     1       6.081  -3.637  22.088  0.00  0.00    +0.012 A 
ATOM     10  C   UNL     1       6.202  -4.644  21.127  0.00  0.00    +0.001 A 
ATOM     11  C   UNL     1       6.043  -5.980  21.484  0.00  0.00    +0.002 A 
ATOM     12  C   UNL     1       5.653  -3.273  24.648  0.00  0.00    +0.155 A 
ATOM     13  C   UNL     1       5.731  -6.350  22.801  0.00  0.00    +0.028 A 
ATOM     14  N   UNL     1       5.319  -4.096  25.666  0.00  0.00    -0.166 NA
ENDBRANCH   1  12
BRANCH   2  15
ATOM     15  C   UNL     1       7.392   0.087  24.537  0.00  0.00    +0.076 C 
ATOM     16  C   UNL     1       6.997   0.932  23.314  0.00  0.00    +0.041 C 
ATOM     17  C   UNL     1       7.701   2.299  23.182  0.00  0.00    +0.058 C 
ATOM     18  N   UNL     1       8.565   2.666  24.306  0.00  0.00    -0.299 NA
ATOM     19  C   UNL     1       7.828   3.167  25.461  0.00  0.00    +0.105 C 
ATOM     20  C   UNL     1       9.498   1.577  24.596  0.00  0.00    +0.058 C 
ATOM     21  C   UNL     1      10.441   1.359  23.392  0.00  0.00    +0.019 C 
ATOM     22  C   UNL     1       9.804   1.445  22.003  0.00  0.00    +0.003 C 
ATOM     23  C   UNL     1       8.583   2.357  21.924  0.00  0.00    +0.019 C 
ATOM     24  C   UNL     1       8.817   0.281  25.051  0.00  0.00    +0.041 C 
ENDBRANCH   2  15
TORSDOF 2
ENDMDL
MODEL 6
REMARK VINA RESULT:      -6.7      2.379      7.857
REMARK  Name = 
REMARK  4 active torsions:
REMARK  status: ('A' for Active; 'I' for Inactive)
REMARK    1  A    between atoms: C_1  and  N_2
REMARK    2  A    between atoms: C_4  and  C_5
REMARK    3  A    between atoms: N_7  and  C_8
REMARK    4  A    between atoms: N_16  and  C_17
REMARK                            x       y       z     vdW  Elec       q    Type
REMARK                         _______ _______ _______ _____ _____    ______ ____
ROOT
ATOM      1  C   UNL     1       9.485   1.556  23.941  0.00  0.00    +0.265 C 
ATOM      2  N   UNL     1       9.848   0.865  25.077  0.00  0.00    -0.307 N 
ATOM      3  H   UNL     1      10.504   1.329  25.700  0.00  0.00    +0.149 HD
ATOM      4  O   UNL     1       8.700   1.085  23.120  0.00  0.00    -0.268 OA
ENDROOT
BRANCH   1  12
ATOM      5  C   UNL     1      12.735   5.098  23.150  0.00  0.00    +0.173 C 
ATOM      6  N   UNL     1      11.470   4.464  23.443  0.00  0.00    -0.266 N 
ATOM      7  C   UNL     1      10.319   5.119  23.807  0.00  0.00    +0.069 A 
ATOM      8  C   UNL     1       9.379   4.114  23.993  0.00  0.00    +0.032 A 
ATOM      9  C   UNL     1       8.060   4.461  24.348  0.00  0.00    +0.012 A 
ATOM     10  C   UNL     1       7.733   5.806  24.538  0.00  0.00    +0.001 A 
ATOM     11  C   UNL     1       8.700   6.793  24.379  0.00  0.00    +0.002 A 
ATOM     12  C   UNL     1      10.079   2.892  23.774  0.00  0.00    +0.155 A 
ATOM     13  C   UNL     1      10.012   6.474  24.001  0.00  0.00    +0.028 A 
ATOM     14  N   UNL     1      11.357   3.114  23.397  0.00  0.00    -0.166 NA
ENDBRANCH   1  12
BRANCH   2  15
ATOM     15  C   UNL     1       9.376  -0.501  25.297  0.00  0.00    +0.076 C 
ATOM     16  C   UNL     1       9.733  -1.442  24.134  0.00  0.00    +0.041 C 
ATOM     17  C   UNL     1       8.901  -2.739  24.034  0.00  0.00    +0.058 C 
ATOM     18  N   UNL     1       7.960  -2.961  25.134  0.00  0.00    -0.299 NA
ATOM     19  C   UNL     1       8.595  -3.472  26.343  0.00  0.00    +0.105 C 
ATOM     20  C   UNL     1       7.130  -1.772  25.330  0.00  0.00    +0.058 C 
ATOM     21  C   UNL     1       6.264  -1.524  24.075  0.00  0.00    +0.019 C 
ATOM     22  C   UNL     1       6.944  -1.742  22.722  0.00  0.00    +0.003 C 
ATOM     23  C   UNL     1       8.070  -2.773  22.741  0.00  0.00    +0.019 C 
ATOM     24  C   UNL     1       7.919  -0.527  25.754  0.00  0.00    +0.041 C 
ENDBRANCH   2  15
TORSDOF 2
ENDMDL
MODEL 7
REMARK VINA RESULT:      -6.6      1.813      2.723
REMARK  Name = 
REMARK  4 active torsions:
REMARK  status: ('A' for Active; 'I' for Inactive)
REMARK    1  A    between atoms: C_1  and  N_2
REMARK    2  A    between atoms: C_4  and  C_5
REMARK    3  A    between atoms: N_7  and  C_8
REMARK    4  A    between atoms: N_16  and  C_17
REMARK                            x       y       z     vdW  Elec       q    Type
REMARK                         _______ _______ _______ _____ _____    ______ ____
ROOT
ATOM      1  C   UNL     1       8.054  -3.191  25.017  0.00  0.00    +0.265 C 
ATOM      2  N   UNL     1       7.520  -1.925  24.908  0.00  0.00    -0.307 N 
ATOM      3  H   UNL     1       6.609  -1.779  25.335  0.00  0.00    +0.149 HD
ATOM      4  O   UNL     1       9.148  -3.477  24.534  0.00  0.00    -0.268 OA
ENDROOT
BRANCH   1  12
ATOM      5  C   UNL     1       6.346  -5.993  28.618  0.00  0.00    +0.173 C 
ATOM      6  N   UNL     1       6.481  -5.420  27.299  0.00  0.00    -0.266 N 
ATOM      7  C   UNL     1       5.802  -5.835  26.180  0.00  0.00    +0.069 A 
ATOM      8  C   UNL     1       6.257  -5.010  25.159  0.00  0.00    +0.032 A 
ATOM      9  C   UNL     1       5.722  -5.158  23.863  0.00  0.00    +0.012 A 
ATOM     10  C   UNL     1       4.772  -6.154  23.624  0.00  0.00    +0.001 A 
ATOM     11  C   UNL     1       4.356  -6.991  24.655  0.00  0.00    +0.002 A 
ATOM     12  C   UNL     1       7.247  -4.176  25.755  0.00  0.00    +0.155 A 
ATOM     13  C   UNL     1       4.854  -6.845  25.958  0.00  0.00    +0.028 A 
ATOM     14  N   UNL     1       7.354  -4.406  27.082  0.00  0.00    -0.166 NA
ENDBRANCH   1  12
BRANCH   2  15
ATOM     15  C   UNL     1       8.205  -0.897  24.127  0.00  0.00    +0.076 C 
ATOM     16  C   UNL     1       8.890   0.157  25.014  0.00  0.00    +0.041 C 
ATOM     17  C   UNL     1       9.219   1.503  24.332  0.00  0.00    +0.058 C 
ATOM     18  N   UNL     1       8.945   1.556  22.894  0.00  0.00    -0.299 NA
ATOM     19  C   UNL     1       9.972   0.906  22.087  0.00  0.00    +0.105 C 
ATOM     20  C   UNL     1       7.579   1.108  22.628  0.00  0.00    +0.058 C 
ATOM     21  C   UNL     1       6.572   2.078  23.286  0.00  0.00    +0.019 C 
ATOM     22  C   UNL     1       6.930   2.588  24.683  0.00  0.00    +0.003 C 
ATOM     23  C   UNL     1       8.428   2.660  24.964  0.00  0.00    +0.019 C 
ATOM     24  C   UNL     1       7.318  -0.354  23.008  0.00  0.00    +0.041 C 
ENDBRANCH   2  15
TORSDOF 2
ENDMDL
MODEL 8
REMARK VINA RESULT:      -6.6      1.590      7.376
REMARK  Name = 
REMARK  4 active torsions:
REMARK  status: ('A' for Active; 'I' for Inactive)
REMARK    1  A    between atoms: C_1  and  N_2
REMARK    2  A    between atoms: C_4  and  C_5
REMARK    3  A    between atoms: N_7  and  C_8
REMARK    4  A    between atoms: N_16  and  C_17
REMARK                            x       y       z     vdW  Elec       q    Type
REMARK                         _______ _______ _______ _____ _____    ______ ____
ROOT
ATOM      1  C   UNL     1       9.737  -0.183  23.605  0.00  0.00    +0.265 C 
ATOM      2  N   UNL     1       8.867  -0.788  24.487  0.00  0.00    -0.307 N 
ATOM      3  H   UNL     1       8.209  -0.178  24.965  0.00  0.00    +0.149 HD
ATOM      4  O   UNL     1      10.574  -0.828  22.977  0.00  0.00    -0.268 OA
ENDROOT
BRANCH   1  12
ATOM      5  C   UNL     1      10.710   4.588  23.736  0.00  0.00    +0.173 C 
ATOM      6  N   UNL     1       9.983   3.363  23.498  0.00  0.00    -0.266 N 
ATOM      7  C   UNL     1       8.679   3.282  23.075  0.00  0.00    +0.069 A 
ATOM      8  C   UNL     1       8.412   1.922  22.998  0.00  0.00    +0.032 A 
ATOM      9  C   UNL     1       7.144   1.492  22.554  0.00  0.00    +0.012 A 
ATOM     10  C   UNL     1       6.172   2.444  22.235  0.00  0.00    +0.001 A 
ATOM     11  C   UNL     1       6.452   3.802  22.354  0.00  0.00    +0.002 A 
ATOM     12  C   UNL     1       9.597   1.273  23.449  0.00  0.00    +0.155 A 
ATOM     13  C   UNL     1       7.714   4.252  22.767  0.00  0.00    +0.028 A 
ATOM     14  N   UNL     1      10.576   2.164  23.719  0.00  0.00    -0.166 NA
ENDBRANCH   1  12
BRANCH   2  15
ATOM     15  C   UNL     1       8.975  -2.217  24.772  0.00  0.00    +0.076 C 
ATOM     16  C   UNL     1       8.306  -3.086  23.694  0.00  0.00    +0.041 C 
ATOM     17  C   UNL     1       7.947  -4.528  24.114  0.00  0.00    +0.058 C 
ATOM     18  N   UNL     1       8.402  -4.918  25.451  0.00  0.00    -0.299 NA
ATOM     19  C   UNL     1       9.818  -5.266  25.499  0.00  0.00    +0.105 C 
ATOM     20  C   UNL     1       7.979  -3.922  26.434  0.00  0.00    +0.058 C 
ATOM     21  C   UNL     1       6.436  -3.880  26.508  0.00  0.00    +0.019 C 
ATOM     22  C   UNL     1       5.687  -3.979  25.178  0.00  0.00    +0.003 C 
ATOM     23  C   UNL     1       6.426  -4.756  24.093  0.00  0.00    +0.019 C 
ATOM     24  C   UNL     1       8.593  -2.534  26.217  0.00  0.00    +0.041 C 
ENDBRANCH   2  15
TORSDOF 2
ENDMDL
MODEL 9
REMARK VINA RESULT:      -6.4      1.291      2.352
REMARK  Name = 
REMARK  4 active torsions:
REMARK  status: ('A' for Active; 'I' for Inactive)
REMARK    1  A    between atoms: C_1  and  N_2
REMARK    2  A    between atoms: C_4  and  C_5
REMARK    3  A    between atoms: N_7  and  C_8
REMARK    4  A    between atoms: N_16  and  C_17
REMARK                            x       y       z     vdW  Elec       q    Type
REMARK                         _______ _______ _______ _____ _____    ______ ____
ROOT
ATOM      1  C   UNL     1       7.346  -1.886  23.289  0.00  0.00    +0.265 C 
ATOM      2  N   UNL     1       6.462  -0.873  22.986  0.00  0.00    -0.307 N 
ATOM      3  H   UNL     1       5.557  -1.156  22.618  0.00  0.00    +0.149 HD
ATOM      4  O   UNL     1       8.467  -1.654  23.737  0.00  0.00    -0.268 OA
ENDROOT
BRANCH   1  12
ATOM      5  C   UNL     1       6.069  -6.017  21.044  0.00  0.00    +0.173 C 
ATOM      6  N   UNL     1       6.292  -5.073  22.115  0.00  0.00    -0.266 N 
ATOM      7  C   UNL     1       5.931  -5.261  23.427  0.00  0.00    +0.069 A 
ATOM      8  C   UNL     1       6.331  -4.101  24.077  0.00  0.00    +0.032 A 
ATOM      9  C   UNL     1       6.130  -3.987  25.468  0.00  0.00    +0.012 A 
ATOM     10  C   UNL     1       5.502  -5.027  26.157  0.00  0.00    +0.001 A 
ATOM     11  C   UNL     1       5.079  -6.165  25.478  0.00  0.00    +0.002 A 
ATOM     12  C   UNL     1       6.867  -3.258  23.061  0.00  0.00    +0.155 A 
ATOM     13  C   UNL     1       5.292  -6.313  24.100  0.00  0.00    +0.028 A 
ATOM     14  N   UNL     1       6.876  -3.877  21.860  0.00  0.00    -0.166 NA
ENDBRANCH   1  12
BRANCH   2  15
ATOM     15  C   UNL     1       6.868   0.526  23.102  0.00  0.00    +0.076 C 
ATOM     16  C   UNL     1       7.805   0.964  21.963  0.00  0.00    +0.041 C 
ATOM     17  C   UNL     1       8.653   2.225  22.233  0.00  0.00    +0.058 C 
ATOM     18  N   UNL     1       8.364   2.912  23.494  0.00  0.00    -0.299 NA
ATOM     19  C   UNL     1       7.165   3.740  23.439  0.00  0.00    +0.105 C 
ATOM     20  C   UNL     1       8.404   1.958  24.602  0.00  0.00    +0.058 C 
ATOM     21  C   UNL     1       9.830   1.384  24.750  0.00  0.00    +0.019 C 
ATOM     22  C   UNL     1      10.568   1.048  23.452  0.00  0.00    +0.003 C 
ATOM     23  C   UNL     1      10.155   1.898  22.254  0.00  0.00    +0.019 C 
ATOM     24  C   UNL     1       7.336   0.861  24.517  0.00  0.00    +0.041 C 
ENDBRANCH   2  15
TORSDOF 2
ENDMDL
