MODEL 1
REMARK VINA RESULT:      -7.0      0.000      0.000
REMARK  Name = 
REMARK  7 active torsions:
REMARK  status: ('A' for Active; 'I' for Inactive)
REMARK    1  A    between atoms: C_2  and  C_3
REMARK    2  A    between atoms: C_2  and  O_4
REMARK    3  A    between atoms: C_2  and  C_5
REMARK    4  A    between atoms: C_5  and  N_6
REMARK    5  A    between atoms: N_6  and  C_7
REMARK    6  A    between atoms: C_11  and  C_19
REMARK    7  A    between atoms: C_12  and  C_13
REMARK                            x       y       z     vdW  Elec       q    Type
REMARK                         _______ _______ _______ _____ _____    ______ ____
ROOT
ATOM      1  C   UNL     1       5.272  -6.474  26.124  0.00  0.00    +0.132 A 
ATOM      2  N   UNL     1       5.077  -7.070  27.336  0.00  0.00    -0.220 NA
ATOM      3  C   UNL     1       5.859  -6.756  28.373  0.00  0.00    +0.225 A 
ATOM      4  N   UNL     1       6.840  -5.858  28.391  0.00  0.00    -0.218 NA
ATOM      5  C   UNL     1       7.002  -5.290  27.189  0.00  0.00    +0.144 A 
ATOM      6  N   UNL     1       7.899  -4.301  26.982  0.00  0.00    -0.338 N 
ATOM      7  H   UNL     1       8.452  -3.913  27.724  0.00  0.00    +0.167 HD
ATOM      8  C   UNL     1       7.854  -3.820  25.689  0.00  0.00    +0.057 A 
ATOM      9  C   UNL     1       6.982  -4.685  24.984  0.00  0.00    +0.020 A 
ATOM     10  C   UNL     1       6.332  -5.530  26.008  0.00  0.00    +0.067 A 
ENDROOT
BRANCH   8  11
ATOM     11  C   UNL     1       8.661  -2.606  25.443  0.00  0.00    -0.001 A 
ATOM     12  C   UNL     1       9.398  -2.433  24.267  0.00  0.00    +0.010 A 
ATOM     13  C   UNL     1      10.100  -1.251  24.011  0.00  0.00    +0.001 A 
ATOM     14  C   UNL     1       9.952  -0.158  24.858  0.00  0.00    +0.000 A 
ATOM     15  C   UNL     1       9.142  -0.267  25.982  0.00  0.00    +0.001 A 
ATOM     16  C   UNL     1       8.534  -1.488  26.293  0.00  0.00    +0.010 A 
ENDBRANCH   8  11
BRANCH   9  17
ATOM     17  C   UNL     1       6.746  -4.721  23.514  0.00  0.00    -0.015 A 
ATOM     18  C   UNL     1       6.275  -3.638  22.763  0.00  0.00    +0.008 A 
ATOM     19  C   UNL     1       5.902  -3.752  21.413  0.00  0.00    +0.001 A 
ATOM     20  C   UNL     1       6.072  -4.953  20.748  0.00  0.00    +0.000 A 
ATOM     21  C   UNL     1       6.666  -6.010  21.421  0.00  0.00    +0.001 A 
ATOM     22  C   UNL     1       7.006  -5.882  22.781  0.00  0.00    +0.008 A 
ENDBRANCH   9  17
BRANCH   1  23
ATOM     23  N   UNL     1       4.353  -6.770  25.094  0.00  0.00    -0.326 N 
ATOM     24  H   UNL     1       4.764  -6.375  24.247  0.00  0.00    +0.148 HD
BRANCH  23  25
ATOM     25  C   UNL     1       3.017  -6.186  25.348  0.00  0.00    +0.134 C 
BRANCH  25  26
ATOM     26  C   UNL     1       2.701  -5.057  24.349  0.00  0.00    +0.128 C 
ATOM     27  C   UNL     1       3.235  -3.699  24.778  0.00  0.00    +0.039 C 
BRANCH  26  28
ATOM     28  O   UNL     1       3.253  -5.363  23.067  0.00  0.00    -0.391 OA
ATOM     29  H   UNL     1       3.490  -6.309  23.122  0.00  0.00    +0.210 HD
ENDBRANCH  26  28
ENDBRANCH  25  26
ENDBRANCH  23  25
ENDBRANCH   1  23
TORSDOF 6
ENDMDL
MODEL 2
REMARK VINA RESULT:      -6.8      2.193      5.874
REMARK  Name = 
REMARK  7 active torsions:
REMARK  status: ('A' for Active; 'I' for Inactive)
REMARK    1  A    between atoms: C_2  and  C_3
REMARK    2  A    between atoms: C_2  and  O_4
REMARK    3  A    between atoms: C_2  and  C_5
REMARK    4  A    between atoms: C_5  and  N_6
REMARK    5  A    between atoms: N_6  and  C_7
REMARK    6  A    between atoms: C_11  and  C_19
REMARK    7  A    between atoms: C_12  and  C_13
REMARK                            x       y       z     vdW  Elec       q    Type
REMARK                         _______ _______ _______ _____ _____    ______ ____
ROOT
ATOM      1  C   UNL     1       6.961  -5.933  26.997  0.00  0.00    +0.132 A 
ATOM      2  N   UNL     1       7.136  -6.186  28.327  0.00  0.00    -0.220 NA
ATOM      3  C   UNL     1       6.131  -6.680  29.056  0.00  0.00    +0.225 A 
ATOM      4  N   UNL     1       4.918  -7.012  28.624  0.00  0.00    -0.218 NA
ATOM      5  C   UNL     1       4.781  -6.756  27.316  0.00  0.00    +0.144 A 
ATOM      6  N   UNL     1       3.653  -7.071  26.642  0.00  0.00    -0.338 N 
ATOM      7  H   UNL     1       2.886  -7.552  27.073  0.00  0.00    +0.167 HD
ATOM      8  C   UNL     1       3.752  -6.777  25.297  0.00  0.00    +0.057 A 
ATOM      9  C   UNL     1       4.969  -6.069  25.143  0.00  0.00    +0.020 A 
ATOM     10  C   UNL     1       5.682  -6.201  26.432  0.00  0.00    +0.067 A 
ENDROOT
BRANCH   8  11
ATOM     11  C   UNL     1       2.640  -7.277  24.462  0.00  0.00    -0.001 A 
ATOM     12  C   UNL     1       2.324  -6.703  23.227  0.00  0.00    +0.010 A 
ATOM     13  C   UNL     1       1.317  -7.227  22.411  0.00  0.00    +0.001 A 
ATOM     14  C   UNL     1       0.709  -8.432  22.746  0.00  0.00    +0.000 A 
ATOM     15  C   UNL     1       1.077  -9.082  23.919  0.00  0.00    +0.001 A 
ATOM     16  C   UNL     1       2.003  -8.493  24.786  0.00  0.00    +0.010 A 
ENDBRANCH   8  11
BRANCH   9  17
ATOM     17  C   UNL     1       5.448  -5.357  23.926  0.00  0.00    -0.015 A 
ATOM     18  C   UNL     1       5.160  -4.020  23.629  0.00  0.00    +0.008 A 
ATOM     19  C   UNL     1       5.482  -3.427  22.397  0.00  0.00    +0.001 A 
ATOM     20  C   UNL     1       6.186  -4.146  21.447  0.00  0.00    +0.000 A 
ATOM     21  C   UNL     1       6.611  -5.428  21.760  0.00  0.00    +0.001 A 
ATOM     22  C   UNL     1       6.253  -6.012  22.990  0.00  0.00    +0.008 A 
ENDBRANCH   9  17
BRANCH   1  23
ATOM     23  N   UNL     1       8.086  -5.508  26.258  0.00  0.00    -0.326 N 
ATOM     24  H   UNL     1       8.893  -5.849  26.781  0.00  0.00    +0.148 HD
BRANCH  23  25
ATOM     25  C   UNL     1       8.139  -4.035  26.114  0.00  0.00    +0.134 C 
BRANCH  25  26
ATOM     26  C   UNL     1       8.612  -3.628  24.706  0.00  0.00    +0.128 C 
ATOM     27  C   UNL     1       8.463  -2.142  24.420  0.00  0.00    +0.039 C 
BRANCH  26  28
ATOM     28  O   UNL     1       9.987  -3.975  24.528  0.00  0.00    -0.391 OA
ATOM     29  H   UNL     1      10.418  -3.141  24.260  0.00  0.00    +0.210 HD
ENDBRANCH  26  28
ENDBRANCH  25  26
ENDBRANCH  23  25
ENDBRANCH   1  23
TORSDOF 6
ENDMDL
MODEL 3
REMARK VINA RESULT:      -6.4      2.660      3.521
REMARK  Name = 
REMARK  7 active torsions:
REMARK  status: ('A' for Active; 'I' for Inactive)
REMARK    1  A    between atoms: C_2  and  C_3
REMARK    2  A    between atoms: C_2  and  O_4
REMARK    3  A    between atoms: C_2  and  C_5
REMARK    4  A    between atoms: C_5  and  N_6
REMARK    5  A    between atoms: N_6  and  C_7
REMARK    6  A    between atoms: C_11  and  C_19
REMARK    7  A    between atoms: C_12  and  C_13
REMARK                            x       y       z     vdW  Elec       q    Type
REMARK                         _______ _______ _______ _____ _____    ______ ____
ROOT
ATOM      1  C   UNL     1       3.824  -2.956  25.270  0.00  0.00    +0.132 A 
ATOM      2  N   UNL     1       3.092  -2.432  26.296  0.00  0.00    -0.220 NA
ATOM      3  C   UNL     1       3.453  -1.273  26.855  0.00  0.00    +0.225 A 
ATOM      4  N   UNL     1       4.472  -0.497  26.500  0.00  0.00    -0.218 NA
ATOM      5  C   UNL     1       5.167  -1.038  25.490  0.00  0.00    +0.144 A 
ATOM      6  N   UNL     1       6.209  -0.398  24.918  0.00  0.00    -0.338 N 
ATOM      7  H   UNL     1       6.486   0.528  25.187  0.00  0.00    +0.167 HD
ATOM      8  C   UNL     1       6.737  -1.108  23.858  0.00  0.00    +0.057 A 
ATOM      9  C   UNL     1       6.085  -2.365  23.870  0.00  0.00    +0.020 A 
ATOM     10  C   UNL     1       4.974  -2.237  24.837  0.00  0.00    +0.067 A 
ENDROOT
BRANCH   8  11
ATOM     11  C   UNL     1       7.747  -0.382  23.058  0.00  0.00    -0.001 A 
ATOM     12  C   UNL     1       7.493   0.881  22.515  0.00  0.00    +0.010 A 
ATOM     13  C   UNL     1       8.477   1.592  21.821  0.00  0.00    +0.001 A 
ATOM     14  C   UNL     1       9.784   1.117  21.790  0.00  0.00    +0.000 A 
ATOM     15  C   UNL     1      10.090  -0.088  22.412  0.00  0.00    +0.001 A 
ATOM     16  C   UNL     1       9.076  -0.848  23.005  0.00  0.00    +0.010 A 
ENDBRANCH   8  11
BRANCH   9  17
ATOM     17  C   UNL     1       6.430  -3.565  23.058  0.00  0.00    -0.015 A 
ATOM     18  C   UNL     1       5.858  -3.869  21.817  0.00  0.00    +0.008 A 
ATOM     19  C   UNL     1       6.076  -5.089  21.156  0.00  0.00    +0.001 A 
ATOM     20  C   UNL     1       6.953  -6.017  21.691  0.00  0.00    +0.000 A 
ATOM     21  C   UNL     1       7.645  -5.693  22.848  0.00  0.00    +0.001 A 
ATOM     22  C   UNL     1       7.389  -4.476  23.508  0.00  0.00    +0.008 A 
ENDBRANCH   9  17
BRANCH   1  23
ATOM     23  N   UNL     1       3.338  -4.130  24.653  0.00  0.00    -0.326 N 
ATOM     24  H   UNL     1       2.352  -4.177  24.909  0.00  0.00    +0.148 HD
BRANCH  23  25
ATOM     25  C   UNL     1       4.057  -5.341  25.107  0.00  0.00    +0.134 C 
BRANCH  25  26
ATOM     26  C   UNL     1       3.607  -6.587  24.319  0.00  0.00    +0.128 C 
ATOM     27  C   UNL     1       2.900  -6.257  23.013  0.00  0.00    +0.039 C 
BRANCH  26  28
ATOM     28  O   UNL     1       4.733  -7.412  24.014  0.00  0.00    -0.391 OA
ATOM     29  H   UNL     1       4.344  -8.256  23.715  0.00  0.00    +0.210 HD
ENDBRANCH  26  28
ENDBRANCH  25  26
ENDBRANCH  23  25
ENDBRANCH   1  23
TORSDOF 6
ENDMDL
MODEL 4
REMARK VINA RESULT:      -6.3      6.299      9.664
REMARK  Name = 
REMARK  7 active torsions:
REMARK  status: ('A' for Active; 'I' for Inactive)
REMARK    1  A    between atoms: C_2  and  C_3
REMARK    2  A    between atoms: C_2  and  O_4
REMARK    3  A    between atoms: C_2  and  C_5
REMARK    4  A    between atoms: C_5  and  N_6
REMARK    5  A    between atoms: N_6  and  C_7
REMARK    6  A    between atoms: C_11  and  C_19
REMARK    7  A    between atoms: C_12  and  C_13
REMARK                            x       y       z     vdW  Elec       q    Type
REMARK                         _______ _______ _______ _____ _____    ______ ____
ROOT
ATOM      1  C   UNL     1       9.594   5.414  24.076  0.00  0.00    +0.132 A 
ATOM      2  N   UNL     1      10.665   6.209  23.786  0.00  0.00    -0.220 NA
ATOM      3  C   UNL     1      11.832   5.663  23.435  0.00  0.00    +0.225 A 
ATOM      4  N   UNL     1      12.097   4.368  23.287  0.00  0.00    -0.218 NA
ATOM      5  C   UNL     1      11.026   3.617  23.576  0.00  0.00    +0.144 A 
ATOM      6  N   UNL     1      11.039   2.273  23.435  0.00  0.00    -0.338 N 
ATOM      7  H   UNL     1      11.829   1.778  23.066  0.00  0.00    +0.167 HD
ATOM      8  C   UNL     1       9.814   1.709  23.727  0.00  0.00    +0.057 A 
ATOM      9  C   UNL     1       9.019   2.756  24.252  0.00  0.00    +0.020 A 
ATOM     10  C   UNL     1       9.774   4.003  24.003  0.00  0.00    +0.067 A 
ENDROOT
BRANCH   8  11
ATOM     11  C   UNL     1       9.693   0.271  23.403  0.00  0.00    -0.001 A 
ATOM     12  C   UNL     1       9.678  -0.713  24.397  0.00  0.00    +0.010 A 
ATOM     13  C   UNL     1       9.490  -2.064  24.086  0.00  0.00    +0.001 A 
ATOM     14  C   UNL     1       9.159  -2.439  22.789  0.00  0.00    +0.000 A 
ATOM     15  C   UNL     1       9.065  -1.468  21.798  0.00  0.00    +0.001 A 
ATOM     16  C   UNL     1       9.366  -0.134  22.093  0.00  0.00    +0.010 A 
ENDBRANCH   8  11
BRANCH   9  17
ATOM     17  C   UNL     1       7.684   2.635  24.901  0.00  0.00    -0.015 A 
ATOM     18  C   UNL     1       6.571   2.028  24.308  0.00  0.00    +0.008 A 
ATOM     19  C   UNL     1       5.285   2.078  24.872  0.00  0.00    +0.001 A 
ATOM     20  C   UNL     1       5.095   2.676  26.106  0.00  0.00    +0.000 A 
ATOM     21  C   UNL     1       6.198   3.165  26.788  0.00  0.00    +0.001 A 
ATOM     22  C   UNL     1       7.472   3.129  26.191  0.00  0.00    +0.008 A 
ENDBRANCH   9  17
BRANCH   1  23
ATOM     23  N   UNL     1       8.361   6.047  24.342  0.00  0.00    -0.326 N 
ATOM     24  H   UNL     1       7.698   5.287  24.494  0.00  0.00    +0.148 HD
BRANCH  23  25
ATOM     25  C   UNL     1       7.921   6.912  23.224  0.00  0.00    +0.134 C 
BRANCH  25  26
ATOM     26  C   UNL     1       7.323   6.078  22.075  0.00  0.00    +0.128 C 
ATOM     27  C   UNL     1       6.154   5.203  22.503  0.00  0.00    +0.039 C 
BRANCH  26  28
ATOM     28  O   UNL     1       6.870   6.936  21.026  0.00  0.00    -0.391 OA
ATOM     29  H   UNL     1       5.911   6.761  20.963  0.00  0.00    +0.210 HD
ENDBRANCH  26  28
ENDBRANCH  25  26
ENDBRANCH  23  25
ENDBRANCH   1  23
TORSDOF 6
ENDMDL
MODEL 5
REMARK VINA RESULT:      -6.2      2.648      4.612
REMARK  Name = 
REMARK  7 active torsions:
REMARK  status: ('A' for Active; 'I' for Inactive)
REMARK    1  A    between atoms: C_2  and  C_3
REMARK    2  A    between atoms: C_2  and  O_4
REMARK    3  A    between atoms: C_2  and  C_5
REMARK    4  A    between atoms: C_5  and  N_6
REMARK    5  A    between atoms: N_6  and  C_7
REMARK    6  A    between atoms: C_11  and  C_19
REMARK    7  A    between atoms: C_12  and  C_13
REMARK                            x       y       z     vdW  Elec       q    Type
REMARK                         _______ _______ _______ _____ _____    ______ ____
ROOT
ATOM      1  C   UNL     1       5.725  -5.036  23.934  0.00  0.00    +0.132 A 
ATOM      2  N   UNL     1       5.663  -6.054  23.027  0.00  0.00    -0.220 NA
ATOM      3  C   UNL     1       6.326  -5.964  21.870  0.00  0.00    +0.225 A 
ATOM      4  N   UNL     1       7.118  -4.971  21.477  0.00  0.00    -0.218 NA
ATOM      5  C   UNL     1       7.160  -3.992  22.391  0.00  0.00    +0.144 A 
ATOM      6  N   UNL     1       7.950  -2.907  22.238  0.00  0.00    -0.338 N 
ATOM      7  H   UNL     1       8.575  -2.802  21.461  0.00  0.00    +0.167 HD
ATOM      8  C   UNL     1       7.885  -2.059  23.325  0.00  0.00    +0.057 A 
ATOM      9  C   UNL     1       6.850  -2.564  24.149  0.00  0.00    +0.020 A 
ATOM     10  C   UNL     1       6.503  -3.891  23.599  0.00  0.00    +0.067 A 
ENDROOT
BRANCH   8  11
ATOM     11  C   UNL     1       8.870  -0.957  23.321  0.00  0.00    -0.001 A 
ATOM     12  C   UNL     1       8.824   0.073  22.376  0.00  0.00    +0.010 A 
ATOM     13  C   UNL     1       9.716   1.150  22.422  0.00  0.00    +0.001 A 
ATOM     14  C   UNL     1      10.572   1.296  23.507  0.00  0.00    +0.000 A 
ATOM     15  C   UNL     1      10.568   0.340  24.517  0.00  0.00    +0.001 A 
ATOM     16  C   UNL     1       9.755  -0.793  24.406  0.00  0.00    +0.010 A 
ENDBRANCH   8  11
BRANCH   9  17
ATOM     17  C   UNL     1       6.248  -1.906  25.342  0.00  0.00    -0.015 A 
ATOM     18  C   UNL     1       4.872  -1.769  25.557  0.00  0.00    +0.008 A 
ATOM     19  C   UNL     1       4.338  -0.998  26.603  0.00  0.00    +0.001 A 
ATOM     20  C   UNL     1       5.182  -0.403  27.524  0.00  0.00    +0.000 A 
ATOM     21  C   UNL     1       6.546  -0.632  27.425  0.00  0.00    +0.001 A 
ATOM     22  C   UNL     1       7.060  -1.385  26.352  0.00  0.00    +0.008 A 
ENDBRANCH   9  17
BRANCH   1  23
ATOM     23  N   UNL     1       5.086  -5.229  25.178  0.00  0.00    -0.326 N 
ATOM     24  H   UNL     1       4.962  -4.292  25.562  0.00  0.00    +0.148 HD
BRANCH  23  25
ATOM     25  C   UNL     1       5.887  -6.070  26.096  0.00  0.00    +0.134 C 
BRANCH  25  26
ATOM     26  C   UNL     1       6.647  -5.209  27.123  0.00  0.00    +0.128 C 
ATOM     27  C   UNL     1       5.738  -4.507  28.120  0.00  0.00    +0.039 C 
BRANCH  26  28
ATOM     28  O   UNL     1       7.568  -6.017  27.860  0.00  0.00    -0.391 OA
ATOM     29  H   UNL     1       7.994  -5.397  28.483  0.00  0.00    +0.210 HD
ENDBRANCH  26  28
ENDBRANCH  25  26
ENDBRANCH  23  25
ENDBRANCH   1  23
TORSDOF 6
ENDMDL
MODEL 6
REMARK VINA RESULT:      -6.0      4.869      7.389
REMARK  Name = 
REMARK  7 active torsions:
REMARK  status: ('A' for Active; 'I' for Inactive)
REMARK    1  A    between atoms: C_2  and  C_3
REMARK    2  A    between atoms: C_2  and  O_4
REMARK    3  A    between atoms: C_2  and  C_5
REMARK    4  A    between atoms: C_5  and  N_6
REMARK    5  A    between atoms: N_6  and  C_7
REMARK    6  A    between atoms: C_11  and  C_19
REMARK    7  A    between atoms: C_12  and  C_13
REMARK                            x       y       z     vdW  Elec       q    Type
REMARK                         _______ _______ _______ _____ _____    ______ ____
ROOT
ATOM      1  C   UNL     1       5.856   1.672  24.591  0.00  0.00    +0.132 A 
ATOM      2  N   UNL     1       4.773   2.094  25.307  0.00  0.00    -0.220 NA
ATOM      3  C   UNL     1       4.840   3.219  26.024  0.00  0.00    +0.225 A 
ATOM      4  N   UNL     1       5.872   4.053  26.111  0.00  0.00    -0.218 NA
ATOM      5  C   UNL     1       6.915   3.611  25.395  0.00  0.00    +0.144 A 
ATOM      6  N   UNL     1       8.056   4.325  25.281  0.00  0.00    -0.338 N 
ATOM      7  H   UNL     1       8.162   5.238  25.686  0.00  0.00    +0.167 HD
ATOM      8  C   UNL     1       8.972   3.714  24.449  0.00  0.00    +0.057 A 
ATOM      9  C   UNL     1       8.433   2.439  24.150  0.00  0.00    +0.020 A 
ATOM     10  C   UNL     1       7.042   2.458  24.650  0.00  0.00    +0.067 A 
ENDROOT
BRANCH   8  11
ATOM     11  C   UNL     1      10.159   4.530  24.116  0.00  0.00    -0.001 A 
ATOM     12  C   UNL     1      10.373   5.791  24.681  0.00  0.00    +0.010 A 
ATOM     13  C   UNL     1      11.533   6.525  24.416  0.00  0.00    +0.001 A 
ATOM     14  C   UNL     1      12.575   5.943  23.702  0.00  0.00    +0.000 A 
ATOM     15  C   UNL     1      12.432   4.648  23.214  0.00  0.00    +0.001 A 
ATOM     16  C   UNL     1      11.224   3.964  23.386  0.00  0.00    +0.010 A 
ENDBRANCH   8  11
BRANCH   9  17
ATOM     17  C   UNL     1       9.117   1.314  23.453  0.00  0.00    -0.015 A 
ATOM     18  C   UNL     1       9.058   1.089  22.073  0.00  0.00    +0.008 A 
ATOM     19  C   UNL     1       9.570  -0.071  21.469  0.00  0.00    +0.001 A 
ATOM     20  C   UNL     1      10.238  -1.011  22.233  0.00  0.00    +0.000 A 
ATOM     21  C   UNL     1      10.438  -0.756  23.581  0.00  0.00    +0.001 A 
ATOM     22  C   UNL     1       9.892   0.400  24.171  0.00  0.00    +0.008 A 
ENDBRANCH   9  17
BRANCH   1  23
ATOM     23  N   UNL     1       5.696   0.532  23.773  0.00  0.00    -0.326 N 
ATOM     24  H   UNL     1       4.694   0.477  23.586  0.00  0.00    +0.148 HD
BRANCH  23  25
ATOM     25  C   UNL     1       6.174  -0.704  24.433  0.00  0.00    +0.134 C 
BRANCH  25  26
ATOM     26  C   UNL     1       6.765  -1.692  23.408  0.00  0.00    +0.128 C 
ATOM     27  C   UNL     1       7.431  -2.901  24.044  0.00  0.00    +0.039 C 
BRANCH  26  28
ATOM     28  O   UNL     1       5.740  -2.164  22.530  0.00  0.00    -0.391 OA
ATOM     29  H   UNL     1       4.952  -1.638  22.769  0.00  0.00    +0.210 HD
ENDBRANCH  26  28
ENDBRANCH  25  26
ENDBRANCH  23  25
ENDBRANCH   1  23
TORSDOF 6
ENDMDL
MODEL 7
REMARK VINA RESULT:      -5.9      3.185      5.635
REMARK  Name = 
REMARK  7 active torsions:
REMARK  status: ('A' for Active; 'I' for Inactive)
REMARK    1  A    between atoms: C_2  and  C_3
REMARK    2  A    between atoms: C_2  and  O_4
REMARK    3  A    between atoms: C_2  and  C_5
REMARK    4  A    between atoms: C_5  and  N_6
REMARK    5  A    between atoms: N_6  and  C_7
REMARK    6  A    between atoms: C_11  and  C_19
REMARK    7  A    between atoms: C_12  and  C_13
REMARK                            x       y       z     vdW  Elec       q    Type
REMARK                         _______ _______ _______ _____ _____    ______ ____
ROOT
ATOM      1  C   UNL     1       7.992  -3.110  25.974  0.00  0.00    +0.132 A 
ATOM      2  N   UNL     1       8.621  -4.233  25.522  0.00  0.00    -0.220 NA
ATOM      3  C   UNL     1       9.553  -4.144  24.569  0.00  0.00    +0.225 A 
ATOM      4  N   UNL     1      10.004  -3.033  23.993  0.00  0.00    -0.218 NA
ATOM      5  C   UNL     1       9.370  -1.950  24.462  0.00  0.00    +0.144 A 
ATOM      6  N   UNL     1       9.704  -0.702  24.070  0.00  0.00    -0.338 N 
ATOM      7  H   UNL     1      10.469  -0.520  23.447  0.00  0.00    +0.167 HD
ATOM      8  C   UNL     1       8.966   0.264  24.723  0.00  0.00    +0.057 A 
ATOM      9  C   UNL     1       7.978  -0.434  25.459  0.00  0.00    +0.020 A 
ATOM     10  C   UNL     1       8.355  -1.862  25.392  0.00  0.00    +0.067 A 
ENDROOT
BRANCH   8  11
ATOM     11  C   UNL     1       9.413   1.655  24.497  0.00  0.00    -0.001 A 
ATOM     12  C   UNL     1      10.534   1.955  23.717  0.00  0.00    +0.010 A 
ATOM     13  C   UNL     1      10.908   3.275  23.448  0.00  0.00    +0.001 A 
ATOM     14  C   UNL     1      10.076   4.323  23.826  0.00  0.00    +0.000 A 
ATOM     15  C   UNL     1       8.899   4.049  24.514  0.00  0.00    +0.001 A 
ATOM     16  C   UNL     1       8.590   2.734  24.879  0.00  0.00    +0.010 A 
ENDBRANCH   8  11
BRANCH   9  17
ATOM     17  C   UNL     1       6.810   0.149  26.177  0.00  0.00    -0.015 A 
ATOM     18  C   UNL     1       5.566   0.399  25.586  0.00  0.00    +0.008 A 
ATOM     19  C   UNL     1       4.541   1.103  26.240  0.00  0.00    +0.001 A 
ATOM     20  C   UNL     1       4.709   1.508  27.552  0.00  0.00    +0.000 A 
ATOM     21  C   UNL     1       5.874   1.155  28.216  0.00  0.00    +0.001 A 
ATOM     22  C   UNL     1       6.899   0.474  27.532  0.00  0.00    +0.008 A 
ENDBRANCH   9  17
BRANCH   1  23
ATOM     23  N   UNL     1       7.089  -3.254  27.050  0.00  0.00    -0.326 N 
ATOM     24  H   UNL     1       7.673  -3.455  27.863  0.00  0.00    +0.148 HD
BRANCH  23  25
ATOM     25  C   UNL     1       6.114  -4.344  26.823  0.00  0.00    +0.134 C 
BRANCH  25  26
ATOM     26  C   UNL     1       6.248  -5.446  27.892  0.00  0.00    +0.128 C 
ATOM     27  C   UNL     1       5.226  -6.563  27.744  0.00  0.00    +0.039 C 
BRANCH  26  28
ATOM     28  O   UNL     1       7.551  -6.030  27.837  0.00  0.00    -0.391 OA
ATOM     29  H   UNL     1       7.748  -6.277  28.761  0.00  0.00    +0.210 HD
ENDBRANCH  26  28
ENDBRANCH  25  26
ENDBRANCH  23  25
ENDBRANCH   1  23
TORSDOF 6
ENDMDL
MODEL 8
REMARK VINA RESULT:      -5.9      3.134      4.476
REMARK  Name = 
REMARK  7 active torsions:
REMARK  status: ('A' for Active; 'I' for Inactive)
REMARK    1  A    between atoms: C_2  and  C_3
REMARK    2  A    between atoms: C_2  and  O_4
REMARK    3  A    between atoms: C_2  and  C_5
REMARK    4  A    between atoms: C_5  and  N_6
REMARK    5  A    between atoms: N_6  and  C_7
REMARK    6  A    between atoms: C_11  and  C_19
REMARK    7  A    between atoms: C_12  and  C_13
REMARK                            x       y       z     vdW  Elec       q    Type
REMARK                         _______ _______ _______ _____ _____    ______ ____
ROOT
ATOM      1  C   UNL     1       4.573  -2.270  26.515  0.00  0.00    +0.132 A 
ATOM      2  N   UNL     1       3.498  -1.617  27.043  0.00  0.00    -0.220 NA
ATOM      3  C   UNL     1       3.432  -0.283  26.996  0.00  0.00    +0.225 A 
ATOM      4  N   UNL     1       4.311   0.542  26.435  0.00  0.00    -0.218 NA
ATOM      5  C   UNL     1       5.351  -0.130  25.923  0.00  0.00    +0.144 A 
ATOM      6  N   UNL     1       6.340   0.493  25.247  0.00  0.00    -0.338 N 
ATOM      7  H   UNL     1       6.323   1.477  25.055  0.00  0.00    +0.167 HD
ATOM      8  C   UNL     1       7.274  -0.397  24.755  0.00  0.00    +0.057 A 
ATOM      9  C   UNL     1       6.937  -1.657  25.305  0.00  0.00    +0.020 A 
ATOM     10  C   UNL     1       5.609  -1.485  25.932  0.00  0.00    +0.067 A 
ENDROOT
BRANCH   8  11
ATOM     11  C   UNL     1       8.274   0.188  23.836  0.00  0.00    -0.001 A 
ATOM     12  C   UNL     1       8.279  -0.099  22.467  0.00  0.00    +0.010 A 
ATOM     13  C   UNL     1       9.182   0.514  21.594  0.00  0.00    +0.001 A 
ATOM     14  C   UNL     1       9.998   1.544  22.048  0.00  0.00    +0.000 A 
ATOM     15  C   UNL     1       9.941   1.924  23.385  0.00  0.00    +0.001 A 
ATOM     16  C   UNL     1       9.117   1.228  24.277  0.00  0.00    +0.010 A 
ENDBRANCH   8  11
BRANCH   9  17
ATOM     17  C   UNL     1       7.741  -2.909  25.246  0.00  0.00    -0.015 A 
ATOM     18  C   UNL     1       7.797  -3.760  24.135  0.00  0.00    +0.008 A 
ATOM     19  C   UNL     1       8.426  -5.015  24.169  0.00  0.00    +0.001 A 
ATOM     20  C   UNL     1       9.098  -5.421  25.308  0.00  0.00    +0.000 A 
ATOM     21  C   UNL     1       9.184  -4.546  26.380  0.00  0.00    +0.001 A 
ATOM     22  C   UNL     1       8.522  -3.305  26.335  0.00  0.00    +0.008 A 
ENDBRANCH   9  17
BRANCH   1  23
ATOM     23  N   UNL     1       4.542  -3.681  26.504  0.00  0.00    -0.326 N 
ATOM     24  H   UNL     1       3.551  -3.926  26.510  0.00  0.00    +0.148 HD
BRANCH  23  25
ATOM     25  C   UNL     1       5.234  -4.267  27.674  0.00  0.00    +0.134 C 
BRANCH  25  26
ATOM     26  C   UNL     1       5.457  -5.781  27.491  0.00  0.00    +0.128 C 
ATOM     27  C   UNL     1       5.464  -6.222  26.036  0.00  0.00    +0.039 C 
BRANCH  26  28
ATOM     28  O   UNL     1       6.701  -6.171  28.077  0.00  0.00    -0.391 OA
ATOM     29  H   UNL     1       7.365  -5.990  27.384  0.00  0.00    +0.210 HD
ENDBRANCH  26  28
ENDBRANCH  25  26
ENDBRANCH  23  25
ENDBRANCH   1  23
TORSDOF 6
ENDMDL
MODEL 9
REMARK VINA RESULT:      -5.9      3.537      7.074
REMARK  Name = 
REMARK  7 active torsions:
REMARK  status: ('A' for Active; 'I' for Inactive)
REMARK    1  A    between atoms: C_2  and  C_3
REMARK    2  A    between atoms: C_2  and  O_4
REMARK    3  A    between atoms: C_2  and  C_5
REMARK    4  A    between atoms: C_5  and  N_6
REMARK    5  A    between atoms: N_6  and  C_7
REMARK    6  A    between atoms: C_11  and  C_19
REMARK    7  A    between atoms: C_12  and  C_13
REMARK                            x       y       z     vdW  Elec       q    Type
REMARK                         _______ _______ _______ _____ _____    ______ ____
ROOT
ATOM      1  C   UNL     1       8.845  -0.303  23.860  0.00  0.00    +0.132 A 
ATOM      2  N   UNL     1       9.957  -0.272  23.069  0.00  0.00    -0.220 NA
ATOM      3  C   UNL     1      10.561  -1.410  22.715  0.00  0.00    +0.225 A 
ATOM      4  N   UNL     1      10.179  -2.647  23.020  0.00  0.00    -0.218 NA
ATOM      5  C   UNL     1       9.084  -2.641  23.793  0.00  0.00    +0.144 A 
ATOM      6  N   UNL     1       8.476  -3.785  24.176  0.00  0.00    -0.338 N 
ATOM      7  H   UNL     1       8.783  -4.688  23.866  0.00  0.00    +0.167 HD
ATOM      8  C   UNL     1       7.334  -3.544  24.913  0.00  0.00    +0.057 A 
ATOM      9  C   UNL     1       7.314  -2.149  25.153  0.00  0.00    +0.020 A 
ATOM     10  C   UNL     1       8.371  -1.574  24.295  0.00  0.00    +0.067 A 
ENDROOT
BRANCH   8  11
ATOM     11  C   UNL     1       6.507  -4.737  25.195  0.00  0.00    -0.001 A 
ATOM     12  C   UNL     1       6.228  -5.152  26.501  0.00  0.00    +0.010 A 
ATOM     13  C   UNL     1       5.386  -6.238  26.760  0.00  0.00    +0.001 A 
ATOM     14  C   UNL     1       4.683  -6.835  25.720  0.00  0.00    +0.000 A 
ATOM     15  C   UNL     1       4.861  -6.375  24.420  0.00  0.00    +0.001 A 
ATOM     16  C   UNL     1       5.791  -5.364  24.155  0.00  0.00    +0.010 A 
ENDBRANCH   8  11
BRANCH   9  17
ATOM     17  C   UNL     1       6.401  -1.405  26.065  0.00  0.00    -0.015 A 
ATOM     18  C   UNL     1       5.004  -1.475  26.011  0.00  0.00    +0.008 A 
ATOM     19  C   UNL     1       4.170  -0.636  26.769  0.00  0.00    +0.001 A 
ATOM     20  C   UNL     1       4.722   0.251  27.676  0.00  0.00    +0.000 A 
ATOM     21  C   UNL     1       6.097   0.249  27.859  0.00  0.00    +0.001 A 
ATOM     22  C   UNL     1       6.915  -0.580  27.068  0.00  0.00    +0.008 A 
ENDBRANCH   9  17
BRANCH   1  23
ATOM     23  N   UNL     1       8.191   0.922  24.118  0.00  0.00    -0.326 N 
ATOM     24  H   UNL     1       7.516   0.714  24.854  0.00  0.00    +0.148 HD
BRANCH  23  25
ATOM     25  C   UNL     1       7.511   1.459  22.918  0.00  0.00    +0.134 C 
BRANCH  25  26
ATOM     26  C   UNL     1       8.275   2.662  22.333  0.00  0.00    +0.128 C 
ATOM     27  C   UNL     1       8.958   3.519  23.387  0.00  0.00    +0.039 C 
BRANCH  26  28
ATOM     28  O   UNL     1       9.275   2.212  21.414  0.00  0.00    -0.391 OA
ATOM     29  H   UNL     1       9.189   2.810  20.647  0.00  0.00    +0.210 HD
ENDBRANCH  26  28
ENDBRANCH  25  26
ENDBRANCH  23  25
ENDBRANCH   1  23
TORSDOF 6
ENDMDL
