MODEL 1
REMARK VINA RESULT:      -8.0      0.000      0.000
REMARK  Name = 
REMARK  14 active torsions:
REMARK  status: ('A' for Active; 'I' for Inactive)
REMARK    1  A    between atoms: C_1  and  N_2
REMARK    2  A    between atoms: N_2  and  C_3
REMARK    3  A    between atoms: C_3  and  C_5
REMARK    4  A    between atoms: C_3  and  C_9
REMARK    5  A    between atoms: C_5  and  C_6
REMARK    6  A    between atoms: C_6  and  O_7
REMARK    7  A    between atoms: C_9  and  O_10
REMARK    8  A    between atoms: C_12  and  C_14
REMARK    9  A    between atoms: C_16  and  O_17
REMARK   10  A    between atoms: O_17  and  S_18
REMARK   11  A    between atoms: S_18  and  C_21
REMARK   12  A    between atoms: C_33  and  N_34
REMARK   13  A    between atoms: N_34  and  S_35
REMARK   14  A    between atoms: S_35  and  C_38
REMARK                            x       y       z     vdW  Elec       q    Type
REMARK                         _______ _______ _______ _____ _____    ______ ____
ROOT
ATOM      1  C   UNL     1       6.669  -3.292  26.582  0.00  0.00    +0.063 A 
ATOM      2  C   UNL     1       8.071  -3.147  26.587  0.00  0.00    +0.060 A 
ATOM      3  C   UNL     1       8.631  -1.869  26.767  0.00  0.00    +0.029 A 
ATOM      4  C   UNL     1       7.816  -0.736  26.826  0.00  0.00    +0.050 A 
ATOM      5  C   UNL     1       6.433  -0.877  26.861  0.00  0.00    +0.158 A 
ATOM      6  C   UNL     1       5.886  -2.160  26.869  0.00  0.00    +0.063 A 
ENDROOT
BRANCH   1   9
ATOM      7  C   UNL     1       4.539  -3.275  24.400  0.00  0.00    +0.133 C 
ATOM      8  N   UNL     1       5.242  -4.473  24.866  0.00  0.00    -0.287 N 
ATOM      9  C   UNL     1       5.978  -4.542  26.078  0.00  0.00    +0.249 C 
ATOM     10  O   UNL     1       6.176  -5.633  26.601  0.00  0.00    -0.270 OA
BRANCH   8  11
ATOM     11  C   UNL     1       4.891  -5.715  24.130  0.00  0.00    +0.195 C 
BRANCH  11  12
ATOM     12  C   UNL     1       3.871  -6.659  24.787  0.00  0.00    +0.326 C 
ATOM     13  O   UNL     1       3.095  -6.327  25.669  0.00  0.00    -0.249 OA
BRANCH  12  14
ATOM     14  O   UNL     1       3.788  -7.861  24.163  0.00  0.00    -0.479 OA
ATOM     15  H   UNL     1       4.537  -7.997  23.550  0.00  0.00    +0.295 HD
ENDBRANCH  12  14
ENDBRANCH  11  12
BRANCH  11  16
ATOM     16  C   UNL     1       4.811  -5.637  22.611  0.00  0.00    +0.154 C 
BRANCH  16  17
ATOM     17  C   UNL     1       6.046  -5.647  21.748  0.00  0.00    +0.307 C 
ATOM     18  O   UNL     1       6.068  -5.000  20.706  0.00  0.00    -0.251 OA
BRANCH  17  19
ATOM     19  O   UNL     1       7.084  -6.393  22.119  0.00  0.00    -0.481 OA
ATOM     20  H   UNL     1       7.589  -6.931  21.467  0.00  0.00    +0.295 HD
ENDBRANCH  17  19
ENDBRANCH  16  17
ENDBRANCH  11  16
ENDBRANCH   8  11
ENDBRANCH   1   9
BRANCH   2  21
ATOM     21  N   UNL     1       8.994  -4.231  26.391  0.00  0.00    -0.216 N 
ATOM     22  H   UNL     1       8.637  -5.135  26.714  0.00  0.00    +0.174 HD
BRANCH  21  23
ATOM     23  S   UNL     1       9.498  -4.539  24.780  0.00  0.00    +0.072 S 
ATOM     24  O   UNL     1       8.689  -5.592  24.206  0.00  0.00    -0.150 OA
ATOM     25  O   UNL     1      10.943  -4.653  24.860  0.00  0.00    -0.150 OA
BRANCH  23  26
ATOM     26  C   UNL     1       9.144  -3.009  23.969  0.00  0.00    +0.109 A 
ATOM     27  C   UNL     1       9.996  -1.910  24.109  0.00  0.00    +0.037 A 
ATOM     28  C   UNL     1       9.694  -0.702  23.455  0.00  0.00    -0.016 A 
ATOM     29  C   UNL     1       8.529  -0.618  22.654  0.00  0.00    -0.018 A 
ATOM     30  C   UNL     1       8.225   0.582  21.993  0.00  0.00    +0.008 A 
ATOM     31  C   UNL     1       9.052   1.697  22.128  0.00  0.00    +0.001 A 
ATOM     32  C   UNL     1      10.194   1.622  22.919  0.00  0.00    +0.001 A 
ATOM     33  C   UNL     1       7.690  -1.734  22.532  0.00  0.00    +0.010 A 
ATOM     34  C   UNL     1      10.517   0.431  23.574  0.00  0.00    +0.008 A 
ATOM     35  C   UNL     1       7.986  -2.922  23.194  0.00  0.00    +0.029 A 
ENDBRANCH  23  26
ENDBRANCH  21  23
ENDBRANCH   2  21
BRANCH   5  36
ATOM     36  O   UNL     1       5.707   0.292  26.853  0.00  0.00    -0.342 OA
BRANCH  36  37
ATOM     37  S   UNL     1       5.130   0.955  25.475  0.00  0.00    +0.151 S 
ATOM     38  O   UNL     1       3.812   1.497  25.776  0.00  0.00    -0.131 OA
ATOM     39  O   UNL     1       5.318   0.009  24.386  0.00  0.00    -0.131 OA
BRANCH  37  40
ATOM     40  C   UNL     1       6.183   2.343  25.137  0.00  0.00    +0.129 A 
ATOM     41  C   UNL     1       5.911   3.186  24.056  0.00  0.00    +0.039 A 
ATOM     42  C   UNL     1       6.827   4.197  23.711  0.00  0.00    -0.016 A 
ATOM     43  C   UNL     1       8.004   4.365  24.483  0.00  0.00    -0.018 A 
ATOM     44  C   UNL     1       8.940   5.343  24.113  0.00  0.00    +0.008 A 
ATOM     45  C   UNL     1       8.728   6.142  22.990  0.00  0.00    +0.001 A 
ATOM     46  C   UNL     1       7.568   5.988  22.236  0.00  0.00    +0.001 A 
ATOM     47  C   UNL     1       8.226   3.540  25.597  0.00  0.00    +0.010 A 
ATOM     48  C   UNL     1       6.620   5.029  22.599  0.00  0.00    +0.008 A 
ATOM     49  C   UNL     1       7.323   2.529  25.923  0.00  0.00    +0.031 A 
ENDBRANCH  37  40
ENDBRANCH  36  37
ENDBRANCH   5  36
TORSDOF 13
ENDMDL
MODEL 2
REMARK VINA RESULT:      -8.0      2.584      7.642
REMARK  Name = 
REMARK  14 active torsions:
REMARK  status: ('A' for Active; 'I' for Inactive)
REMARK    1  A    between atoms: C_1  and  N_2
REMARK    2  A    between atoms: N_2  and  C_3
REMARK    3  A    between atoms: C_3  and  C_5
REMARK    4  A    between atoms: C_3  and  C_9
REMARK    5  A    between atoms: C_5  and  C_6
REMARK    6  A    between atoms: C_6  and  O_7
REMARK    7  A    between atoms: C_9  and  O_10
REMARK    8  A    between atoms: C_12  and  C_14
REMARK    9  A    between atoms: C_16  and  O_17
REMARK   10  A    between atoms: O_17  and  S_18
REMARK   11  A    between atoms: S_18  and  C_21
REMARK   12  A    between atoms: C_33  and  N_34
REMARK   13  A    between atoms: N_34  and  S_35
REMARK   14  A    between atoms: S_35  and  C_38
REMARK                            x       y       z     vdW  Elec       q    Type
REMARK                         _______ _______ _______ _____ _____    ______ ____
ROOT
ATOM      1  C   UNL     1       7.341  -2.466  25.896  0.00  0.00    +0.063 A 
ATOM      2  C   UNL     1       7.537  -2.936  24.581  0.00  0.00    +0.060 A 
ATOM      3  C   UNL     1       7.583  -4.322  24.344  0.00  0.00    +0.029 A 
ATOM      4  C   UNL     1       7.550  -5.227  25.408  0.00  0.00    +0.050 A 
ATOM      5  C   UNL     1       7.319  -4.771  26.701  0.00  0.00    +0.158 A 
ATOM      6  C   UNL     1       7.088  -3.411  26.905  0.00  0.00    +0.063 A 
ENDROOT
BRANCH   1   9
ATOM      7  C   UNL     1       5.310  -0.220  25.530  0.00  0.00    +0.133 C 
ATOM      8  N   UNL     1       6.504  -0.132  26.375  0.00  0.00    -0.287 N 
ATOM      9  C   UNL     1       7.601  -1.029  26.297  0.00  0.00    +0.249 C 
ATOM     10  O   UNL     1       8.700  -0.672  26.708  0.00  0.00    -0.270 OA
BRANCH   8  11
ATOM     11  C   UNL     1       6.628   1.142  27.129  0.00  0.00    +0.195 C 
BRANCH  11  12
ATOM     12  C   UNL     1       6.763   1.046  28.657  0.00  0.00    +0.326 C 
ATOM     13  O   UNL     1       5.836   0.814  29.416  0.00  0.00    -0.249 OA
BRANCH  12  14
ATOM     14  O   UNL     1       8.054   1.066  29.074  0.00  0.00    -0.479 OA
ATOM     15  H   UNL     1       8.127   1.390  29.993  0.00  0.00    +0.295 HD
ENDBRANCH  12  14
ENDBRANCH  11  12
BRANCH  11  16
ATOM     16  C   UNL     1       7.420   2.271  26.482  0.00  0.00    +0.154 C 
BRANCH  16  17
ATOM     17  C   UNL     1       6.980   3.709  26.581  0.00  0.00    +0.307 C 
ATOM     18  O   UNL     1       7.601   4.490  27.294  0.00  0.00    -0.251 OA
BRANCH  17  19
ATOM     19  O   UNL     1       5.895   4.097  25.915  0.00  0.00    -0.481 OA
ATOM     20  H   UNL     1       5.283   3.444  25.503  0.00  0.00    +0.295 HD
ENDBRANCH  17  19
ENDBRANCH  16  17
ENDBRANCH  11  16
ENDBRANCH   8  11
ENDBRANCH   1   9
BRANCH   2  21
ATOM     21  N   UNL     1       7.725  -2.082  23.440  0.00  0.00    -0.216 N 
ATOM     22  H   UNL     1       7.279  -1.166  23.538  0.00  0.00    +0.174 HD
BRANCH  21  23
ATOM     23  S   UNL     1       9.343  -1.708  23.008  0.00  0.00    +0.072 S 
ATOM     24  O   UNL     1       9.564  -2.024  21.614  0.00  0.00    -0.150 OA
ATOM     25  O   UNL     1      10.152  -2.304  24.056  0.00  0.00    -0.150 OA
BRANCH  23  26
ATOM     26  C   UNL     1       9.405   0.043  23.239  0.00  0.00    +0.109 A 
ATOM     27  C   UNL     1       8.349   0.858  22.823  0.00  0.00    +0.037 A 
ATOM     28  C   UNL     1       8.420   2.250  23.015  0.00  0.00    -0.016 A 
ATOM     29  C   UNL     1       9.563   2.807  23.639  0.00  0.00    -0.018 A 
ATOM     30  C   UNL     1       9.638   4.194  23.840  0.00  0.00    +0.008 A 
ATOM     31  C   UNL     1       8.604   5.030  23.422  0.00  0.00    +0.001 A 
ATOM     32  C   UNL     1       7.481   4.488  22.803  0.00  0.00    +0.001 A 
ATOM     33  C   UNL     1      10.610   1.967  24.045  0.00  0.00    +0.010 A 
ATOM     34  C   UNL     1       7.387   3.108  22.606  0.00  0.00    +0.008 A 
ATOM     35  C   UNL     1      10.540   0.593  23.837  0.00  0.00    +0.029 A 
ENDBRANCH  23  26
ENDBRANCH  21  23
ENDBRANCH   2  21
BRANCH   5  36
ATOM     36  O   UNL     1       7.367  -5.723  27.695  0.00  0.00    -0.342 OA
BRANCH  36  37
ATOM     37  S   UNL     1       6.042  -6.177  28.537  0.00  0.00    +0.151 S 
ATOM     38  O   UNL     1       5.892  -5.239  29.641  0.00  0.00    -0.131 OA
ATOM     39  O   UNL     1       6.108  -7.610  28.777  0.00  0.00    -0.131 OA
BRANCH  37  40
ATOM     40  C   UNL     1       4.669  -5.901  27.448  0.00  0.00    +0.129 A 
ATOM     41  C   UNL     1       4.483  -6.717  26.328  0.00  0.00    +0.039 A 
ATOM     42  C   UNL     1       3.477  -6.405  25.396  0.00  0.00    -0.016 A 
ATOM     43  C   UNL     1       2.647  -5.278  25.616  0.00  0.00    -0.018 A 
ATOM     44  C   UNL     1       1.673  -4.939  24.664  0.00  0.00    +0.008 A 
ATOM     45  C   UNL     1       1.523  -5.693  23.500  0.00  0.00    +0.001 A 
ATOM     46  C   UNL     1       2.329  -6.807  23.285  0.00  0.00    +0.001 A 
ATOM     47  C   UNL     1       2.819  -4.506  26.776  0.00  0.00    +0.010 A 
ATOM     48  C   UNL     1       3.293  -7.167  24.230  0.00  0.00    +0.008 A 
ATOM     49  C   UNL     1       3.829  -4.811  27.688  0.00  0.00    +0.031 A 
ENDBRANCH  37  40
ENDBRANCH  36  37
ENDBRANCH   5  36
TORSDOF 13
ENDMDL
MODEL 3
REMARK VINA RESULT:      -7.7      2.507      7.178
REMARK  Name = 
REMARK  14 active torsions:
REMARK  status: ('A' for Active; 'I' for Inactive)
REMARK    1  A    between atoms: C_1  and  N_2
REMARK    2  A    between atoms: N_2  and  C_3
REMARK    3  A    between atoms: C_3  and  C_5
REMARK    4  A    between atoms: C_3  and  C_9
REMARK    5  A    between atoms: C_5  and  C_6
REMARK    6  A    between atoms: C_6  and  O_7
REMARK    7  A    between atoms: C_9  and  O_10
REMARK    8  A    between atoms: C_12  and  C_14
REMARK    9  A    between atoms: C_16  and  O_17
REMARK   10  A    between atoms: O_17  and  S_18
REMARK   11  A    between atoms: S_18  and  C_21
REMARK   12  A    between atoms: C_33  and  N_34
REMARK   13  A    between atoms: N_34  and  S_35
REMARK   14  A    between atoms: S_35  and  C_38
REMARK                            x       y       z     vdW  Elec       q    Type
REMARK                         _______ _______ _______ _____ _____    ______ ____
ROOT
ATOM      1  C   UNL     1       5.791  -3.118  27.077  0.00  0.00    +0.063 A 
ATOM      2  C   UNL     1       4.791  -2.133  27.213  0.00  0.00    +0.060 A 
ATOM      3  C   UNL     1       3.868  -2.228  28.270  0.00  0.00    +0.029 A 
ATOM      4  C   UNL     1       3.863  -3.343  29.112  0.00  0.00    +0.050 A 
ATOM      5  C   UNL     1       4.869  -4.297  29.007  0.00  0.00    +0.158 A 
ATOM      6  C   UNL     1       5.890  -4.101  28.076  0.00  0.00    +0.063 A 
ENDROOT
BRANCH   1   9
ATOM      7  C   UNL     1       8.597  -1.979  26.721  0.00  0.00    +0.133 C 
ATOM      8  N   UNL     1       7.996  -2.995  25.853  0.00  0.00    -0.287 N 
ATOM      9  C   UNL     1       6.607  -3.285  25.812  0.00  0.00    +0.249 C 
ATOM     10  O   UNL     1       6.132  -3.814  24.814  0.00  0.00    -0.270 OA
BRANCH   8  11
ATOM     11  C   UNL     1       8.901  -3.509  24.792  0.00  0.00    +0.195 C 
BRANCH  11  12
ATOM     12  C   UNL     1       9.050  -5.033  24.671  0.00  0.00    +0.326 C 
ATOM     13  O   UNL     1       8.616  -5.696  23.743  0.00  0.00    -0.249 OA
BRANCH  12  14
ATOM     14  O   UNL     1       9.876  -5.558  25.612  0.00  0.00    -0.479 OA
ATOM     15  H   UNL     1      10.683  -5.018  25.718  0.00  0.00    +0.295 HD
ENDBRANCH  12  14
ENDBRANCH  11  12
BRANCH  11  16
ATOM     16  C   UNL     1       8.943  -2.750  23.471  0.00  0.00    +0.154 C 
BRANCH  16  17
ATOM     17  C   UNL     1      10.100  -1.858  23.104  0.00  0.00    +0.307 C 
ATOM     18  O   UNL     1      10.571  -1.094  23.940  0.00  0.00    -0.251 OA
BRANCH  17  19
ATOM     19  O   UNL     1      10.567  -1.890  21.858  0.00  0.00    -0.481 OA
ATOM     20  H   UNL     1      10.179  -2.487  21.178  0.00  0.00    +0.295 HD
ENDBRANCH  17  19
ENDBRANCH  16  17
ENDBRANCH  11  16
ENDBRANCH   8  11
ENDBRANCH   1   9
BRANCH   2  21
ATOM     21  N   UNL     1       4.625  -1.024  26.313  0.00  0.00    -0.216 N 
ATOM     22  H   UNL     1       3.649  -0.738  26.192  0.00  0.00    +0.174 HD
BRANCH  21  23
ATOM     23  S   UNL     1       5.434   0.434  26.721  0.00  0.00    +0.072 S 
ATOM     24  O   UNL     1       6.250   0.228  27.898  0.00  0.00    -0.150 OA
ATOM     25  O   UNL     1       4.401   1.452  26.684  0.00  0.00    -0.150 OA
BRANCH  23  26
ATOM     26  C   UNL     1       6.474   0.701  25.316  0.00  0.00    +0.109 A 
ATOM     27  C   UNL     1       7.667   1.418  25.434  0.00  0.00    +0.037 A 
ATOM     28  C   UNL     1       8.478   1.619  24.303  0.00  0.00    -0.016 A 
ATOM     29  C   UNL     1       8.077   1.082  23.056  0.00  0.00    -0.018 A 
ATOM     30  C   UNL     1       8.885   1.272  21.925  0.00  0.00    +0.008 A 
ATOM     31  C   UNL     1      10.073   1.996  22.013  0.00  0.00    +0.001 A 
ATOM     32  C   UNL     1      10.469   2.532  23.235  0.00  0.00    +0.001 A 
ATOM     33  C   UNL     1       6.874   0.367  22.964  0.00  0.00    +0.010 A 
ATOM     34  C   UNL     1       9.682   2.341  24.373  0.00  0.00    +0.008 A 
ATOM     35  C   UNL     1       6.068   0.185  24.084  0.00  0.00    +0.029 A 
ENDBRANCH  23  26
ENDBRANCH  21  23
ENDBRANCH   2  21
BRANCH   5  36
ATOM     36  O   UNL     1       4.749  -5.393  29.831  0.00  0.00    -0.342 OA
BRANCH  36  37
ATOM     37  S   UNL     1       4.430  -6.889  29.255  0.00  0.00    +0.151 S 
ATOM     38  O   UNL     1       3.537  -7.535  30.209  0.00  0.00    -0.131 OA
ATOM     39  O   UNL     1       5.681  -7.517  28.859  0.00  0.00    -0.131 OA
BRANCH  37  40
ATOM     40  C   UNL     1       3.489  -6.637  27.772  0.00  0.00    +0.129 A 
ATOM     41  C   UNL     1       4.108  -6.731  26.522  0.00  0.00    +0.039 A 
ATOM     42  C   UNL     1       3.390  -6.392  25.361  0.00  0.00    -0.016 A 
ATOM     43  C   UNL     1       2.038  -5.982  25.471  0.00  0.00    -0.018 A 
ATOM     44  C   UNL     1       1.335  -5.599  24.318  0.00  0.00    +0.008 A 
ATOM     45  C   UNL     1       1.956  -5.609  23.069  0.00  0.00    +0.001 A 
ATOM     46  C   UNL     1       3.281  -6.022  22.955  0.00  0.00    +0.001 A 
ATOM     47  C   UNL     1       1.425  -5.948  26.732  0.00  0.00    +0.010 A 
ATOM     48  C   UNL     1       3.991  -6.419  24.091  0.00  0.00    +0.008 A 
ATOM     49  C   UNL     1       2.146  -6.270  27.881  0.00  0.00    +0.031 A 
ENDBRANCH  37  40
ENDBRANCH  36  37
ENDBRANCH   5  36
TORSDOF 13
ENDMDL
MODEL 4
REMARK VINA RESULT:      -7.6      1.521      2.392
REMARK  Name = 
REMARK  14 active torsions:
REMARK  status: ('A' for Active; 'I' for Inactive)
REMARK    1  A    between atoms: C_1  and  N_2
REMARK    2  A    between atoms: N_2  and  C_3
REMARK    3  A    between atoms: C_3  and  C_5
REMARK    4  A    between atoms: C_3  and  C_9
REMARK    5  A    between atoms: C_5  and  C_6
REMARK    6  A    between atoms: C_6  and  O_7
REMARK    7  A    between atoms: C_9  and  O_10
REMARK    8  A    between atoms: C_12  and  C_14
REMARK    9  A    between atoms: C_16  and  O_17
REMARK   10  A    between atoms: O_17  and  S_18
REMARK   11  A    between atoms: S_18  and  C_21
REMARK   12  A    between atoms: C_33  and  N_34
REMARK   13  A    between atoms: N_34  and  S_35
REMARK   14  A    between atoms: S_35  and  C_38
REMARK                            x       y       z     vdW  Elec       q    Type
REMARK                         _______ _______ _______ _____ _____    ______ ____
ROOT
ATOM      1  C   UNL     1       5.987  -2.675  25.492  0.00  0.00    +0.063 A 
ATOM      2  C   UNL     1       7.299  -2.780  25.998  0.00  0.00    +0.060 A 
ATOM      3  C   UNL     1       7.930  -1.637  26.521  0.00  0.00    +0.029 A 
ATOM      4  C   UNL     1       7.315  -0.385  26.439  0.00  0.00    +0.050 A 
ATOM      5  C   UNL     1       6.009  -0.281  25.976  0.00  0.00    +0.158 A 
ATOM      6  C   UNL     1       5.321  -1.445  25.632  0.00  0.00    +0.063 A 
ENDROOT
BRANCH   1   9
ATOM      7  C   UNL     1       4.909  -5.309  26.587  0.00  0.00    +0.133 C 
ATOM      8  N   UNL     1       4.615  -4.782  25.251  0.00  0.00    -0.287 N 
ATOM      9  C   UNL     1       5.357  -3.746  24.626  0.00  0.00    +0.249 C 
ATOM     10  O   UNL     1       5.337  -3.646  23.404  0.00  0.00    -0.270 OA
BRANCH   8  11
ATOM     11  C   UNL     1       3.664  -5.607  24.462  0.00  0.00    +0.195 C 
BRANCH  11  12
ATOM     12  C   UNL     1       3.876  -7.129  24.473  0.00  0.00    +0.326 C 
ATOM     13  O   UNL     1       3.088  -7.929  24.950  0.00  0.00    -0.249 OA
BRANCH  12  14
ATOM     14  O   UNL     1       4.946  -7.517  23.734  0.00  0.00    -0.479 OA
ATOM     15  H   UNL     1       4.679  -7.780  22.832  0.00  0.00    +0.295 HD
ENDBRANCH  12  14
ENDBRANCH  11  12
BRANCH  11  16
ATOM     16  C   UNL     1       2.209  -5.158  24.417  0.00  0.00    +0.154 C 
BRANCH  16  17
ATOM     17  C   UNL     1       1.643  -4.196  25.428  0.00  0.00    +0.307 C 
ATOM     18  O   UNL     1       1.731  -2.987  25.236  0.00  0.00    -0.251 OA
BRANCH  17  19
ATOM     19  O   UNL     1       1.086  -4.678  26.536  0.00  0.00    -0.481 OA
ATOM     20  H   UNL     1       0.608  -5.539  26.539  0.00  0.00    +0.295 HD
ENDBRANCH  17  19
ENDBRANCH  16  17
ENDBRANCH  11  16
ENDBRANCH   8  11
ENDBRANCH   1   9
BRANCH   2  21
ATOM     21  N   UNL     1       8.068  -3.995  25.997  0.00  0.00    -0.216 N 
ATOM     22  H   UNL     1       7.517  -4.827  26.226  0.00  0.00    +0.174 HD
BRANCH  21  23
ATOM     23  S   UNL     1       8.855  -4.412  24.530  0.00  0.00    +0.072 S 
ATOM     24  O   UNL     1       7.996  -5.266  23.739  0.00  0.00    -0.150 OA
ATOM     25  O   UNL     1      10.183  -4.838  24.932  0.00  0.00    -0.150 OA
BRANCH  23  26
ATOM     26  C   UNL     1       9.033  -2.845  23.732  0.00  0.00    +0.109 A 
ATOM     27  C   UNL     1       9.840  -1.847  24.286  0.00  0.00    +0.037 A 
ATOM     28  C   UNL     1       9.967  -0.607  23.634  0.00  0.00    -0.016 A 
ATOM     29  C   UNL     1       9.279  -0.389  22.415  0.00  0.00    -0.018 A 
ATOM     30  C   UNL     1       9.406   0.843  21.756  0.00  0.00    +0.008 A 
ATOM     31  C   UNL     1      10.193   1.859  22.295  0.00  0.00    +0.001 A 
ATOM     32  C   UNL     1      10.867   1.653  23.495  0.00  0.00    +0.001 A 
ATOM     33  C   UNL     1       8.474  -1.406  21.882  0.00  0.00    +0.010 A 
ATOM     34  C   UNL     1      10.759   0.428  24.157  0.00  0.00    +0.008 A 
ATOM     35  C   UNL     1       8.340  -2.626  22.540  0.00  0.00    +0.029 A 
ENDBRANCH  23  26
ENDBRANCH  21  23
ENDBRANCH   2  21
BRANCH   5  36
ATOM     36  O   UNL     1       5.506   0.996  25.867  0.00  0.00    -0.342 OA
BRANCH  36  37
ATOM     37  S   UNL     1       5.612   1.863  24.485  0.00  0.00    +0.151 S 
ATOM     38  O   UNL     1       4.272   2.339  24.172  0.00  0.00    -0.131 OA
ATOM     39  O   UNL     1       6.381   1.101  23.512  0.00  0.00    -0.131 OA
BRANCH  37  40
ATOM     40  C   UNL     1       6.576   3.295  24.894  0.00  0.00    +0.129 A 
ATOM     41  C   UNL     1       7.644   3.682  24.079  0.00  0.00    +0.039 A 
ATOM     42  C   UNL     1       8.488   4.731  24.486  0.00  0.00    -0.016 A 
ATOM     43  C   UNL     1       8.230   5.401  25.707  0.00  0.00    -0.018 A 
ATOM     44  C   UNL     1       9.098   6.417  26.136  0.00  0.00    +0.008 A 
ATOM     45  C   UNL     1      10.215   6.766  25.377  0.00  0.00    +0.001 A 
ATOM     46  C   UNL     1      10.466   6.118  24.171  0.00  0.00    +0.001 A 
ATOM     47  C   UNL     1       7.120   5.029  26.480  0.00  0.00    +0.010 A 
ATOM     48  C   UNL     1       9.604   5.114  23.723  0.00  0.00    +0.008 A 
ATOM     49  C   UNL     1       6.296   3.977  26.081  0.00  0.00    +0.031 A 
ENDBRANCH  37  40
ENDBRANCH  36  37
ENDBRANCH   5  36
TORSDOF 13
ENDMDL
MODEL 5
REMARK VINA RESULT:      -7.5      2.799      5.476
REMARK  Name = 
REMARK  14 active torsions:
REMARK  status: ('A' for Active; 'I' for Inactive)
REMARK    1  A    between atoms: C_1  and  N_2
REMARK    2  A    between atoms: N_2  and  C_3
REMARK    3  A    between atoms: C_3  and  C_5
REMARK    4  A    between atoms: C_3  and  C_9
REMARK    5  A    between atoms: C_5  and  C_6
REMARK    6  A    between atoms: C_6  and  O_7
REMARK    7  A    between atoms: C_9  and  O_10
REMARK    8  A    between atoms: C_12  and  C_14
REMARK    9  A    between atoms: C_16  and  O_17
REMARK   10  A    between atoms: O_17  and  S_18
REMARK   11  A    between atoms: S_18  and  C_21
REMARK   12  A    between atoms: C_33  and  N_34
REMARK   13  A    between atoms: N_34  and  S_35
REMARK   14  A    between atoms: S_35  and  C_38
REMARK                            x       y       z     vdW  Elec       q    Type
REMARK                         _______ _______ _______ _____ _____    ______ ____
ROOT
ATOM      1  C   UNL     1       7.149   0.483  26.721  0.00  0.00    +0.063 A 
ATOM      2  C   UNL     1       6.152   0.002  27.595  0.00  0.00    +0.060 A 
ATOM      3  C   UNL     1       5.460   0.909  28.417  0.00  0.00    +0.029 A 
ATOM      4  C   UNL     1       5.827   2.257  28.457  0.00  0.00    +0.050 A 
ATOM      5  C   UNL     1       6.782   2.743  27.571  0.00  0.00    +0.158 A 
ATOM      6  C   UNL     1       7.333   1.874  26.629  0.00  0.00    +0.063 A 
ENDROOT
BRANCH   1   9
ATOM      7  C   UNL     1       7.095  -0.193  23.748  0.00  0.00    +0.133 C 
ATOM      8  N   UNL     1       8.237  -0.433  24.634  0.00  0.00    -0.287 N 
ATOM      9  C   UNL     1       8.158  -0.427  26.051  0.00  0.00    +0.249 C 
ATOM     10  O   UNL     1       9.005  -1.026  26.704  0.00  0.00    -0.270 OA
BRANCH   8  11
ATOM     11  C   UNL     1       9.438  -0.980  23.952  0.00  0.00    +0.195 C 
BRANCH  11  12
ATOM     12  C   UNL     1       9.334  -2.400  23.374  0.00  0.00    +0.326 C 
ATOM     13  O   UNL     1       8.852  -2.666  22.284  0.00  0.00    -0.249 OA
BRANCH  12  14
ATOM     14  O   UNL     1       9.998  -3.321  24.117  0.00  0.00    -0.479 OA
ATOM     15  H   UNL     1      10.837  -3.585  23.690  0.00  0.00    +0.295 HD
ENDBRANCH  12  14
ENDBRANCH  11  12
BRANCH  11  16
ATOM     16  C   UNL     1      10.289  -0.014  23.137  0.00  0.00    +0.154 C 
BRANCH  16  17
ATOM     17  C   UNL     1       9.797   0.582  21.844  0.00  0.00    +0.307 C 
ATOM     18  O   UNL     1       9.704   1.800  21.730  0.00  0.00    -0.251 OA
BRANCH  17  19
ATOM     19  O   UNL     1       9.435  -0.232  20.856  0.00  0.00    -0.481 OA
ATOM     20  H   UNL     1       8.567  -0.135  20.401  0.00  0.00    +0.295 HD
ENDBRANCH  17  19
ENDBRANCH  16  17
ENDBRANCH  11  16
ENDBRANCH   8  11
ENDBRANCH   1   9
BRANCH   2  21
ATOM     21  N   UNL     1       5.801  -1.385  27.730  0.00  0.00    -0.216 N 
ATOM     22  H   UNL     1       5.499  -1.640  28.675  0.00  0.00    +0.174 HD
BRANCH  21  23
ATOM     23  S   UNL     1       4.538  -1.966  26.724  0.00  0.00    +0.072 S 
ATOM     24  O   UNL     1       3.985  -0.875  25.951  0.00  0.00    -0.150 OA
ATOM     25  O   UNL     1       3.707  -2.770  27.601  0.00  0.00    -0.150 OA
BRANCH  23  26
ATOM     26  C   UNL     1       5.388  -3.084  25.650  0.00  0.00    +0.109 A 
ATOM     27  C   UNL     1       5.099  -3.124  24.283  0.00  0.00    +0.037 A 
ATOM     28  C   UNL     1       5.787  -4.022  23.447  0.00  0.00    -0.016 A 
ATOM     29  C   UNL     1       6.774  -4.871  24.004  0.00  0.00    -0.018 A 
ATOM     30  C   UNL     1       7.470  -5.764  23.175  0.00  0.00    +0.008 A 
ATOM     31  C   UNL     1       7.190  -5.833  21.811  0.00  0.00    +0.001 A 
ATOM     32  C   UNL     1       6.217  -5.005  21.260  0.00  0.00    +0.001 A 
ATOM     33  C   UNL     1       7.044  -4.813  25.378  0.00  0.00    +0.010 A 
ATOM     34  C   UNL     1       5.524  -4.102  22.070  0.00  0.00    +0.008 A 
ATOM     35  C   UNL     1       6.348  -3.933  26.203  0.00  0.00    +0.029 A 
ENDBRANCH  23  26
ENDBRANCH  21  23
ENDBRANCH   2  21
BRANCH   5  36
ATOM     36  O   UNL     1       7.129   4.067  27.724  0.00  0.00    -0.342 OA
BRANCH  36  37
ATOM     37  S   UNL     1       6.768   5.201  26.605  0.00  0.00    +0.151 S 
ATOM     38  O   UNL     1       6.288   6.375  27.321  0.00  0.00    -0.131 OA
ATOM     39  O   UNL     1       5.968   4.587  25.556  0.00  0.00    -0.131 OA
BRANCH  37  40
ATOM     40  C   UNL     1       8.317   5.655  25.869  0.00  0.00    +0.129 A 
ATOM     41  C   UNL     1       8.902   4.837  24.899  0.00  0.00    +0.039 A 
ATOM     42  C   UNL     1      10.194   5.130  24.425  0.00  0.00    -0.016 A 
ATOM     43  C   UNL     1      10.878   6.267  24.921  0.00  0.00    -0.018 A 
ATOM     44  C   UNL     1      12.184   6.535  24.483  0.00  0.00    +0.008 A 
ATOM     45  C   UNL     1      12.818   5.687  23.575  0.00  0.00    +0.001 A 
ATOM     46  C   UNL     1      12.146   4.575  23.076  0.00  0.00    +0.001 A 
ATOM     47  C   UNL     1      10.247   7.103  25.855  0.00  0.00    +0.010 A 
ATOM     48  C   UNL     1      10.840   4.302  23.491  0.00  0.00    +0.008 A 
ATOM     49  C   UNL     1       8.973   6.798  26.333  0.00  0.00    +0.031 A 
ENDBRANCH  37  40
ENDBRANCH  36  37
ENDBRANCH   5  36
TORSDOF 13
ENDMDL
MODEL 6
REMARK VINA RESULT:      -7.4      1.782      2.791
REMARK  Name = 
REMARK  14 active torsions:
REMARK  status: ('A' for Active; 'I' for Inactive)
REMARK    1  A    between atoms: C_1  and  N_2
REMARK    2  A    between atoms: N_2  and  C_3
REMARK    3  A    between atoms: C_3  and  C_5
REMARK    4  A    between atoms: C_3  and  C_9
REMARK    5  A    between atoms: C_5  and  C_6
REMARK    6  A    between atoms: C_6  and  O_7
REMARK    7  A    between atoms: C_9  and  O_10
REMARK    8  A    between atoms: C_12  and  C_14
REMARK    9  A    between atoms: C_16  and  O_17
REMARK   10  A    between atoms: O_17  and  S_18
REMARK   11  A    between atoms: S_18  and  C_21
REMARK   12  A    between atoms: C_33  and  N_34
REMARK   13  A    between atoms: N_34  and  S_35
REMARK   14  A    between atoms: S_35  and  C_38
REMARK                            x       y       z     vdW  Elec       q    Type
REMARK                         _______ _______ _______ _____ _____    ______ ____
ROOT
ATOM      1  C   UNL     1       6.142  -2.818  26.396  0.00  0.00    +0.063 A 
ATOM      2  C   UNL     1       6.021  -2.600  25.008  0.00  0.00    +0.060 A 
ATOM      3  C   UNL     1       5.716  -1.310  24.537  0.00  0.00    +0.029 A 
ATOM      4  C   UNL     1       5.422  -0.277  25.430  0.00  0.00    +0.050 A 
ATOM      5  C   UNL     1       5.578  -0.475  26.797  0.00  0.00    +0.158 A 
ATOM      6  C   UNL     1       6.060  -1.704  27.250  0.00  0.00    +0.063 A 
ENDROOT
BRANCH   1   9
ATOM      7  C   UNL     1       3.598  -4.369  27.045  0.00  0.00    +0.133 C 
ATOM      8  N   UNL     1       4.939  -4.958  26.987  0.00  0.00    -0.287 N 
ATOM      9  C   UNL     1       6.140  -4.202  27.010  0.00  0.00    +0.249 C 
ATOM     10  O   UNL     1       7.181  -4.738  27.373  0.00  0.00    -0.270 OA
BRANCH   8  11
ATOM     11  C   UNL     1       4.972  -6.428  27.199  0.00  0.00    +0.195 C 
BRANCH  11  12
ATOM     12  C   UNL     1       5.050  -6.928  28.650  0.00  0.00    +0.326 C 
ATOM     13  O   UNL     1       4.082  -7.250  29.320  0.00  0.00    -0.249 OA
BRANCH  12  14
ATOM     14  O   UNL     1       6.324  -7.152  29.062  0.00  0.00    -0.479 OA
ATOM     15  H   UNL     1       6.542  -6.617  29.851  0.00  0.00    +0.295 HD
ENDBRANCH  12  14
ENDBRANCH  11  12
BRANCH  11  16
ATOM     16  C   UNL     1       4.142  -7.296  26.263  0.00  0.00    +0.154 C 
BRANCH  16  17
ATOM     17  C   UNL     1       4.265  -7.192  24.765  0.00  0.00    +0.307 C 
ATOM     18  O   UNL     1       5.115  -6.458  24.272  0.00  0.00    -0.251 OA
BRANCH  17  19
ATOM     19  O   UNL     1       3.418  -7.877  24.000  0.00  0.00    -0.481 OA
ATOM     20  H   UNL     1       2.457  -7.921  24.209  0.00  0.00    +0.295 HD
ENDBRANCH  17  19
ENDBRANCH  16  17
ENDBRANCH  11  16
ENDBRANCH   8  11
ENDBRANCH   1   9
BRANCH   2  21
ATOM     21  N   UNL     1       6.164  -3.630  24.016  0.00  0.00    -0.216 N 
ATOM     22  H   UNL     1       5.600  -3.469  23.176  0.00  0.00    +0.174 HD
BRANCH  21  23
ATOM     23  S   UNL     1       7.744  -3.904  23.405  0.00  0.00    +0.072 S 
ATOM     24  O   UNL     1       7.676  -4.218  21.994  0.00  0.00    -0.150 OA
ATOM     25  O   UNL     1       8.355  -4.815  24.355  0.00  0.00    -0.150 OA
BRANCH  23  26
ATOM     26  C   UNL     1       8.518  -2.330  23.627  0.00  0.00    +0.109 A 
ATOM     27  C   UNL     1       8.617  -1.425  22.566  0.00  0.00    +0.037 A 
ATOM     28  C   UNL     1       9.238  -0.178  22.765  0.00  0.00    -0.016 A 
ATOM     29  C   UNL     1       9.749   0.147  24.045  0.00  0.00    -0.018 A 
ATOM     30  C   UNL     1      10.363   1.391  24.253  0.00  0.00    +0.008 A 
ATOM     31  C   UNL     1      10.487   2.306  23.209  0.00  0.00    +0.001 A 
ATOM     32  C   UNL     1       9.992   1.989  21.947  0.00  0.00    +0.001 A 
ATOM     33  C   UNL     1       9.638  -0.780  25.092  0.00  0.00    +0.010 A 
ATOM     34  C   UNL     1       9.367   0.759  21.727  0.00  0.00    +0.008 A 
ATOM     35  C   UNL     1       9.037  -2.018  24.884  0.00  0.00    +0.029 A 
ENDBRANCH  23  26
ENDBRANCH  21  23
ENDBRANCH   2  21
BRANCH   5  36
ATOM     36  O   UNL     1       5.204   0.574  27.606  0.00  0.00    -0.342 OA
BRANCH  36  37
ATOM     37  S   UNL     1       6.293   1.585  28.286  0.00  0.00    +0.151 S 
ATOM     38  O   UNL     1       7.525   0.830  28.470  0.00  0.00    -0.131 OA
ATOM     39  O   UNL     1       5.663   2.271  29.404  0.00  0.00    -0.131 OA
BRANCH  37  40
ATOM     40  C   UNL     1       6.633   2.817  27.054  0.00  0.00    +0.129 A 
ATOM     41  C   UNL     1       6.473   2.519  25.698  0.00  0.00    +0.039 A 
ATOM     42  C   UNL     1       6.878   3.451  24.726  0.00  0.00    -0.016 A 
ATOM     43  C   UNL     1       7.422   4.694  25.135  0.00  0.00    -0.018 A 
ATOM     44  C   UNL     1       7.870   5.605  24.166  0.00  0.00    +0.008 A 
ATOM     45  C   UNL     1       7.793   5.296  22.808  0.00  0.00    +0.001 A 
ATOM     46  C   UNL     1       7.248   4.081  22.402  0.00  0.00    +0.001 A 
ATOM     47  C   UNL     1       7.523   4.990  26.503  0.00  0.00    +0.010 A 
ATOM     48  C   UNL     1       6.786   3.168  23.353  0.00  0.00    +0.008 A 
ATOM     49  C   UNL     1       7.135   4.055  27.462  0.00  0.00    +0.031 A 
ENDBRANCH  37  40
ENDBRANCH  36  37
ENDBRANCH   5  36
TORSDOF 13
ENDMDL
MODEL 7
REMARK VINA RESULT:      -7.4      2.813      7.346
REMARK  Name = 
REMARK  14 active torsions:
REMARK  status: ('A' for Active; 'I' for Inactive)
REMARK    1  A    between atoms: C_1  and  N_2
REMARK    2  A    between atoms: N_2  and  C_3
REMARK    3  A    between atoms: C_3  and  C_5
REMARK    4  A    between atoms: C_3  and  C_9
REMARK    5  A    between atoms: C_5  and  C_6
REMARK    6  A    between atoms: C_6  and  O_7
REMARK    7  A    between atoms: C_9  and  O_10
REMARK    8  A    between atoms: C_12  and  C_14
REMARK    9  A    between atoms: C_16  and  O_17
REMARK   10  A    between atoms: O_17  and  S_18
REMARK   11  A    between atoms: S_18  and  C_21
REMARK   12  A    between atoms: C_33  and  N_34
REMARK   13  A    between atoms: N_34  and  S_35
REMARK   14  A    between atoms: S_35  and  C_38
REMARK                            x       y       z     vdW  Elec       q    Type
REMARK                         _______ _______ _______ _____ _____    ______ ____
ROOT
ATOM      1  C   UNL     1       7.154   0.293  26.068  0.00  0.00    +0.063 A 
ATOM      2  C   UNL     1       6.337   1.395  25.744  0.00  0.00    +0.060 A 
ATOM      3  C   UNL     1       5.006   1.423  26.199  0.00  0.00    +0.029 A 
ATOM      4  C   UNL     1       4.459   0.325  26.867  0.00  0.00    +0.050 A 
ATOM      5  C   UNL     1       5.270  -0.747  27.222  0.00  0.00    +0.158 A 
ATOM      6  C   UNL     1       6.633  -0.687  26.930  0.00  0.00    +0.063 A 
ENDROOT
BRANCH   1   9
ATOM      7  C   UNL     1       7.356  -1.087  23.355  0.00  0.00    +0.133 C 
ATOM      8  N   UNL     1       8.446  -0.342  23.993  0.00  0.00    -0.287 N 
ATOM      9  C   UNL     1       8.468   0.015  25.366  0.00  0.00    +0.249 C 
ATOM     10  O   UNL     1       9.541   0.248  25.910  0.00  0.00    -0.270 OA
BRANCH   8  11
ATOM     11  C   UNL     1       9.678  -0.235  23.169  0.00  0.00    +0.195 C 
BRANCH  11  12
ATOM     12  C   UNL     1      10.206  -1.524  22.521  0.00  0.00    +0.326 C 
ATOM     13  O   UNL     1      10.607  -2.494  23.144  0.00  0.00    -0.249 OA
BRANCH  12  14
ATOM     14  O   UNL     1      10.013  -1.555  21.178  0.00  0.00    -0.479 OA
ATOM     15  H   UNL     1       9.845  -2.465  20.863  0.00  0.00    +0.295 HD
ENDBRANCH  12  14
ENDBRANCH  11  12
BRANCH  11  16
ATOM     16  C   UNL     1       9.865   1.028  22.338  0.00  0.00    +0.154 C 
BRANCH  16  17
ATOM     17  C   UNL     1       8.746   1.608  21.513  0.00  0.00    +0.307 C 
ATOM     18  O   UNL     1       8.103   2.561  21.941  0.00  0.00    -0.251 OA
BRANCH  17  19
ATOM     19  O   UNL     1       8.451   1.048  20.343  0.00  0.00    -0.481 OA
ATOM     20  H   UNL     1       7.518   0.902  20.063  0.00  0.00    +0.295 HD
ENDBRANCH  17  19
ENDBRANCH  16  17
ENDBRANCH  11  16
ENDBRANCH   8  11
ENDBRANCH   1   9
BRANCH   2  21
ATOM     21  N   UNL     1       6.765   2.508  24.941  0.00  0.00    -0.216 N 
ATOM     22  H   UNL     1       6.259   2.592  24.055  0.00  0.00    +0.174 HD
BRANCH  21  23
ATOM     23  S   UNL     1       6.629   4.068  25.643  0.00  0.00    +0.072 S 
ATOM     24  O   UNL     1       6.460   3.948  27.075  0.00  0.00    -0.150 OA
ATOM     25  O   UNL     1       5.654   4.759  24.820  0.00  0.00    -0.150 OA
BRANCH  23  26
ATOM     26  C   UNL     1       8.206   4.785  25.289  0.00  0.00    +0.109 A 
ATOM     27  C   UNL     1       9.108   4.146  24.434  0.00  0.00    +0.037 A 
ATOM     28  C   UNL     1      10.357   4.735  24.167  0.00  0.00    -0.016 A 
ATOM     29  C   UNL     1      10.681   5.977  24.765  0.00  0.00    -0.018 A 
ATOM     30  C   UNL     1      11.923   6.573  24.497  0.00  0.00    +0.008 A 
ATOM     31  C   UNL     1      12.846   5.950  23.660  0.00  0.00    +0.001 A 
ATOM     32  C   UNL     1      12.535   4.725  23.075  0.00  0.00    +0.001 A 
ATOM     33  C   UNL     1       9.759   6.597  25.620  0.00  0.00    +0.010 A 
ATOM     34  C   UNL     1      11.298   4.124  23.322  0.00  0.00    +0.008 A 
ATOM     35  C   UNL     1       8.531   6.001  25.892  0.00  0.00    +0.029 A 
ENDBRANCH  23  26
ENDBRANCH  21  23
ENDBRANCH   2  21
BRANCH   5  36
ATOM     36  O   UNL     1       4.635  -1.813  27.818  0.00  0.00    -0.342 OA
BRANCH  36  37
ATOM     37  S   UNL     1       3.806  -2.930  26.959  0.00  0.00    +0.151 S 
ATOM     38  O   UNL     1       2.815  -2.214  26.167  0.00  0.00    -0.131 OA
ATOM     39  O   UNL     1       3.411  -4.009  27.851  0.00  0.00    -0.131 OA
BRANCH  37  40
ATOM     40  C   UNL     1       4.975  -3.612  25.812  0.00  0.00    +0.129 A 
ATOM     41  C   UNL     1       4.731  -3.550  24.437  0.00  0.00    +0.039 A 
ATOM     42  C   UNL     1       5.591  -4.216  23.545  0.00  0.00    -0.016 A 
ATOM     43  C   UNL     1       6.711  -4.922  24.050  0.00  0.00    -0.018 A 
ATOM     44  C   UNL     1       7.543  -5.625  23.165  0.00  0.00    +0.008 A 
ATOM     45  C   UNL     1       7.273  -5.643  21.797  0.00  0.00    +0.001 A 
ATOM     46  C   UNL     1       6.180  -4.941  21.295  0.00  0.00    +0.001 A 
ATOM     47  C   UNL     1       6.963  -4.923  25.431  0.00  0.00    +0.010 A 
ATOM     48  C   UNL     1       5.350  -4.225  22.161  0.00  0.00    +0.008 A 
ATOM     49  C   UNL     1       6.098  -4.276  26.312  0.00  0.00    +0.031 A 
ENDBRANCH  37  40
ENDBRANCH  36  37
ENDBRANCH   5  36
TORSDOF 13
ENDMDL
MODEL 8
REMARK VINA RESULT:      -7.4      2.297      6.480
REMARK  Name = 
REMARK  14 active torsions:
REMARK  status: ('A' for Active; 'I' for Inactive)
REMARK    1  A    between atoms: C_1  and  N_2
REMARK    2  A    between atoms: N_2  and  C_3
REMARK    3  A    between atoms: C_3  and  C_5
REMARK    4  A    between atoms: C_3  and  C_9
REMARK    5  A    between atoms: C_5  and  C_6
REMARK    6  A    between atoms: C_6  and  O_7
REMARK    7  A    between atoms: C_9  and  O_10
REMARK    8  A    between atoms: C_12  and  C_14
REMARK    9  A    between atoms: C_16  and  O_17
REMARK   10  A    between atoms: O_17  and  S_18
REMARK   11  A    between atoms: S_18  and  C_21
REMARK   12  A    between atoms: C_33  and  N_34
REMARK   13  A    between atoms: N_34  and  S_35
REMARK   14  A    between atoms: S_35  and  C_38
REMARK                            x       y       z     vdW  Elec       q    Type
REMARK                         _______ _______ _______ _____ _____    ______ ____
ROOT
ATOM      1  C   UNL     1       6.196  -1.228  26.856  0.00  0.00    +0.063 A 
ATOM      2  C   UNL     1       5.703   0.070  26.606  0.00  0.00    +0.060 A 
ATOM      3  C   UNL     1       4.334   0.335  26.790  0.00  0.00    +0.029 A 
ATOM      4  C   UNL     1       3.446  -0.697  27.104  0.00  0.00    +0.050 A 
ATOM      5  C   UNL     1       3.930  -1.969  27.388  0.00  0.00    +0.158 A 
ATOM      6  C   UNL     1       5.309  -2.181  27.386  0.00  0.00    +0.063 A 
ENDROOT
BRANCH   1   9
ATOM      7  C   UNL     1       6.953  -4.162  26.514  0.00  0.00    +0.133 C 
ATOM      8  N   UNL     1       7.714  -3.038  25.963  0.00  0.00    -0.287 N 
ATOM      9  C   UNL     1       7.558  -1.691  26.382  0.00  0.00    +0.249 C 
ATOM     10  O   UNL     1       8.473  -0.895  26.203  0.00  0.00    -0.270 OA
BRANCH   8  11
ATOM     11  C   UNL     1       8.881  -3.435  25.133  0.00  0.00    +0.195 C 
BRANCH  11  12
ATOM     12  C   UNL     1       9.470  -4.834  25.371  0.00  0.00    +0.326 C 
ATOM     13  O   UNL     1       9.479  -5.727  24.540  0.00  0.00    -0.249 OA
BRANCH  12  14
ATOM     14  O   UNL     1      10.148  -4.928  26.543  0.00  0.00    -0.479 OA
ATOM     15  H   UNL     1      10.420  -4.047  26.868  0.00  0.00    +0.295 HD
ENDBRANCH  12  14
ENDBRANCH  11  12
BRANCH  11  16
ATOM     16  C   UNL     1       8.913  -2.960  23.686  0.00  0.00    +0.154 C 
BRANCH  16  17
ATOM     17  C   UNL     1       9.954  -1.989  23.192  0.00  0.00    +0.307 C 
ATOM     18  O   UNL     1      10.591  -1.316  23.995  0.00  0.00    -0.251 OA
BRANCH  17  19
ATOM     19  O   UNL     1      10.136  -1.852  21.881  0.00  0.00    -0.481 OA
ATOM     20  H   UNL     1      10.957  -1.451  21.514  0.00  0.00    +0.295 HD
ENDBRANCH  17  19
ENDBRANCH  16  17
ENDBRANCH  11  16
ENDBRANCH   8  11
ENDBRANCH   1   9
BRANCH   2  21
ATOM     21  N   UNL     1       6.513   1.163  26.142  0.00  0.00    -0.216 N 
ATOM     22  H   UNL     1       7.518   1.006  26.261  0.00  0.00    +0.174 HD
BRANCH  21  23
ATOM     23  S   UNL     1       6.357   1.597  24.489  0.00  0.00    +0.072 S 
ATOM     24  O   UNL     1       5.300   2.572  24.337  0.00  0.00    -0.150 OA
ATOM     25  O   UNL     1       6.329   0.332  23.777  0.00  0.00    -0.150 OA
BRANCH  23  26
ATOM     26  C   UNL     1       7.918   2.351  24.143  0.00  0.00    +0.109 A 
ATOM     27  C   UNL     1       8.148   3.694  24.453  0.00  0.00    +0.037 A 
ATOM     28  C   UNL     1       9.398   4.274  24.168  0.00  0.00    -0.016 A 
ATOM     29  C   UNL     1      10.411   3.484  23.574  0.00  0.00    -0.018 A 
ATOM     30  C   UNL     1      11.662   4.054  23.293  0.00  0.00    +0.008 A 
ATOM     31  C   UNL     1      11.913   5.394  23.581  0.00  0.00    +0.001 A 
ATOM     32  C   UNL     1      10.918   6.178  24.159  0.00  0.00    +0.001 A 
ATOM     33  C   UNL     1      10.153   2.139  23.271  0.00  0.00    +0.010 A 
ATOM     34  C   UNL     1       9.672   5.622  24.456  0.00  0.00    +0.008 A 
ATOM     35  C   UNL     1       8.909   1.576  23.541  0.00  0.00    +0.029 A 
ENDBRANCH  23  26
ENDBRANCH  21  23
ENDBRANCH   2  21
BRANCH   5  36
ATOM     36  O   UNL     1       2.981  -2.938  27.623  0.00  0.00    -0.342 OA
BRANCH  36  37
ATOM     37  S   UNL     1       2.166  -3.675  26.414  0.00  0.00    +0.151 S 
ATOM     38  O   UNL     1       1.496  -2.633  25.648  0.00  0.00    -0.131 OA
ATOM     39  O   UNL     1       1.418  -4.794  26.967  0.00  0.00    -0.131 OA
BRANCH  37  40
ATOM     40  C   UNL     1       3.410  -4.363  25.352  0.00  0.00    +0.129 A 
ATOM     41  C   UNL     1       3.987  -3.583  24.346  0.00  0.00    +0.039 A 
ATOM     42  C   UNL     1       4.867  -4.175  23.422  0.00  0.00    -0.016 A 
ATOM     43  C   UNL     1       5.177  -5.552  23.537  0.00  0.00    -0.018 A 
ATOM     44  C   UNL     1       6.018  -6.154  22.588  0.00  0.00    +0.008 A 
ATOM     45  C   UNL     1       6.543  -5.413  21.529  0.00  0.00    +0.001 A 
ATOM     46  C   UNL     1       6.249  -4.056  21.419  0.00  0.00    +0.001 A 
ATOM     47  C   UNL     1       4.626  -6.301  24.588  0.00  0.00    +0.010 A 
ATOM     48  C   UNL     1       5.425  -3.439  22.363  0.00  0.00    +0.008 A 
ATOM     49  C   UNL     1       3.742  -5.713  25.492  0.00  0.00    +0.031 A 
ENDBRANCH  37  40
ENDBRANCH  36  37
ENDBRANCH   5  36
TORSDOF 13
ENDMDL
MODEL 9
REMARK VINA RESULT:      -7.2      2.787      7.378
REMARK  Name = 
REMARK  14 active torsions:
REMARK  status: ('A' for Active; 'I' for Inactive)
REMARK    1  A    between atoms: C_1  and  N_2
REMARK    2  A    between atoms: N_2  and  C_3
REMARK    3  A    between atoms: C_3  and  C_5
REMARK    4  A    between atoms: C_3  and  C_9
REMARK    5  A    between atoms: C_5  and  C_6
REMARK    6  A    between atoms: C_6  and  O_7
REMARK    7  A    between atoms: C_9  and  O_10
REMARK    8  A    between atoms: C_12  and  C_14
REMARK    9  A    between atoms: C_16  and  O_17
REMARK   10  A    between atoms: O_17  and  S_18
REMARK   11  A    between atoms: S_18  and  C_21
REMARK   12  A    between atoms: C_33  and  N_34
REMARK   13  A    between atoms: N_34  and  S_35
REMARK   14  A    between atoms: S_35  and  C_38
REMARK                            x       y       z     vdW  Elec       q    Type
REMARK                         _______ _______ _______ _____ _____    ______ ____
ROOT
ATOM      1  C   UNL     1       5.995  -5.214  26.752  0.00  0.00    +0.063 A 
ATOM      2  C   UNL     1       5.878  -3.989  27.441  0.00  0.00    +0.060 A 
ATOM      3  C   UNL     1       4.956  -3.878  28.498  0.00  0.00    +0.029 A 
ATOM      4  C   UNL     1       4.082  -4.927  28.793  0.00  0.00    +0.050 A 
ATOM      5  C   UNL     1       4.219  -6.149  28.144  0.00  0.00    +0.158 A 
ATOM      6  C   UNL     1       5.257  -6.313  27.226  0.00  0.00    +0.063 A 
ENDROOT
BRANCH   1   9
ATOM      7  C   UNL     1       4.534  -5.380  24.081  0.00  0.00    +0.133 C 
ATOM      8  N   UNL     1       5.964  -5.098  24.230  0.00  0.00    -0.287 N 
ATOM      9  C   UNL     1       6.702  -5.338  25.418  0.00  0.00    +0.249 C 
ATOM     10  O   UNL     1       7.918  -5.478  25.354  0.00  0.00    -0.270 OA
BRANCH   8  11
ATOM     11  C   UNL     1       6.669  -4.814  22.953  0.00  0.00    +0.195 C 
BRANCH  11  12
ATOM     12  C   UNL     1       6.251  -5.632  21.721  0.00  0.00    +0.326 C 
ATOM     13  O   UNL     1       5.933  -5.145  20.648  0.00  0.00    -0.249 OA
BRANCH  12  14
ATOM     14  O   UNL     1       6.444  -6.965  21.883  0.00  0.00    -0.479 OA
ATOM     15  H   UNL     1       6.809  -7.167  22.767  0.00  0.00    +0.295 HD
ENDBRANCH  12  14
ENDBRANCH  11  12
BRANCH  11  16
ATOM     16  C   UNL     1       7.057  -3.369  22.666  0.00  0.00    +0.154 C 
BRANCH  16  17
ATOM     17  C   UNL     1       8.484  -2.897  22.755  0.00  0.00    +0.307 C 
ATOM     18  O   UNL     1       8.922  -2.115  21.917  0.00  0.00    -0.251 OA
BRANCH  17  19
ATOM     19  O   UNL     1       9.259  -3.369  23.729  0.00  0.00    -0.481 OA
ATOM     20  H   UNL     1       8.990  -4.147  24.269  0.00  0.00    +0.295 HD
ENDBRANCH  17  19
ENDBRANCH  16  17
ENDBRANCH  11  16
ENDBRANCH   8  11
ENDBRANCH   1   9
BRANCH   2  21
ATOM     21  N   UNL     1       6.632  -2.809  27.118  0.00  0.00    -0.216 N 
ATOM     22  H   UNL     1       7.410  -2.984  26.476  0.00  0.00    +0.174 HD
BRANCH  21  23
ATOM     23  S   UNL     1       5.774  -1.517  26.383  0.00  0.00    +0.072 S 
ATOM     24  O   UNL     1       5.268  -0.623  27.402  0.00  0.00    -0.150 OA
ATOM     25  O   UNL     1       4.887  -2.158  25.430  0.00  0.00    -0.150 OA
BRANCH  23  26
ATOM     26  C   UNL     1       7.035  -0.702  25.450  0.00  0.00    +0.109 A 
ATOM     27  C   UNL     1       6.724  -0.015  24.273  0.00  0.00    +0.037 A 
ATOM     28  C   UNL     1       7.743   0.625  23.546  0.00  0.00    -0.016 A 
ATOM     29  C   UNL     1       9.075   0.572  24.023  0.00  0.00    -0.018 A 
ATOM     30  C   UNL     1      10.096   1.215  23.307  0.00  0.00    +0.008 A 
ATOM     31  C   UNL     1       9.814   1.895  22.123  0.00  0.00    +0.001 A 
ATOM     32  C   UNL     1       8.508   1.945  21.646  0.00  0.00    +0.001 A 
ATOM     33  C   UNL     1       9.361  -0.125  25.206  0.00  0.00    +0.010 A 
ATOM     34  C   UNL     1       7.479   1.320  22.354  0.00  0.00    +0.008 A 
ATOM     35  C   UNL     1       8.350  -0.771  25.912  0.00  0.00    +0.029 A 
ENDBRANCH  23  26
ENDBRANCH  21  23
ENDBRANCH   2  21
BRANCH   5  36
ATOM     36  O   UNL     1       3.275  -7.103  28.449  0.00  0.00    -0.342 OA
BRANCH  36  37
ATOM     37  S   UNL     1       1.670  -6.798  28.388  0.00  0.00    +0.151 S 
ATOM     38  O   UNL     1       1.456  -5.496  29.004  0.00  0.00    -0.131 OA
ATOM     39  O   UNL     1       0.951  -7.974  28.855  0.00  0.00    -0.131 OA
BRANCH  37  40
ATOM     40  C   UNL     1       1.287  -6.612  26.665  0.00  0.00    +0.129 A 
ATOM     41  C   UNL     1       1.233  -7.733  25.831  0.00  0.00    +0.039 A 
ATOM     42  C   UNL     1       1.069  -7.563  24.444  0.00  0.00    -0.016 A 
ATOM     43  C   UNL     1       0.936  -6.257  23.912  0.00  0.00    -0.018 A 
ATOM     44  C   UNL     1       0.818  -6.084  22.524  0.00  0.00    +0.008 A 
ATOM     45  C   UNL     1       0.842  -7.183  21.665  0.00  0.00    +0.001 A 
ATOM     46  C   UNL     1       0.961  -8.469  22.185  0.00  0.00    +0.001 A 
ATOM     47  C   UNL     1       0.939  -5.152  24.777  0.00  0.00    +0.010 A 
ATOM     48  C   UNL     1       1.065  -8.659  23.565  0.00  0.00    +0.008 A 
ATOM     49  C   UNL     1       1.119  -5.325  26.149  0.00  0.00    +0.031 A 
ENDBRANCH  37  40
ENDBRANCH  36  37
ENDBRANCH   5  36
TORSDOF 13
ENDMDL
