MODEL 1
REMARK VINA RESULT:      -3.7      0.000      0.000
REMARK  Name = 
REMARK  4 active torsions:
REMARK  status: ('A' for Active; 'I' for Inactive)
REMARK    1  A    between atoms: C_1  and  C_2
REMARK    2  A    between atoms: C_2  and  C_4
REMARK    3  A    between atoms: C_4  and  C_5
REMARK    4  A    between atoms: C_5  and  O_6
REMARK                            x       y       z     vdW  Elec       q    Type
REMARK                         _______ _______ _______ _____ _____    ______ ____
ROOT
ATOM      1  C   UNL     1      12.241   5.828  23.856  0.00  0.00    +0.194 C 
ENDROOT
BRANCH   1   3
ATOM      2  C   UNL     1       9.738   6.346  23.650  0.00  0.00    +0.086 C 
ATOM      3  C   UNL     1      10.835   5.316  23.700  0.00  0.00    +0.141 C 
ATOM      4  O   UNL     1      10.590   4.111  23.616  0.00  0.00    -0.297 OA
ENDBRANCH   1   3
BRANCH   1   5
ATOM      5  C   UNL     1      13.248   5.431  22.814  0.00  0.00    +0.312 C 
ATOM      6  O   UNL     1      12.984   5.487  21.619  0.00  0.00    -0.251 OA
BRANCH   5   7
ATOM      7  O   UNL     1      14.454   5.009  23.243  0.00  0.00    -0.480 OA
ATOM      8  H   UNL     1      14.564   4.027  23.245  0.00  0.00    +0.295 HD
ENDBRANCH   5   7
ENDBRANCH   1   5
TORSDOF 3
ENDMDL
MODEL 2
REMARK VINA RESULT:      -3.7      1.601      1.618
REMARK  Name = 
REMARK  4 active torsions:
REMARK  status: ('A' for Active; 'I' for Inactive)
REMARK    1  A    between atoms: C_1  and  C_2
REMARK    2  A    between atoms: C_2  and  C_4
REMARK    3  A    between atoms: C_4  and  C_5
REMARK    4  A    between atoms: C_5  and  O_6
REMARK                            x       y       z     vdW  Elec       q    Type
REMARK                         _______ _______ _______ _____ _____    ______ ____
ROOT
ATOM      1  C   UNL     1      12.004   5.581  23.088  0.00  0.00    +0.194 C 
ENDROOT
BRANCH   1   3
ATOM      2  C   UNL     1      10.304   6.462  24.792  0.00  0.00    +0.086 C 
ATOM      3  C   UNL     1      11.744   6.239  24.414  0.00  0.00    +0.141 C 
ATOM      4  O   UNL     1      12.664   6.580  25.160  0.00  0.00    -0.297 OA
ENDBRANCH   1   3
BRANCH   1   5
ATOM      5  C   UNL     1      13.423   5.535  22.596  0.00  0.00    +0.312 C 
ATOM      6  O   UNL     1      13.741   6.036  21.524  0.00  0.00    -0.251 OA
BRANCH   5   7
ATOM      7  O   UNL     1      14.332   4.920  23.376  0.00  0.00    -0.480 OA
ATOM      8  H   UNL     1      14.372   5.263  24.303  0.00  0.00    +0.295 HD
ENDBRANCH   5   7
ENDBRANCH   1   5
TORSDOF 3
ENDMDL
MODEL 3
REMARK VINA RESULT:      -3.6      5.629      6.526
REMARK  Name = 
REMARK  4 active torsions:
REMARK  status: ('A' for Active; 'I' for Inactive)
REMARK    1  A    between atoms: C_1  and  C_2
REMARK    2  A    between atoms: C_2  and  C_4
REMARK    3  A    between atoms: C_4  and  C_5
REMARK    4  A    between atoms: C_5  and  O_6
REMARK                            x       y       z     vdW  Elec       q    Type
REMARK                         _______ _______ _______ _____ _____    ______ ____
ROOT
ATOM      1  C   UNL     1       9.462   0.001  21.413  0.00  0.00    +0.194 C 
ENDROOT
BRANCH   1   3
ATOM      2  C   UNL     1       8.304  -2.105  22.306  0.00  0.00    +0.086 C 
ATOM      3  C   UNL     1       9.585  -1.360  22.041  0.00  0.00    +0.141 C 
ATOM      4  O   UNL     1      10.682  -1.846  22.325  0.00  0.00    -0.297 OA
ENDBRANCH   1   3
BRANCH   1   5
ATOM      5  C   UNL     1       9.886   1.189  22.230  0.00  0.00    +0.312 C 
ATOM      6  O   UNL     1       9.896   1.148  23.455  0.00  0.00    -0.251 OA
BRANCH   5   7
ATOM      7  O   UNL     1      10.255   2.301  21.565  0.00  0.00    -0.480 OA
ATOM      8  H   UNL     1       9.886   3.139  21.939  0.00  0.00    +0.295 HD
ENDBRANCH   5   7
ENDBRANCH   1   5
TORSDOF 3
ENDMDL
MODEL 4
REMARK VINA RESULT:      -3.5      5.192      6.210
REMARK  Name = 
REMARK  4 active torsions:
REMARK  status: ('A' for Active; 'I' for Inactive)
REMARK    1  A    between atoms: C_1  and  C_2
REMARK    2  A    between atoms: C_2  and  C_4
REMARK    3  A    between atoms: C_4  and  C_5
REMARK    4  A    between atoms: C_5  and  O_6
REMARK                            x       y       z     vdW  Elec       q    Type
REMARK                         _______ _______ _______ _____ _____    ______ ____
ROOT
ATOM      1  C   UNL     1       9.548  -0.111  21.667  0.00  0.00    +0.194 C 
ENDROOT
BRANCH   1   3
ATOM      2  C   UNL     1      10.056  -2.023  23.297  0.00  0.00    +0.086 C 
ATOM      3  C   UNL     1      10.197  -0.567  22.945  0.00  0.00    +0.141 C 
ATOM      4  O   UNL     1      10.816   0.214  23.671  0.00  0.00    -0.297 OA
ENDBRANCH   1   3
BRANCH   1   5
ATOM      5  C   UNL     1       9.209   1.346  21.536  0.00  0.00    +0.312 C 
ATOM      6  O   UNL     1       8.053   1.717  21.363  0.00  0.00    -0.251 OA
BRANCH   5   7
ATOM      7  O   UNL     1      10.222   2.231  21.612  0.00  0.00    -0.480 OA
ATOM      8  H   UNL     1      10.002   3.060  22.104  0.00  0.00    +0.295 HD
ENDBRANCH   5   7
ENDBRANCH   1   5
TORSDOF 3
ENDMDL
MODEL 5
REMARK VINA RESULT:      -3.5     10.731     11.601
REMARK  Name = 
REMARK  4 active torsions:
REMARK  status: ('A' for Active; 'I' for Inactive)
REMARK    1  A    between atoms: C_1  and  C_2
REMARK    2  A    between atoms: C_2  and  C_4
REMARK    3  A    between atoms: C_4  and  C_5
REMARK    4  A    between atoms: C_5  and  O_6
REMARK                            x       y       z     vdW  Elec       q    Type
REMARK                         _______ _______ _______ _____ _____    ______ ____
ROOT
ATOM      1  C   UNL     1       7.952  -4.431  25.669  0.00  0.00    +0.194 C 
ENDROOT
BRANCH   1   3
ATOM      2  C   UNL     1       5.852  -5.866  25.990  0.00  0.00    +0.086 C 
ATOM      3  C   UNL     1       7.171  -5.384  26.532  0.00  0.00    +0.141 C 
ATOM      4  O   UNL     1       7.589  -5.755  27.630  0.00  0.00    -0.297 OA
ENDBRANCH   1   3
BRANCH   1   5
ATOM      5  C   UNL     1       9.321  -4.856  25.220  0.00  0.00    +0.312 C 
ATOM      6  O   UNL     1      10.011  -4.133  24.510  0.00  0.00    -0.251 OA
BRANCH   5   7
ATOM      7  O   UNL     1       9.762  -6.062  25.625  0.00  0.00    -0.480 OA
ATOM      8  H   UNL     1       9.437  -6.819  25.078  0.00  0.00    +0.295 HD
ENDBRANCH   5   7
ENDBRANCH   1   5
TORSDOF 3
ENDMDL
MODEL 6
REMARK VINA RESULT:      -3.5     11.281     11.848
REMARK  Name = 
REMARK  4 active torsions:
REMARK  status: ('A' for Active; 'I' for Inactive)
REMARK    1  A    between atoms: C_1  and  C_2
REMARK    2  A    between atoms: C_2  and  C_4
REMARK    3  A    between atoms: C_4  and  C_5
REMARK    4  A    between atoms: C_5  and  O_6
REMARK                            x       y       z     vdW  Elec       q    Type
REMARK                         _______ _______ _______ _____ _____    ______ ____
ROOT
ATOM      1  C   UNL     1       7.302  -4.992  25.570  0.00  0.00    +0.194 C 
ENDROOT
BRANCH   1   3
ATOM      2  C   UNL     1       7.436  -5.021  23.010  0.00  0.00    +0.086 C 
ATOM      3  C   UNL     1       8.146  -5.129  24.333  0.00  0.00    +0.141 C 
ATOM      4  O   UNL     1       9.363  -5.318  24.396  0.00  0.00    -0.297 OA
ENDBRANCH   1   3
BRANCH   1   5
ATOM      5  C   UNL     1       7.957  -5.255  26.896  0.00  0.00    +0.312 C 
ATOM      6  O   UNL     1       7.373  -5.864  27.785  0.00  0.00    -0.251 OA
BRANCH   5   7
ATOM      7  O   UNL     1       9.211  -4.795  27.073  0.00  0.00    -0.480 OA
ATOM      8  H   UNL     1       9.643  -4.462  26.249  0.00  0.00    +0.295 HD
ENDBRANCH   5   7
ENDBRANCH   1   5
TORSDOF 3
ENDMDL
MODEL 7
REMARK VINA RESULT:      -3.4      5.560      6.618
REMARK  Name = 
REMARK  4 active torsions:
REMARK  status: ('A' for Active; 'I' for Inactive)
REMARK    1  A    between atoms: C_1  and  C_2
REMARK    2  A    between atoms: C_2  and  C_4
REMARK    3  A    between atoms: C_4  and  C_5
REMARK    4  A    between atoms: C_5  and  O_6
REMARK                            x       y       z     vdW  Elec       q    Type
REMARK                         _______ _______ _______ _____ _____    ______ ____
ROOT
ATOM      1  C   UNL     1       9.552  -0.462  23.557  0.00  0.00    +0.194 C 
ENDROOT
BRANCH   1   3
ATOM      2  C   UNL     1      10.647   1.810  24.015  0.00  0.00    +0.086 C 
ATOM      3  C   UNL     1      10.049   0.851  23.021  0.00  0.00    +0.141 C 
ATOM      4  O   UNL     1       9.973   1.132  21.823  0.00  0.00    -0.297 OA
ENDBRANCH   1   3
BRANCH   1   5
ATOM      5  C   UNL     1      10.073  -1.720  22.922  0.00  0.00    +0.312 C 
ATOM      6  O   UNL     1      10.266  -2.734  23.583  0.00  0.00    -0.251 OA
BRANCH   5   7
ATOM      7  O   UNL     1      10.324  -1.691  21.599  0.00  0.00    -0.480 OA
ATOM      8  H   UNL     1      11.125  -1.170  21.347  0.00  0.00    +0.295 HD
ENDBRANCH   5   7
ENDBRANCH   1   5
TORSDOF 3
ENDMDL
MODEL 8
REMARK VINA RESULT:      -3.3      8.955     10.031
REMARK  Name = 
REMARK  4 active torsions:
REMARK  status: ('A' for Active; 'I' for Inactive)
REMARK    1  A    between atoms: C_1  and  C_2
REMARK    2  A    between atoms: C_2  and  C_4
REMARK    3  A    between atoms: C_4  and  C_5
REMARK    4  A    between atoms: C_5  and  O_6
REMARK                            x       y       z     vdW  Elec       q    Type
REMARK                         _______ _______ _______ _____ _____    ______ ____
ROOT
ATOM      1  C   UNL     1       8.388  -3.756  24.772  0.00  0.00    +0.194 C 
ENDROOT
BRANCH   1   3
ATOM      2  C   UNL     1       8.194  -2.408  22.600  0.00  0.00    +0.086 C 
ATOM      3  C   UNL     1       9.071  -2.975  23.684  0.00  0.00    +0.141 C 
ATOM      4  O   UNL     1      10.292  -2.803  23.678  0.00  0.00    -0.297 OA
ENDBRANCH   1   3
BRANCH   1   5
ATOM      5  C   UNL     1       9.249  -4.581  25.686  0.00  0.00    +0.312 C 
ATOM      6  O   UNL     1       9.032  -4.631  26.892  0.00  0.00    -0.251 OA
BRANCH   5   7
ATOM      7  O   UNL     1      10.270  -5.263  25.133  0.00  0.00    -0.480 OA
ATOM      8  H   UNL     1      10.565  -6.049  25.655  0.00  0.00    +0.295 HD
ENDBRANCH   5   7
ENDBRANCH   1   5
TORSDOF 3
ENDMDL
MODEL 9
REMARK VINA RESULT:      -3.3      6.072      6.753
REMARK  Name = 
REMARK  4 active torsions:
REMARK  status: ('A' for Active; 'I' for Inactive)
REMARK    1  A    between atoms: C_1  and  C_2
REMARK    2  A    between atoms: C_2  and  C_4
REMARK    3  A    between atoms: C_4  and  C_5
REMARK    4  A    between atoms: C_5  and  O_6
REMARK                            x       y       z     vdW  Elec       q    Type
REMARK                         _______ _______ _______ _____ _____    ______ ____
ROOT
ATOM      1  C   UNL     1      10.244  -0.005  23.233  0.00  0.00    +0.194 C 
ENDROOT
BRANCH   1   3
ATOM      2  C   UNL     1       9.333  -0.383  25.598  0.00  0.00    +0.086 C 
ATOM      3  C   UNL     1       9.846  -0.972  24.312  0.00  0.00    +0.141 C 
ATOM      4  O   UNL     1       9.933  -2.192  24.153  0.00  0.00    -0.297 OA
ENDBRANCH   1   3
BRANCH   1   5
ATOM      5  C   UNL     1       9.794  -0.298  21.829  0.00  0.00    +0.312 C 
ATOM      6  O   UNL     1       9.208   0.545  21.160  0.00  0.00    -0.251 OA
BRANCH   5   7
ATOM      7  O   UNL     1      10.057  -1.523  21.335  0.00  0.00    -0.480 OA
ATOM      8  H   UNL     1      10.216  -1.542  20.359  0.00  0.00    +0.295 HD
ENDBRANCH   5   7
ENDBRANCH   1   5
TORSDOF 3
ENDMDL
