MODEL 1
REMARK VINA RESULT:      -5.8      0.000      0.000
REMARK  Name = 
REMARK  14 active torsions:
REMARK  status: ('A' for Active; 'I' for Inactive)
REMARK    1  A    between atoms: N_1  and  C_2
REMARK    2  A    between atoms: C_2  and  C_4
REMARK    3  A    between atoms: C_2  and  C_22
REMARK    4  A    between atoms: C_4  and  C_5
REMARK    5  A    between atoms: C_5  and  C_6
REMARK    6  A    between atoms: N_8  and  C_9
REMARK    7  A    between atoms: C_9  and  C_11
REMARK    8  A    between atoms: C_9  and  C_15
REMARK    9  A    between atoms: C_11  and  S_12
REMARK   10  A    between atoms: S_12  and  O_13
REMARK   11  A    between atoms: N_17  and  CA_18
REMARK   12  A    between atoms: CA_18  and  C_19
REMARK   13  A    between atoms: C_19  and  O_20
REMARK   14  A    between atoms: C_22  and  O_23
REMARK                            x       y       z     vdW  Elec       q    Type
REMARK                         _______ _______ _______ _____ _____    ______ ____
ROOT
ATOM      1  C   UNK A   1       8.781  -2.976  24.030  0.00  0.00    +0.181 C 
ENDROOT
BRANCH   1   3
ATOM      2  C   UNK A   1       9.988  -1.160  22.855  0.00  0.00    +0.214 C 
ATOM      3  N   UNK A   1       8.975  -1.568  23.679  0.00  0.00    -0.303 N 
ATOM      4  H   UNK A   1       8.219  -0.932  23.919  0.00  0.00    +0.149 HD
ATOM      5  O   UNK A   1      10.808  -1.941  22.380  0.00  0.00    -0.276 OA
BRANCH   2   6
ATOM      6  C   UNK A   1      10.030   0.330  22.589  0.00  0.00    +0.098 C 
BRANCH   6   7
ATOM      7  C   UNK A   1       9.114   0.689  21.418  0.00  0.00    +0.039 C 
BRANCH   7   8
ATOM      8  C   UNK A   1       8.039   1.726  21.758  0.00  0.00    +0.161 C 
BRANCH   8   9
ATOM      9  N   UNK A   1       8.703   3.020  22.127  0.00  0.00    -0.318 NA
ATOM     10  H   UNK A   1       8.359   3.754  21.497  0.00  0.00    +0.119 HD
ATOM     11  H   UNK A   1       8.346   3.302  23.046  0.00  0.00    +0.119 HD
ENDBRANCH   8   9
BRANCH   8  12
ATOM     12  C   UNK A   1       7.138   1.301  22.938  0.00  0.00    +0.322 C 
ATOM     13  O   UNK A   1       6.975   1.931  23.970  0.00  0.00    -0.249 OA
BRANCH  12  14
ATOM     14  O   UNK A   1       6.555   0.096  22.706  0.00  0.00    -0.480 OA
ATOM     15  H   UNK A   1       6.807  -0.472  23.477  0.00  0.00    +0.295 HD
ENDBRANCH  12  14
ENDBRANCH   8  12
ENDBRANCH   7   8
ENDBRANCH   6   7
ENDBRANCH   2   6
ENDBRANCH   1   3
BRANCH   1  16
ATOM     16  C   UNK A   1       7.709  -3.561  23.083  0.00  0.00    +0.235 C 
ATOM     17  N   GLY A   2       7.572  -4.929  23.110  0.00  0.00    -0.303 N 
ATOM     18  H   GLY A   2       8.262  -5.492  23.594  0.00  0.00    +0.149 HD
ATOM     19  O   UNK A   1       7.021  -2.848  22.353  0.00  0.00    -0.274 OA
BRANCH  17  20
ATOM     20  CA  GLY A   2       6.666  -5.636  22.213  0.00  0.00    +0.224 C 
BRANCH  20  21
ATOM     21  C   GLY A   2       5.223  -5.801  22.681  0.00  0.00    +0.322 C 
ATOM     22  OXT GLY A   2       4.377  -4.932  22.498  0.00  0.00    -0.249 OA
BRANCH  21  23
ATOM     23  O   GLY A   2       4.936  -6.922  23.366  0.00  0.00    -0.480 OA
ATOM     24  H   GLY A   2       4.105  -7.391  23.109  0.00  0.00    +0.295 HD
ENDBRANCH  21  23
ENDBRANCH  20  21
ENDBRANCH  17  20
ENDBRANCH   1  16
BRANCH   1  25
ATOM     25  C   UNK A   1       8.456  -3.187  25.511  0.00  0.00    +0.206 C 
BRANCH  25  26
ATOM     26  S   UNK A   1       9.203  -4.723  26.162  0.00  0.00    -0.004 S 
ATOM     27  O   UNK A   1       8.187  -5.820  26.038  0.00  0.00    -0.167 OA
BRANCH  26  28
ATOM     28  O   UNK A   1      10.164  -4.921  24.892  0.00  0.00    -0.269 OA
ATOM     29  H   UNK A   1      11.040  -5.229  25.230  0.00  0.00    +0.243 HD
ENDBRANCH  26  28
ENDBRANCH  25  26
ENDBRANCH   1  25
TORSDOF 14
ENDMDL
MODEL 2
REMARK VINA RESULT:      -5.7      1.949      5.984
REMARK  Name = 
REMARK  14 active torsions:
REMARK  status: ('A' for Active; 'I' for Inactive)
REMARK    1  A    between atoms: N_1  and  C_2
REMARK    2  A    between atoms: C_2  and  C_4
REMARK    3  A    between atoms: C_2  and  C_22
REMARK    4  A    between atoms: C_4  and  C_5
REMARK    5  A    between atoms: C_5  and  C_6
REMARK    6  A    between atoms: N_8  and  C_9
REMARK    7  A    between atoms: C_9  and  C_11
REMARK    8  A    between atoms: C_9  and  C_15
REMARK    9  A    between atoms: C_11  and  S_12
REMARK   10  A    between atoms: S_12  and  O_13
REMARK   11  A    between atoms: N_17  and  CA_18
REMARK   12  A    between atoms: CA_18  and  C_19
REMARK   13  A    between atoms: C_19  and  O_20
REMARK   14  A    between atoms: C_22  and  O_23
REMARK                            x       y       z     vdW  Elec       q    Type
REMARK                         _______ _______ _______ _____ _____    ______ ____
ROOT
ATOM      1  C   UNK A   1       8.827  -2.813  24.339  0.00  0.00    +0.181 C 
ENDROOT
BRANCH   1   3
ATOM      2  C   UNK A   1       6.564  -2.621  23.349  0.00  0.00    +0.214 C 
ATOM      3  N   UNK A   1       7.783  -3.240  23.407  0.00  0.00    -0.303 N 
ATOM      4  H   UNK A   1       8.065  -3.891  22.677  0.00  0.00    +0.149 HD
ATOM      5  O   UNK A   1       6.264  -1.688  24.088  0.00  0.00    -0.276 OA
BRANCH   2   6
ATOM      6  C   UNK A   1       5.613  -3.185  22.316  0.00  0.00    +0.098 C 
BRANCH   6   7
ATOM      7  C   UNK A   1       4.645  -4.176  22.967  0.00  0.00    +0.039 C 
BRANCH   7   8
ATOM      8  C   UNK A   1       5.207  -5.593  23.119  0.00  0.00    +0.161 C 
BRANCH   8   9
ATOM      9  N   UNK A   1       5.953  -5.690  24.416  0.00  0.00    -0.318 NA
ATOM     10  H   UNK A   1       6.031  -6.682  24.674  0.00  0.00    +0.119 HD
ATOM     11  H   UNK A   1       6.923  -5.410  24.239  0.00  0.00    +0.119 HD
ENDBRANCH   8   9
BRANCH   8  12
ATOM     12  C   UNK A   1       6.175  -5.985  21.982  0.00  0.00    +0.322 C 
ATOM     13  O   UNK A   1       7.391  -6.040  22.073  0.00  0.00    -0.249 OA
BRANCH  12  14
ATOM     14  O   UNK A   1       5.506  -6.241  20.828  0.00  0.00    -0.480 OA
ATOM     15  H   UNK A   1       5.473  -7.228  20.755  0.00  0.00    +0.295 HD
ENDBRANCH  12  14
ENDBRANCH   8  12
ENDBRANCH   7   8
ENDBRANCH   6   7
ENDBRANCH   2   6
ENDBRANCH   1   3
BRANCH   1  16
ATOM     16  C   UNK A   1       9.792  -1.875  23.580  0.00  0.00    +0.235 C 
ATOM     17  N   GLY A   2       9.673  -0.536  23.869  0.00  0.00    -0.303 N 
ATOM     18  H   GLY A   2       8.882  -0.208  24.410  0.00  0.00    +0.149 HD
ATOM     19  O   UNK A   1      10.616  -2.301  22.770  0.00  0.00    -0.274 OA
BRANCH  17  20
ATOM     20  CA  GLY A   2      10.452   0.480  23.172  0.00  0.00    +0.224 C 
BRANCH  20  21
ATOM     21  C   GLY A   2       9.838   1.071  21.906  0.00  0.00    +0.322 C 
ATOM     22  OXT GLY A   2       9.104   0.417  21.173  0.00  0.00    -0.249 OA
BRANCH  21  23
ATOM     23  O   GLY A   2      10.197   2.329  21.593  0.00  0.00    -0.480 OA
ATOM     24  H   GLY A   2      11.062   2.433  21.126  0.00  0.00    +0.295 HD
ENDBRANCH  21  23
ENDBRANCH  20  21
ENDBRANCH  17  20
ENDBRANCH   1  16
BRANCH   1  25
ATOM     25  C   UNK A   1       9.538  -3.983  25.024  0.00  0.00    +0.206 C 
BRANCH  25  26
ATOM     26  S   UNK A   1       8.711  -4.469  26.580  0.00  0.00    -0.004 S 
ATOM     27  O   UNK A   1       7.311  -3.928  26.548  0.00  0.00    -0.167 OA
BRANCH  26  28
ATOM     28  O   UNK A   1       8.557  -6.006  26.145  0.00  0.00    -0.269 OA
ATOM     29  H   UNK A   1       7.592  -6.218  26.148  0.00  0.00    +0.243 HD
ENDBRANCH  26  28
ENDBRANCH  25  26
ENDBRANCH   1  25
TORSDOF 14
ENDMDL
MODEL 3
REMARK VINA RESULT:      -5.7      2.605      6.382
REMARK  Name = 
REMARK  14 active torsions:
REMARK  status: ('A' for Active; 'I' for Inactive)
REMARK    1  A    between atoms: N_1  and  C_2
REMARK    2  A    between atoms: C_2  and  C_4
REMARK    3  A    between atoms: C_2  and  C_22
REMARK    4  A    between atoms: C_4  and  C_5
REMARK    5  A    between atoms: C_5  and  C_6
REMARK    6  A    between atoms: N_8  and  C_9
REMARK    7  A    between atoms: C_9  and  C_11
REMARK    8  A    between atoms: C_9  and  C_15
REMARK    9  A    between atoms: C_11  and  S_12
REMARK   10  A    between atoms: S_12  and  O_13
REMARK   11  A    between atoms: N_17  and  CA_18
REMARK   12  A    between atoms: CA_18  and  C_19
REMARK   13  A    between atoms: C_19  and  O_20
REMARK   14  A    between atoms: C_22  and  O_23
REMARK                            x       y       z     vdW  Elec       q    Type
REMARK                         _______ _______ _______ _____ _____    ______ ____
ROOT
ATOM      1  C   UNK A   1       7.629  -3.354  22.524  0.00  0.00    +0.181 C 
ENDROOT
BRANCH   1   3
ATOM      2  C   UNK A   1       8.929  -3.581  24.621  0.00  0.00    +0.214 C 
ATOM      3  N   UNK A   1       7.734  -3.636  23.957  0.00  0.00    -0.303 N 
ATOM      4  H   UNK A   1       6.859  -3.689  24.474  0.00  0.00    +0.149 HD
ATOM      5  O   UNK A   1       9.986  -3.317  24.055  0.00  0.00    -0.276 OA
BRANCH   2   6
ATOM      6  C   UNK A   1       8.848  -3.887  26.101  0.00  0.00    +0.098 C 
BRANCH   6   7
ATOM      7  C   UNK A   1       8.299  -5.297  26.325  0.00  0.00    +0.039 C 
BRANCH   7   8
ATOM      8  C   UNK A   1       6.916  -5.334  26.983  0.00  0.00    +0.161 C 
BRANCH   8   9
ATOM      9  N   UNK A   1       6.992  -6.145  28.243  0.00  0.00    -0.318 NA
ATOM     10  H   UNK A   1       7.765  -6.815  28.153  0.00  0.00    +0.119 HD
ATOM     11  H   UNK A   1       7.299  -5.521  28.996  0.00  0.00    +0.119 HD
ENDBRANCH   8   9
BRANCH   8  12
ATOM     12  C   UNK A   1       5.832  -5.959  26.080  0.00  0.00    +0.322 C 
ATOM     13  O   UNK A   1       5.534  -5.578  24.960  0.00  0.00    -0.249 OA
BRANCH  12  14
ATOM     14  O   UNK A   1       5.206  -6.993  26.701  0.00  0.00    -0.480 OA
ATOM     15  H   UNK A   1       4.311  -6.650  26.948  0.00  0.00    +0.295 HD
ENDBRANCH  12  14
ENDBRANCH   8  12
ENDBRANCH   7   8
ENDBRANCH   6   7
ENDBRANCH   2   6
ENDBRANCH   1   3
BRANCH   1  16
ATOM     16  C   UNK A   1       7.867  -1.842  22.315  0.00  0.00    +0.235 C 
ATOM     17  N   GLY A   2       9.054  -1.503  21.708  0.00  0.00    -0.303 N 
ATOM     18  H   GLY A   2       9.772  -2.207  21.584  0.00  0.00    +0.149 HD
ATOM     19  O   UNK A   1       7.046  -0.996  22.667  0.00  0.00    -0.274 OA
BRANCH  17  20
ATOM     20  CA  GLY A   2       9.461  -0.116  21.520  0.00  0.00    +0.224 C 
BRANCH  20  21
ATOM     21  C   GLY A   2      10.140   0.569  22.703  0.00  0.00    +0.322 C 
ATOM     22  OXT GLY A   2      10.303   1.783  22.746  0.00  0.00    -0.249 OA
BRANCH  21  23
ATOM     23  O   GLY A   2      10.615  -0.233  23.673  0.00  0.00    -0.480 OA
ATOM     24  H   GLY A   2      11.588  -0.193  23.835  0.00  0.00    +0.295 HD
ENDBRANCH  21  23
ENDBRANCH  20  21
ENDBRANCH  17  20
ENDBRANCH   1  16
BRANCH   1  25
ATOM     25  C   UNK A   1       6.318  -3.849  21.909  0.00  0.00    +0.206 C 
BRANCH  25  26
ATOM     26  S   UNK A   1       6.431  -5.592  21.369  0.00  0.00    -0.004 S 
ATOM     27  O   UNK A   1       7.459  -6.275  22.223  0.00  0.00    -0.167 OA
BRANCH  26  28
ATOM     28  O   UNK A   1       5.026  -6.000  22.030  0.00  0.00    -0.269 OA
ATOM     29  H   UNK A   1       4.681  -6.780  21.531  0.00  0.00    +0.243 HD
ENDBRANCH  26  28
ENDBRANCH  25  26
ENDBRANCH   1  25
TORSDOF 14
ENDMDL
MODEL 4
REMARK VINA RESULT:      -5.6      1.522      1.923
REMARK  Name = 
REMARK  14 active torsions:
REMARK  status: ('A' for Active; 'I' for Inactive)
REMARK    1  A    between atoms: N_1  and  C_2
REMARK    2  A    between atoms: C_2  and  C_4
REMARK    3  A    between atoms: C_2  and  C_22
REMARK    4  A    between atoms: C_4  and  C_5
REMARK    5  A    between atoms: C_5  and  C_6
REMARK    6  A    between atoms: N_8  and  C_9
REMARK    7  A    between atoms: C_9  and  C_11
REMARK    8  A    between atoms: C_9  and  C_15
REMARK    9  A    between atoms: C_11  and  S_12
REMARK   10  A    between atoms: S_12  and  O_13
REMARK   11  A    between atoms: N_17  and  CA_18
REMARK   12  A    between atoms: CA_18  and  C_19
REMARK   13  A    between atoms: C_19  and  O_20
REMARK   14  A    between atoms: C_22  and  O_23
REMARK                            x       y       z     vdW  Elec       q    Type
REMARK                         _______ _______ _______ _____ _____    ______ ____
ROOT
ATOM      1  C   UNK A   1       8.015  -3.297  23.483  0.00  0.00    +0.181 C 
ENDROOT
BRANCH   1   3
ATOM      2  C   UNK A   1       9.413  -1.597  22.346  0.00  0.00    +0.214 C 
ATOM      3  N   UNK A   1       8.179  -2.076  22.694  0.00  0.00    -0.303 N 
ATOM      4  H   UNK A   1       7.340  -1.702  22.257  0.00  0.00    +0.149 HD
ATOM      5  O   UNK A   1      10.455  -2.147  22.693  0.00  0.00    -0.276 OA
BRANCH   2   6
ATOM      6  C   UNK A   1       9.394  -0.331  21.517  0.00  0.00    +0.098 C 
BRANCH   6   7
ATOM      7  C   UNK A   1       8.492   0.719  22.168  0.00  0.00    +0.039 C 
BRANCH   7   8
ATOM      8  C   UNK A   1       9.247   1.915  22.759  0.00  0.00    +0.161 C 
BRANCH   8   9
ATOM      9  N   UNK A   1      10.311   2.349  21.795  0.00  0.00    -0.318 NA
ATOM     10  H   UNK A   1       9.953   3.144  21.251  0.00  0.00    +0.119 HD
ATOM     11  H   UNK A   1      11.078   2.755  22.341  0.00  0.00    +0.119 HD
ENDBRANCH   8   9
BRANCH   8  12
ATOM     12  C   UNK A   1       9.928   1.594  24.107  0.00  0.00    +0.322 C 
ATOM     13  O   UNK A   1      11.080   1.219  24.248  0.00  0.00    -0.249 OA
BRANCH  12  14
ATOM     14  O   UNK A   1       9.067   1.752  25.146  0.00  0.00    -0.480 OA
ATOM     15  H   UNK A   1       8.475   2.502  24.887  0.00  0.00    +0.295 HD
ENDBRANCH  12  14
ENDBRANCH   8  12
ENDBRANCH   7   8
ENDBRANCH   6   7
ENDBRANCH   2   6
ENDBRANCH   1   3
BRANCH   1  16
ATOM     16  C   UNK A   1       6.736  -4.013  22.995  0.00  0.00    +0.235 C 
ATOM     17  N   GLY A   2       6.452  -5.212  23.607  0.00  0.00    -0.303 N 
ATOM     18  H   GLY A   2       7.148  -5.648  24.200  0.00  0.00    +0.149 HD
ATOM     19  O   UNK A   1       6.014  -3.538  22.118  0.00  0.00    -0.274 OA
BRANCH  17  20
ATOM     20  CA  GLY A   2       5.330  -6.046  23.197  0.00  0.00    +0.224 C 
BRANCH  20  21
ATOM     21  C   GLY A   2       4.623  -6.839  24.293  0.00  0.00    +0.322 C 
ATOM     22  OXT GLY A   2       4.919  -6.718  25.477  0.00  0.00    -0.249 OA
BRANCH  21  23
ATOM     23  O   GLY A   2       3.701  -7.732  23.891  0.00  0.00    -0.480 OA
ATOM     24  H   GLY A   2       3.253  -8.248  24.605  0.00  0.00    +0.295 HD
ENDBRANCH  21  23
ENDBRANCH  20  21
ENDBRANCH  17  20
ENDBRANCH   1  16
BRANCH   1  25
ATOM     25  C   UNK A   1       8.026  -3.044  24.993  0.00  0.00    +0.206 C 
BRANCH  25  26
ATOM     26  S   UNK A   1       9.046  -4.271  25.885  0.00  0.00    -0.004 S 
ATOM     27  O   UNK A   1       8.275  -5.558  25.944  0.00  0.00    -0.167 OA
BRANCH  26  28
ATOM     28  O   UNK A   1      10.066  -4.471  24.662  0.00  0.00    -0.269 OA
ATOM     29  H   UNK A   1      10.055  -3.639  24.130  0.00  0.00    +0.243 HD
ENDBRANCH  26  28
ENDBRANCH  25  26
ENDBRANCH   1  25
TORSDOF 14
ENDMDL
MODEL 5
REMARK VINA RESULT:      -5.4      2.177      2.472
REMARK  Name = 
REMARK  14 active torsions:
REMARK  status: ('A' for Active; 'I' for Inactive)
REMARK    1  A    between atoms: N_1  and  C_2
REMARK    2  A    between atoms: C_2  and  C_4
REMARK    3  A    between atoms: C_2  and  C_22
REMARK    4  A    between atoms: C_4  and  C_5
REMARK    5  A    between atoms: C_5  and  C_6
REMARK    6  A    between atoms: N_8  and  C_9
REMARK    7  A    between atoms: C_9  and  C_11
REMARK    8  A    between atoms: C_9  and  C_15
REMARK    9  A    between atoms: C_11  and  S_12
REMARK   10  A    between atoms: S_12  and  O_13
REMARK   11  A    between atoms: N_17  and  CA_18
REMARK   12  A    between atoms: CA_18  and  C_19
REMARK   13  A    between atoms: C_19  and  O_20
REMARK   14  A    between atoms: C_22  and  O_23
REMARK                            x       y       z     vdW  Elec       q    Type
REMARK                         _______ _______ _______ _____ _____    ______ ____
ROOT
ATOM      1  C   UNK A   1       8.870  -2.797  23.950  0.00  0.00    +0.181 C 
ENDROOT
BRANCH   1   3
ATOM      2  C   UNK A   1       9.691  -1.204  22.240  0.00  0.00    +0.214 C 
ATOM      3  N   UNK A   1       8.702  -1.629  23.084  0.00  0.00    -0.303 N 
ATOM      4  H   UNK A   1       7.757  -1.261  22.997  0.00  0.00    +0.149 HD
ATOM      5  O   UNK A   1      10.784  -1.758  22.174  0.00  0.00    -0.276 OA
BRANCH   2   6
ATOM      6  C   UNK A   1       9.339   0.011  21.408  0.00  0.00    +0.098 C 
BRANCH   6   7
ATOM      7  C   UNK A   1       9.999   1.264  21.988  0.00  0.00    +0.039 C 
BRANCH   7   8
ATOM      8  C   UNK A   1       9.147   1.995  23.031  0.00  0.00    +0.161 C 
BRANCH   8   9
ATOM      9  N   UNK A   1       9.348   3.474  22.881  0.00  0.00    -0.318 NA
ATOM     10  H   UNK A   1      10.355   3.660  22.805  0.00  0.00    +0.119 HD
ATOM     11  H   UNK A   1       8.982   3.746  21.963  0.00  0.00    +0.119 HD
ENDBRANCH   8   9
BRANCH   8  12
ATOM     12  C   UNK A   1       9.506   1.612  24.483  0.00  0.00    +0.322 C 
ATOM     13  O   UNK A   1      10.370   0.816  24.814  0.00  0.00    -0.249 OA
BRANCH  12  14
ATOM     14  O   UNK A   1       8.709   2.254  25.376  0.00  0.00    -0.480 OA
ATOM     15  H   UNK A   1       7.804   2.245  24.976  0.00  0.00    +0.295 HD
ENDBRANCH  12  14
ENDBRANCH   8  12
ENDBRANCH   7   8
ENDBRANCH   6   7
ENDBRANCH   2   6
ENDBRANCH   1   3
BRANCH   1  16
ATOM     16  C   UNK A   1       7.734  -3.796  23.631  0.00  0.00    +0.235 C 
ATOM     17  N   GLY A   2       6.983  -3.508  22.515  0.00  0.00    -0.303 N 
ATOM     18  H   GLY A   2       7.081  -2.607  22.064  0.00  0.00    +0.149 HD
ATOM     19  O   UNK A   1       7.518  -4.786  24.330  0.00  0.00    -0.274 OA
BRANCH  17  20
ATOM     20  CA  GLY A   2       5.824  -4.306  22.133  0.00  0.00    +0.224 C 
BRANCH  20  21
ATOM     21  C   GLY A   2       6.094  -5.572  21.325  0.00  0.00    +0.322 C 
ATOM     22  OXT GLY A   2       5.997  -5.597  20.103  0.00  0.00    -0.249 OA
BRANCH  21  23
ATOM     23  O   GLY A   2       6.381  -6.684  22.026  0.00  0.00    -0.480 OA
ATOM     24  H   GLY A   2       7.231  -7.134  21.803  0.00  0.00    +0.295 HD
ENDBRANCH  21  23
ENDBRANCH  20  21
ENDBRANCH  17  20
ENDBRANCH   1  16
BRANCH   1  25
ATOM     25  C   UNK A   1       8.957  -2.437  25.435  0.00  0.00    +0.206 C 
BRANCH  25  26
ATOM     26  S   UNK A   1       7.627  -1.288  25.938  0.00  0.00    -0.004 S 
ATOM     27  O   UNK A   1       6.693  -2.032  26.847  0.00  0.00    -0.167 OA
BRANCH  26  28
ATOM     28  O   UNK A   1       8.574  -0.456  26.931  0.00  0.00    -0.269 OA
ATOM     29  H   UNK A   1       8.903   0.332  26.433  0.00  0.00    +0.243 HD
ENDBRANCH  26  28
ENDBRANCH  25  26
ENDBRANCH   1  25
TORSDOF 14
ENDMDL
MODEL 6
REMARK VINA RESULT:      -5.4      1.841      2.090
REMARK  Name = 
REMARK  14 active torsions:
REMARK  status: ('A' for Active; 'I' for Inactive)
REMARK    1  A    between atoms: N_1  and  C_2
REMARK    2  A    between atoms: C_2  and  C_4
REMARK    3  A    between atoms: C_2  and  C_22
REMARK    4  A    between atoms: C_4  and  C_5
REMARK    5  A    between atoms: C_5  and  C_6
REMARK    6  A    between atoms: N_8  and  C_9
REMARK    7  A    between atoms: C_9  and  C_11
REMARK    8  A    between atoms: C_9  and  C_15
REMARK    9  A    between atoms: C_11  and  S_12
REMARK   10  A    between atoms: S_12  and  O_13
REMARK   11  A    between atoms: N_17  and  CA_18
REMARK   12  A    between atoms: CA_18  and  C_19
REMARK   13  A    between atoms: C_19  and  O_20
REMARK   14  A    between atoms: C_22  and  O_23
REMARK                            x       y       z     vdW  Elec       q    Type
REMARK                         _______ _______ _______ _____ _____    ______ ____
ROOT
ATOM      1  C   UNK A   1       8.809  -2.882  24.616  0.00  0.00    +0.181 C 
ENDROOT
BRANCH   1   3
ATOM      2  C   UNK A   1      10.142  -1.165  23.429  0.00  0.00    +0.214 C 
ATOM      3  N   UNK A   1       9.318  -1.519  24.462  0.00  0.00    -0.303 N 
ATOM      4  H   UNK A   1       8.885  -0.805  25.043  0.00  0.00    +0.149 HD
ATOM      5  O   UNK A   1      10.524  -1.971  22.585  0.00  0.00    -0.276 OA
BRANCH   2   6
ATOM      6  C   UNK A   1      10.560   0.290  23.418  0.00  0.00    +0.098 C 
BRANCH   6   7
ATOM      7  C   UNK A   1       9.382   1.186  23.805  0.00  0.00    +0.039 C 
BRANCH   7   8
ATOM      8  C   UNK A   1       9.245   2.447  22.945  0.00  0.00    +0.161 C 
BRANCH   8   9
ATOM      9  N   UNK A   1       9.918   2.217  21.624  0.00  0.00    -0.318 NA
ATOM     10  H   UNK A   1      10.933   2.172  21.779  0.00  0.00    +0.119 HD
ATOM     11  H   UNK A   1       9.679   1.270  21.314  0.00  0.00    +0.119 HD
ENDBRANCH   8   9
BRANCH   8  12
ATOM     12  C   UNK A   1       9.883   3.694  23.593  0.00  0.00    +0.322 C 
ATOM     13  O   UNK A   1       9.355   4.408  24.430  0.00  0.00    -0.249 OA
BRANCH  12  14
ATOM     14  O   UNK A   1      11.122   3.934  23.091  0.00  0.00    -0.480 OA
ATOM     15  H   UNK A   1      10.980   4.168  22.139  0.00  0.00    +0.295 HD
ENDBRANCH  12  14
ENDBRANCH   8  12
ENDBRANCH   7   8
ENDBRANCH   6   7
ENDBRANCH   2   6
ENDBRANCH   1   3
BRANCH   1  16
ATOM     16  C   UNK A   1       7.481  -2.989  23.832  0.00  0.00    +0.235 C 
ATOM     17  N   GLY A   2       7.225  -4.211  23.257  0.00  0.00    -0.303 N 
ATOM     18  H   GLY A   2       7.957  -4.910  23.219  0.00  0.00    +0.149 HD
ATOM     19  O   UNK A   1       6.702  -2.041  23.733  0.00  0.00    -0.274 OA
BRANCH  17  20
ATOM     20  CA  GLY A   2       6.058  -4.443  22.415  0.00  0.00    +0.224 C 
BRANCH  20  21
ATOM     21  C   GLY A   2       6.099  -5.663  21.499  0.00  0.00    +0.322 C 
ATOM     22  OXT GLY A   2       5.974  -5.569  20.283  0.00  0.00    -0.249 OA
BRANCH  21  23
ATOM     23  O   GLY A   2       6.212  -6.862  22.099  0.00  0.00    -0.480 OA
ATOM     24  H   GLY A   2       6.800  -7.520  21.654  0.00  0.00    +0.295 HD
ENDBRANCH  21  23
ENDBRANCH  20  21
ENDBRANCH  17  20
ENDBRANCH   1  16
BRANCH   1  25
ATOM     25  C   UNK A   1       8.682  -3.314  26.079  0.00  0.00    +0.206 C 
BRANCH  25  26
ATOM     26  S   UNK A   1       9.013  -5.099  26.296  0.00  0.00    -0.004 S 
ATOM     27  O   UNK A   1       7.742  -5.844  26.012  0.00  0.00    -0.167 OA
BRANCH  26  28
ATOM     28  O   UNK A   1       9.859  -5.216  24.937  0.00  0.00    -0.269 OA
ATOM     29  H   UNK A   1      10.364  -6.064  24.976  0.00  0.00    +0.243 HD
ENDBRANCH  26  28
ENDBRANCH  25  26
ENDBRANCH   1  25
TORSDOF 14
ENDMDL
MODEL 7
REMARK VINA RESULT:      -5.4      2.801      6.675
REMARK  Name = 
REMARK  14 active torsions:
REMARK  status: ('A' for Active; 'I' for Inactive)
REMARK    1  A    between atoms: N_1  and  C_2
REMARK    2  A    between atoms: C_2  and  C_4
REMARK    3  A    between atoms: C_2  and  C_22
REMARK    4  A    between atoms: C_4  and  C_5
REMARK    5  A    between atoms: C_5  and  C_6
REMARK    6  A    between atoms: N_8  and  C_9
REMARK    7  A    between atoms: C_9  and  C_11
REMARK    8  A    between atoms: C_9  and  C_15
REMARK    9  A    between atoms: C_11  and  S_12
REMARK   10  A    between atoms: S_12  and  O_13
REMARK   11  A    between atoms: N_17  and  CA_18
REMARK   12  A    between atoms: CA_18  and  C_19
REMARK   13  A    between atoms: C_19  and  O_20
REMARK   14  A    between atoms: C_22  and  O_23
REMARK                            x       y       z     vdW  Elec       q    Type
REMARK                         _______ _______ _______ _____ _____    ______ ____
ROOT
ATOM      1  C   UNK A   1       8.179  -3.328  23.169  0.00  0.00    +0.181 C 
ENDROOT
BRANCH   1   3
ATOM      2  C   UNK A   1       8.780  -4.609  25.203  0.00  0.00    +0.214 C 
ATOM      3  N   UNK A   1       8.009  -3.663  24.584  0.00  0.00    -0.303 N 
ATOM      4  H   UNK A   1       7.426  -3.035  25.132  0.00  0.00    +0.149 HD
ATOM      5  O   UNK A   1       9.642  -5.249  24.607  0.00  0.00    -0.276 OA
BRANCH   2   6
ATOM      6  C   UNK A   1       8.476  -4.816  26.671  0.00  0.00    +0.098 C 
BRANCH   6   7
ATOM      7  C   UNK A   1       7.016  -4.471  26.968  0.00  0.00    +0.039 C 
BRANCH   7   8
ATOM      8  C   UNK A   1       6.084  -5.687  27.027  0.00  0.00    +0.161 C 
BRANCH   8   9
ATOM      9  N   UNK A   1       4.720  -5.285  26.549  0.00  0.00    -0.318 NA
ATOM     10  H   UNK A   1       4.042  -5.985  26.872  0.00  0.00    +0.119 HD
ATOM     11  H   UNK A   1       4.451  -4.435  27.055  0.00  0.00    +0.119 HD
ENDBRANCH   8   9
BRANCH   8  12
ATOM     12  C   UNK A   1       5.937  -6.268  28.449  0.00  0.00    +0.322 C 
ATOM     13  O   UNK A   1       6.268  -5.709  29.482  0.00  0.00    -0.249 OA
BRANCH  12  14
ATOM     14  O   UNK A   1       5.413  -7.521  28.420  0.00  0.00    -0.480 OA
ATOM     15  H   UNK A   1       5.597  -7.863  27.509  0.00  0.00    +0.295 HD
ENDBRANCH  12  14
ENDBRANCH   8  12
ENDBRANCH   7   8
ENDBRANCH   6   7
ENDBRANCH   2   6
ENDBRANCH   1   3
BRANCH   1  16
ATOM     16  C   UNK A   1       8.928  -1.978  23.085  0.00  0.00    +0.235 C 
ATOM     17  N   GLY A   2       8.975  -1.400  21.838  0.00  0.00    -0.303 N 
ATOM     18  H   GLY A   2       8.686  -1.933  21.027  0.00  0.00    +0.149 HD
ATOM     19  O   UNK A   1       9.445  -1.454  24.071  0.00  0.00    -0.274 OA
BRANCH  17  20
ATOM     20  CA  GLY A   2       9.717  -0.172  21.580  0.00  0.00    +0.224 C 
BRANCH  20  21
ATOM     21  C   GLY A   2       8.947   1.140  21.714  0.00  0.00    +0.322 C 
ATOM     22  OXT GLY A   2       7.758   1.169  22.010  0.00  0.00    -0.249 OA
BRANCH  21  23
ATOM     23  O   GLY A   2       9.622   2.266  21.423  0.00  0.00    -0.480 OA
ATOM     24  H   GLY A   2       9.757   2.459  20.464  0.00  0.00    +0.295 HD
ENDBRANCH  21  23
ENDBRANCH  20  21
ENDBRANCH  17  20
ENDBRANCH   1  16
BRANCH   1  25
ATOM     25  C   UNK A   1       6.864  -3.338  22.387  0.00  0.00    +0.206 C 
BRANCH  25  26
ATOM     26  S   UNK A   1       6.231  -5.035  22.136  0.00  0.00    -0.004 S 
ATOM     27  O   UNK A   1       7.386  -5.983  22.272  0.00  0.00    -0.167 OA
BRANCH  26  28
ATOM     28  O   UNK A   1       5.499  -5.088  23.562  0.00  0.00    -0.269 OA
ATOM     29  H   UNK A   1       4.527  -5.020  23.398  0.00  0.00    +0.243 HD
ENDBRANCH  26  28
ENDBRANCH  25  26
ENDBRANCH   1  25
TORSDOF 14
ENDMDL
MODEL 8
REMARK VINA RESULT:      -5.3      2.208      3.849
REMARK  Name = 
REMARK  14 active torsions:
REMARK  status: ('A' for Active; 'I' for Inactive)
REMARK    1  A    between atoms: N_1  and  C_2
REMARK    2  A    between atoms: C_2  and  C_4
REMARK    3  A    between atoms: C_2  and  C_22
REMARK    4  A    between atoms: C_4  and  C_5
REMARK    5  A    between atoms: C_5  and  C_6
REMARK    6  A    between atoms: N_8  and  C_9
REMARK    7  A    between atoms: C_9  and  C_11
REMARK    8  A    between atoms: C_9  and  C_15
REMARK    9  A    between atoms: C_11  and  S_12
REMARK   10  A    between atoms: S_12  and  O_13
REMARK   11  A    between atoms: N_17  and  CA_18
REMARK   12  A    between atoms: CA_18  and  C_19
REMARK   13  A    between atoms: C_19  and  O_20
REMARK   14  A    between atoms: C_22  and  O_23
REMARK                            x       y       z     vdW  Elec       q    Type
REMARK                         _______ _______ _______ _____ _____    ______ ____
ROOT
ATOM      1  C   UNK A   1       7.509  -3.615  22.796  0.00  0.00    +0.181 C 
ENDROOT
BRANCH   1   3
ATOM      2  C   UNK A   1       8.072  -1.210  22.607  0.00  0.00    +0.214 C 
ATOM      3  N   UNK A   1       8.302  -2.511  22.253  0.00  0.00    -0.303 N 
ATOM      4  H   UNK A   1       9.148  -2.766  21.750  0.00  0.00    +0.149 HD
ATOM      5  O   UNK A   1       7.175  -0.886  23.381  0.00  0.00    -0.276 OA
BRANCH   2   6
ATOM      6  C   UNK A   1       8.997  -0.202  21.960  0.00  0.00    +0.098 C 
BRANCH   6   7
ATOM      7  C   UNK A   1       8.437   1.213  22.116  0.00  0.00    +0.039 C 
BRANCH   7   8
ATOM      8  C   UNK A   1       9.404   2.200  22.779  0.00  0.00    +0.161 C 
BRANCH   8   9
ATOM      9  N   UNK A   1      10.539   2.482  21.839  0.00  0.00    -0.318 NA
ATOM     10  H   UNK A   1      10.646   3.500  21.753  0.00  0.00    +0.119 HD
ATOM     11  H   UNK A   1      11.405   2.186  22.301  0.00  0.00    +0.119 HD
ENDBRANCH   8   9
BRANCH   8  12
ATOM     12  C   UNK A   1      10.000   1.669  24.100  0.00  0.00    +0.322 C 
ATOM     13  O   UNK A   1      11.122   1.209  24.238  0.00  0.00    -0.249 OA
BRANCH  12  14
ATOM     14  O   UNK A   1       9.100   1.745  25.115  0.00  0.00    -0.480 OA
ATOM     15  H   UNK A   1       9.572   2.208  25.851  0.00  0.00    +0.295 HD
ENDBRANCH  12  14
ENDBRANCH   8  12
ENDBRANCH   7   8
ENDBRANCH   6   7
ENDBRANCH   2   6
ENDBRANCH   1   3
BRANCH   1  16
ATOM     16  C   UNK A   1       8.074  -3.969  24.190  0.00  0.00    +0.235 C 
ATOM     17  N   GLY A   2       7.326  -3.542  25.263  0.00  0.00    -0.303 N 
ATOM     18  H   GLY A   2       6.563  -2.892  25.115  0.00  0.00    +0.149 HD
ATOM     19  O   UNK A   1       9.123  -4.596  24.331  0.00  0.00    -0.274 OA
BRANCH  17  20
ATOM     20  CA  GLY A   2       7.771  -3.723  26.639  0.00  0.00    +0.224 C 
BRANCH  20  21
ATOM     21  C   GLY A   2       7.482  -5.075  27.285  0.00  0.00    +0.322 C 
ATOM     22  OXT GLY A   2       6.668  -5.202  28.193  0.00  0.00    -0.249 OA
BRANCH  21  23
ATOM     23  O   GLY A   2       8.215  -6.117  26.854  0.00  0.00    -0.480 OA
ATOM     24  H   GLY A   2       8.614  -6.690  27.553  0.00  0.00    +0.295 HD
ENDBRANCH  21  23
ENDBRANCH  20  21
ENDBRANCH  17  20
ENDBRANCH   1  16
BRANCH   1  25
ATOM     25  C   UNK A   1       7.429  -4.819  21.854  0.00  0.00    +0.206 C 
BRANCH  25  26
ATOM     26  S   UNK A   1       5.821  -5.679  21.979  0.00  0.00    -0.004 S 
ATOM     27  O   UNK A   1       4.763  -4.646  22.235  0.00  0.00    -0.167 OA
BRANCH  26  28
ATOM     28  O   UNK A   1       5.730  -5.964  20.402  0.00  0.00    -0.269 OA
ATOM     29  H   UNK A   1       6.481  -5.487  19.972  0.00  0.00    +0.243 HD
ENDBRANCH  26  28
ENDBRANCH  25  26
ENDBRANCH   1  25
TORSDOF 14
ENDMDL
MODEL 9
REMARK VINA RESULT:      -5.3      2.228      4.230
REMARK  Name = 
REMARK  14 active torsions:
REMARK  status: ('A' for Active; 'I' for Inactive)
REMARK    1  A    between atoms: N_1  and  C_2
REMARK    2  A    between atoms: C_2  and  C_4
REMARK    3  A    between atoms: C_2  and  C_22
REMARK    4  A    between atoms: C_4  and  C_5
REMARK    5  A    between atoms: C_5  and  C_6
REMARK    6  A    between atoms: N_8  and  C_9
REMARK    7  A    between atoms: C_9  and  C_11
REMARK    8  A    between atoms: C_9  and  C_15
REMARK    9  A    between atoms: C_11  and  S_12
REMARK   10  A    between atoms: S_12  and  O_13
REMARK   11  A    between atoms: N_17  and  CA_18
REMARK   12  A    between atoms: CA_18  and  C_19
REMARK   13  A    between atoms: C_19  and  O_20
REMARK   14  A    between atoms: C_22  and  O_23
REMARK                            x       y       z     vdW  Elec       q    Type
REMARK                         _______ _______ _______ _____ _____    ______ ____
ROOT
ATOM      1  C   UNK A   1       5.685  -2.113  24.425  0.00  0.00    +0.181 C 
ENDROOT
BRANCH   1   3
ATOM      2  C   UNK A   1       6.256   0.255  23.971  0.00  0.00    +0.214 C 
ATOM      3  N   UNK A   1       6.478  -1.078  23.759  0.00  0.00    -0.303 N 
ATOM      4  H   UNK A   1       7.319  -1.390  23.280  0.00  0.00    +0.149 HD
ATOM      5  O   UNK A   1       5.366   0.665  24.712  0.00  0.00    -0.276 OA
BRANCH   2   6
ATOM      6  C   UNK A   1       7.179   1.183  23.211  0.00  0.00    +0.098 C 
BRANCH   6   7
ATOM      7  C   UNK A   1       8.577   1.172  23.833  0.00  0.00    +0.039 C 
BRANCH   7   8
ATOM      8  C   UNK A   1       9.700   0.835  22.846  0.00  0.00    +0.161 C 
BRANCH   8   9
ATOM      9  N   UNK A   1       9.733   1.876  21.766  0.00  0.00    -0.318 NA
ATOM     10  H   UNK A   1       9.939   2.786  22.196  0.00  0.00    +0.119 HD
ATOM     11  H   UNK A   1      10.556   1.692  21.183  0.00  0.00    +0.119 HD
ENDBRANCH   8   9
BRANCH   8  12
ATOM     12  C   UNK A   1       9.521  -0.543  22.174  0.00  0.00    +0.322 C 
ATOM     13  O   UNK A   1       9.390  -0.736  20.976  0.00  0.00    -0.249 OA
BRANCH  12  14
ATOM     14  O   UNK A   1       9.495  -1.542  23.093  0.00  0.00    -0.480 OA
ATOM     15  H   UNK A   1      10.430  -1.863  23.160  0.00  0.00    +0.295 HD
ENDBRANCH  12  14
ENDBRANCH   8  12
ENDBRANCH   7   8
ENDBRANCH   6   7
ENDBRANCH   2   6
ENDBRANCH   1   3
BRANCH   1  16
ATOM     16  C   UNK A   1       6.543  -2.717  25.559  0.00  0.00    +0.235 C 
ATOM     17  N   GLY A   2       7.894  -2.788  25.312  0.00  0.00    -0.303 N 
ATOM     18  H   GLY A   2       8.242  -2.615  24.376  0.00  0.00    +0.149 HD
ATOM     19  O   UNK A   1       6.049  -3.105  26.617  0.00  0.00    -0.274 OA
BRANCH  17  20
ATOM     20  CA  GLY A   2       8.823  -3.411  26.247  0.00  0.00    +0.224 C 
BRANCH  20  21
ATOM     21  C   GLY A   2       9.255  -4.842  25.940  0.00  0.00    +0.322 C 
ATOM     22  OXT GLY A   2      10.125  -5.095  25.114  0.00  0.00    -0.249 OA
BRANCH  21  23
ATOM     23  O   GLY A   2       8.585  -5.822  26.571  0.00  0.00    -0.480 OA
ATOM     24  H   GLY A   2       8.689  -5.860  27.553  0.00  0.00    +0.295 HD
ENDBRANCH  21  23
ENDBRANCH  20  21
ENDBRANCH  17  20
ENDBRANCH   1  16
BRANCH   1  25
ATOM     25  C   UNK A   1       5.137  -3.165  23.458  0.00  0.00    +0.206 C 
BRANCH  25  26
ATOM     26  S   UNK A   1       6.143  -3.285  21.936  0.00  0.00    -0.004 S 
ATOM     27  O   UNK A   1       7.557  -3.584  22.340  0.00  0.00    -0.167 OA
BRANCH  26  28
ATOM     28  O   UNK A   1       5.535  -4.710  21.518  0.00  0.00    -0.269 OA
ATOM     29  H   UNK A   1       4.625  -4.552  21.170  0.00  0.00    +0.243 HD
ENDBRANCH  26  28
ENDBRANCH  25  26
ENDBRANCH   1  25
TORSDOF 14
ENDMDL
