MODEL 1
REMARK VINA RESULT:      -7.6      0.000      0.000
REMARK  Name = 
REMARK  9 active torsions:
REMARK  status: ('A' for Active; 'I' for Inactive)
REMARK    1  A    between atoms: O_1  and  C_2
REMARK    2  A    between atoms: C_5  and  C_8
REMARK    3  A    between atoms: N_10  and  C_11
REMARK    4  A    between atoms: C_18  and  O_20
REMARK    5  A    between atoms: O_20  and  C_21
REMARK    6  A    between atoms: C_21  and  C_23
REMARK    7  A    between atoms: C_26  and  C_29
REMARK    8  A    between atoms: C_29  and  C_31
REMARK    9  A    between atoms: C_36  and  O_37
REMARK                            x       y       z     vdW  Elec       q    Type
REMARK                         _______ _______ _______ _____ _____    ______ ____
ROOT
ATOM      1  C   UNL     1       6.031  -2.571  23.714  0.00  0.00    +0.128 C 
ATOM      2  C   UNL     1       7.201  -3.480  24.186  0.00  0.00    +0.198 C 
ATOM      3  C   UNL     1       6.780  -4.955  24.158  0.00  0.00    +0.048 C 
ATOM      4  C   UNL     1       6.931  -5.660  22.808  0.00  0.00    +0.019 C 
ATOM      5  C   UNL     1       6.560  -4.856  21.563  0.00  0.00    +0.081 C 
ATOM      6  N   UNL     1       5.350  -4.044  21.718  0.00  0.00    -0.314 NA
ATOM      7  H   UNL     1       4.943  -3.929  20.787  0.00  0.00    +0.122 HD
ATOM      8  C   UNL     1       5.678  -2.691  22.208  0.00  0.00    +0.106 C 
ENDROOT
BRANCH   1  10
ATOM      9  C   UNL     1       5.452  -0.540  25.079  0.00  0.00    +0.244 C 
ATOM     10  N   UNL     1       6.223  -1.164  24.125  0.00  0.00    -0.304 N 
ATOM     11  H   UNL     1       7.013  -0.673  23.727  0.00  0.00    +0.149 HD
ATOM     12  O   UNL     1       4.567  -1.105  25.721  0.00  0.00    -0.270 OA
BRANCH   9  16
ATOM     13  C   UNL     1       6.488   3.493  26.042  0.00  0.00    +0.117 A 
ATOM     14  C   UNL     1       5.186   3.221  25.630  0.00  0.00    +0.046 A 
ATOM     15  C   UNL     1       4.813   1.912  25.307  0.00  0.00    +0.016 A 
ATOM     16  C   UNL     1       5.757   0.881  25.393  0.00  0.00    +0.037 A 
ATOM     17  C   UNL     1       7.060   1.172  25.826  0.00  0.00    +0.016 A 
ATOM     18  C   UNL     1       7.429   2.477  26.148  0.00  0.00    +0.046 A 
BRANCH  13  19
ATOM     19  O   UNL     1       6.806   4.783  26.347  0.00  0.00    -0.507 OA
ATOM     20  H   UNL     1       7.597   4.783  26.910  0.00  0.00    +0.292 HD
ENDBRANCH  13  19
ENDBRANCH   9  16
ENDBRANCH   1  10
BRANCH   2  21
ATOM     21  O   UNL     1       8.349  -3.287  23.344  0.00  0.00    -0.456 OA
BRANCH  21  22
ATOM     22  C   UNL     1       9.541  -2.972  23.896  0.00  0.00    +0.340 C 
ATOM     23  O   UNL     1      10.306  -3.742  24.450  0.00  0.00    -0.245 OA
BRANCH  22  24
ATOM     24  C   UNL     1       9.795  -1.512  23.698  0.00  0.00    +0.059 A 
ATOM     25  C   UNL     1       9.739  -0.931  22.424  0.00  0.00    +0.015 A 
ATOM     26  C   UNL     1       9.961   0.434  22.251  0.00  0.00    +0.012 A 
ATOM     27  C   UNL     1      10.120   1.271  23.357  0.00  0.00    +0.022 A 
ATOM     28  C   UNL     1      10.245   0.691  24.629  0.00  0.00    +0.012 A 
ATOM     29  C   UNL     1      10.094  -0.697  24.797  0.00  0.00    +0.015 A 
BRANCH  27  30
ATOM     30  C   UNL     1      10.137   2.762  23.215  0.00  0.00    +0.197 C 
ATOM     31  O   UNL     1      11.216   3.351  23.286  0.00  0.00    -0.287 OA
BRANCH  30  32
ATOM     32  C   UNL     1       8.893   3.553  22.944  0.00  0.00    +0.064 A 
ATOM     33  C   UNL     1       8.765   4.933  23.172  0.00  0.00    +0.128 A 
ATOM     34  C   UNL     1       7.532   5.575  23.023  0.00  0.00    +0.046 A 
ATOM     35  C   UNL     1       6.427   4.857  22.571  0.00  0.00    +0.004 A 
ATOM     36  C   UNL     1       6.557   3.507  22.256  0.00  0.00    +0.001 A 
ATOM     37  C   UNL     1       7.781   2.856  22.447  0.00  0.00    +0.015 A 
BRANCH  33  38
ATOM     38  O   UNL     1       9.850   5.691  23.515  0.00  0.00    -0.506 OA
ATOM     39  H   UNL     1      10.548   5.595  22.846  0.00  0.00    +0.292 HD
ENDBRANCH  33  38
ENDBRANCH  30  32
ENDBRANCH  27  30
ENDBRANCH  22  24
ENDBRANCH  21  22
ENDBRANCH   2  21
TORSDOF 9
ENDMDL
MODEL 2
REMARK VINA RESULT:      -7.6      1.512      2.259
REMARK  Name = 
REMARK  9 active torsions:
REMARK  status: ('A' for Active; 'I' for Inactive)
REMARK    1  A    between atoms: O_1  and  C_2
REMARK    2  A    between atoms: C_5  and  C_8
REMARK    3  A    between atoms: N_10  and  C_11
REMARK    4  A    between atoms: C_18  and  O_20
REMARK    5  A    between atoms: O_20  and  C_21
REMARK    6  A    between atoms: C_21  and  C_23
REMARK    7  A    between atoms: C_26  and  C_29
REMARK    8  A    between atoms: C_29  and  C_31
REMARK    9  A    between atoms: C_36  and  O_37
REMARK                            x       y       z     vdW  Elec       q    Type
REMARK                         _______ _______ _______ _____ _____    ______ ____
ROOT
ATOM      1  C   UNL     1       6.349  -2.112  23.831  0.00  0.00    +0.128 C 
ATOM      2  C   UNL     1       7.826  -2.387  24.236  0.00  0.00    +0.198 C 
ATOM      3  C   UNL     1       7.929  -3.691  25.039  0.00  0.00    +0.048 C 
ATOM      4  C   UNL     1       8.040  -4.971  24.209  0.00  0.00    +0.019 C 
ATOM      5  C   UNL     1       7.183  -5.054  22.946  0.00  0.00    +0.081 C 
ATOM      6  N   UNL     1       5.826  -4.526  23.113  0.00  0.00    -0.314 NA
ATOM      7  H   UNL     1       5.231  -5.010  22.437  0.00  0.00    +0.122 HD
ATOM      8  C   UNL     1       5.769  -3.090  22.775  0.00  0.00    +0.106 C 
ENDROOT
BRANCH   1  10
ATOM      9  C   UNL     1       6.072   0.331  24.362  0.00  0.00    +0.244 C 
ATOM     10  N   UNL     1       6.134  -0.700  23.451  0.00  0.00    -0.304 N 
ATOM     11  H   UNL     1       6.106  -0.490  22.462  0.00  0.00    +0.149 HD
ATOM     12  O   UNL     1       6.244   0.185  25.571  0.00  0.00    -0.270 OA
BRANCH   9  16
ATOM     13  C   UNL     1       5.562   4.250  22.738  0.00  0.00    +0.117 A 
ATOM     14  C   UNL     1       4.856   3.910  23.888  0.00  0.00    +0.046 A 
ATOM     15  C   UNL     1       4.999   2.635  24.446  0.00  0.00    +0.016 A 
ATOM     16  C   UNL     1       5.849   1.704  23.838  0.00  0.00    +0.037 A 
ATOM     17  C   UNL     1       6.565   2.070  22.687  0.00  0.00    +0.016 A 
ATOM     18  C   UNL     1       6.422   3.341  22.133  0.00  0.00    +0.046 A 
BRANCH  13  19
ATOM     19  O   UNL     1       5.391   5.503  22.229  0.00  0.00    -0.507 OA
ATOM     20  H   UNL     1       4.971   6.059  22.906  0.00  0.00    +0.292 HD
ENDBRANCH  13  19
ENDBRANCH   9  16
ENDBRANCH   1  10
BRANCH   2  21
ATOM     21  O   UNL     1       8.653  -2.472  23.064  0.00  0.00    -0.456 OA
BRANCH  21  22
ATOM     22  C   UNL     1       9.915  -1.991  23.097  0.00  0.00    +0.340 C 
ATOM     23  O   UNL     1      10.939  -2.642  22.986  0.00  0.00    -0.245 OA
BRANCH  22  24
ATOM     24  C   UNL     1       9.861  -0.506  23.269  0.00  0.00    +0.059 A 
ATOM     25  C   UNL     1       9.782   0.075  24.541  0.00  0.00    +0.015 A 
ATOM     26  C   UNL     1       9.748   1.461  24.692  0.00  0.00    +0.012 A 
ATOM     27  C   UNL     1       9.921   2.297  23.588  0.00  0.00    +0.022 A 
ATOM     28  C   UNL     1       9.935   1.727  22.305  0.00  0.00    +0.012 A 
ATOM     29  C   UNL     1       9.894   0.331  22.146  0.00  0.00    +0.015 A 
BRANCH  27  30
ATOM     30  C   UNL     1      10.113   3.774  23.747  0.00  0.00    +0.197 C 
ATOM     31  O   UNL     1      11.166   4.279  23.360  0.00  0.00    -0.287 OA
BRANCH  30  32
ATOM     32  C   UNL     1       9.047   4.661  24.316  0.00  0.00    +0.064 A 
ATOM     33  C   UNL     1       8.702   5.920  23.797  0.00  0.00    +0.128 A 
ATOM     34  C   UNL     1       7.793   6.748  24.463  0.00  0.00    +0.046 A 
ATOM     35  C   UNL     1       7.159   6.294  25.617  0.00  0.00    +0.004 A 
ATOM     36  C   UNL     1       7.424   5.013  26.097  0.00  0.00    +0.001 A 
ATOM     37  C   UNL     1       8.366   4.203  25.454  0.00  0.00    +0.015 A 
BRANCH  33  38
ATOM     38  O   UNL     1       9.224   6.357  22.611  0.00  0.00    -0.506 OA
ATOM     39  H   UNL     1       8.570   6.247  21.900  0.00  0.00    +0.292 HD
ENDBRANCH  33  38
ENDBRANCH  30  32
ENDBRANCH  27  30
ENDBRANCH  22  24
ENDBRANCH  21  22
ENDBRANCH   2  21
TORSDOF 9
ENDMDL
MODEL 3
REMARK VINA RESULT:      -7.5      2.920      8.136
REMARK  Name = 
REMARK  9 active torsions:
REMARK  status: ('A' for Active; 'I' for Inactive)
REMARK    1  A    between atoms: O_1  and  C_2
REMARK    2  A    between atoms: C_5  and  C_8
REMARK    3  A    between atoms: N_10  and  C_11
REMARK    4  A    between atoms: C_18  and  O_20
REMARK    5  A    between atoms: O_20  and  C_21
REMARK    6  A    between atoms: C_21  and  C_23
REMARK    7  A    between atoms: C_26  and  C_29
REMARK    8  A    between atoms: C_29  and  C_31
REMARK    9  A    between atoms: C_36  and  O_37
REMARK                            x       y       z     vdW  Elec       q    Type
REMARK                         _______ _______ _______ _____ _____    ______ ____
ROOT
ATOM      1  C   UNL     1       9.145  -0.360  22.575  0.00  0.00    +0.128 C 
ATOM      2  C   UNL     1       9.382   0.104  24.040  0.00  0.00    +0.198 C 
ATOM      3  C   UNL     1      10.695   0.891  24.148  0.00  0.00    +0.048 C 
ATOM      4  C   UNL     1      10.603   2.381  23.813  0.00  0.00    +0.019 C 
ATOM      5  C   UNL     1       9.709   2.771  22.637  0.00  0.00    +0.081 C 
ATOM      6  N   UNL     1       9.815   1.871  21.485  0.00  0.00    -0.314 NA
ATOM      7  H   UNL     1       9.577   2.417  20.654  0.00  0.00    +0.122 HD
ATOM      8  C   UNL     1       8.825   0.779  21.572  0.00  0.00    +0.106 C 
ENDROOT
BRANCH   1  10
ATOM      9  C   UNL     1       8.430  -2.753  22.872  0.00  0.00    +0.244 C 
ATOM     10  N   UNL     1       8.157  -1.457  22.496  0.00  0.00    -0.304 N 
ATOM     11  H   UNL     1       7.217  -1.209  22.219  0.00  0.00    +0.149 HD
ATOM     12  O   UNL     1       9.501  -3.113  23.360  0.00  0.00    -0.270 OA
BRANCH   9  16
ATOM     13  C   UNL     1       5.180  -5.504  22.512  0.00  0.00    +0.117 A 
ATOM     14  C   UNL     1       6.478  -6.009  22.548  0.00  0.00    +0.046 A 
ATOM     15  C   UNL     1       7.565  -5.136  22.664  0.00  0.00    +0.016 A 
ATOM     16  C   UNL     1       7.341  -3.756  22.738  0.00  0.00    +0.037 A 
ATOM     17  C   UNL     1       6.025  -3.267  22.716  0.00  0.00    +0.016 A 
ATOM     18  C   UNL     1       4.943  -4.139  22.601  0.00  0.00    +0.046 A 
BRANCH  13  19
ATOM     19  O   UNL     1       4.152  -6.392  22.398  0.00  0.00    -0.507 OA
ATOM     20  H   UNL     1       3.455  -6.143  23.026  0.00  0.00    +0.292 HD
ENDBRANCH  13  19
ENDBRANCH   9  16
ENDBRANCH   1  10
BRANCH   2  21
ATOM     21  O   UNL     1       8.288   0.925  24.483  0.00  0.00    -0.456 OA
BRANCH  21  22
ATOM     22  C   UNL     1       7.812   0.787  25.739  0.00  0.00    +0.340 C 
ATOM     23  O   UNL     1       7.568   1.689  26.522  0.00  0.00    -0.245 OA
BRANCH  22  24
ATOM     24  C   UNL     1       7.602  -0.667  26.020  0.00  0.00    +0.059 A 
ATOM     25  C   UNL     1       6.345  -1.263  25.861  0.00  0.00    +0.015 A 
ATOM     26  C   UNL     1       6.162  -2.623  26.110  0.00  0.00    +0.012 A 
ATOM     27  C   UNL     1       7.254  -3.441  26.401  0.00  0.00    +0.022 A 
ATOM     28  C   UNL     1       8.504  -2.843  26.628  0.00  0.00    +0.012 A 
ATOM     29  C   UNL     1       8.675  -1.459  26.449  0.00  0.00    +0.015 A 
BRANCH  27  30
ATOM     30  C   UNL     1       7.124  -4.932  26.453  0.00  0.00    +0.197 C 
ATOM     31  O   UNL     1       8.098  -5.622  26.152  0.00  0.00    -0.287 OA
BRANCH  30  32
ATOM     32  C   UNL     1       5.865  -5.609  26.902  0.00  0.00    +0.064 A 
ATOM     33  C   UNL     1       5.605  -6.004  28.225  0.00  0.00    +0.128 A 
ATOM     34  C   UNL     1       4.466  -6.751  28.542  0.00  0.00    +0.046 A 
ATOM     35  C   UNL     1       3.534  -7.048  27.551  0.00  0.00    +0.004 A 
ATOM     36  C   UNL     1       3.732  -6.589  26.251  0.00  0.00    +0.001 A 
ATOM     37  C   UNL     1       4.893  -5.879  25.926  0.00  0.00    +0.015 A 
BRANCH  33  38
ATOM     38  O   UNL     1       6.443  -5.642  29.243  0.00  0.00    -0.506 OA
ATOM     39  H   UNL     1       6.830  -6.434  29.652  0.00  0.00    +0.292 HD
ENDBRANCH  33  38
ENDBRANCH  30  32
ENDBRANCH  27  30
ENDBRANCH  22  24
ENDBRANCH  21  22
ENDBRANCH   2  21
TORSDOF 9
ENDMDL
MODEL 4
REMARK VINA RESULT:      -7.5      1.980      6.759
REMARK  Name = 
REMARK  9 active torsions:
REMARK  status: ('A' for Active; 'I' for Inactive)
REMARK    1  A    between atoms: O_1  and  C_2
REMARK    2  A    between atoms: C_5  and  C_8
REMARK    3  A    between atoms: N_10  and  C_11
REMARK    4  A    between atoms: C_18  and  O_20
REMARK    5  A    between atoms: O_20  and  C_21
REMARK    6  A    between atoms: C_21  and  C_23
REMARK    7  A    between atoms: C_26  and  C_29
REMARK    8  A    between atoms: C_29  and  C_31
REMARK    9  A    between atoms: C_36  and  O_37
REMARK                            x       y       z     vdW  Elec       q    Type
REMARK                         _______ _______ _______ _____ _____    ______ ____
ROOT
ATOM      1  C   UNL     1       6.748   3.250  24.258  0.00  0.00    +0.128 C 
ATOM      2  C   UNL     1       7.901   3.539  23.255  0.00  0.00    +0.198 C 
ATOM      3  C   UNL     1       7.562   4.755  22.382  0.00  0.00    +0.048 C 
ATOM      4  C   UNL     1       7.902   6.118  22.988  0.00  0.00    +0.019 C 
ATOM      5  C   UNL     1       7.636   6.298  24.481  0.00  0.00    +0.081 C 
ATOM      6  N   UNL     1       6.376   5.703  24.937  0.00  0.00    -0.314 NA
ATOM      7  H   UNL     1       6.074   6.231  25.759  0.00  0.00    +0.122 HD
ATOM      8  C   UNL     1       6.576   4.309  25.378  0.00  0.00    +0.106 C 
ENDROOT
BRANCH   1  10
ATOM      9  C   UNL     1       5.710   1.108  25.070  0.00  0.00    +0.244 C 
ATOM     10  N   UNL     1       6.819   1.878  24.802  0.00  0.00    -0.304 N 
ATOM     11  H   UNL     1       7.741   1.474  24.908  0.00  0.00    +0.149 HD
ATOM     12  O   UNL     1       4.556   1.464  24.831  0.00  0.00    -0.270 OA
BRANCH   9  16
ATOM     13  C   UNL     1       6.517  -2.773  26.665  0.00  0.00    +0.117 A 
ATOM     14  C   UNL     1       5.257  -2.524  26.127  0.00  0.00    +0.046 A 
ATOM     15  C   UNL     1       4.959  -1.265  25.596  0.00  0.00    +0.016 A 
ATOM     16  C   UNL     1       5.931  -0.257  25.617  0.00  0.00    +0.037 A 
ATOM     17  C   UNL     1       7.200  -0.531  26.150  0.00  0.00    +0.016 A 
ATOM     18  C   UNL     1       7.495  -1.787  26.677  0.00  0.00    +0.046 A 
BRANCH  13  19
ATOM     19  O   UNL     1       6.763  -4.015  27.171  0.00  0.00    -0.507 OA
ATOM     20  H   UNL     1       7.292  -4.514  26.527  0.00  0.00    +0.292 HD
ENDBRANCH  13  19
ENDBRANCH   9  16
ENDBRANCH   1  10
BRANCH   2  21
ATOM     21  O   UNL     1       9.127   3.778  23.966  0.00  0.00    -0.456 OA
BRANCH  21  22
ATOM     22  C   UNL     1      10.288   3.283  23.486  0.00  0.00    +0.340 C 
ATOM     23  O   UNL     1      11.253   3.931  23.118  0.00  0.00    -0.245 OA
BRANCH  22  24
ATOM     24  C   UNL     1      10.218   1.789  23.498  0.00  0.00    +0.059 A 
ATOM     25  C   UNL     1      10.294   1.069  24.696  0.00  0.00    +0.015 A 
ATOM     26  C   UNL     1      10.212  -0.323  24.700  0.00  0.00    +0.012 A 
ATOM     27  C   UNL     1       9.927  -1.017  23.523  0.00  0.00    +0.022 A 
ATOM     28  C   UNL     1       9.916  -0.312  22.309  0.00  0.00    +0.012 A 
ATOM     29  C   UNL     1      10.072   1.085  22.296  0.00  0.00    +0.015 A 
BRANCH  27  30
ATOM     30  C   UNL     1       9.614  -2.482  23.534  0.00  0.00    +0.197 C 
ATOM     31  O   UNL     1      10.517  -3.279  23.785  0.00  0.00    -0.287 OA
BRANCH  30  32
ATOM     32  C   UNL     1       8.229  -3.004  23.295  0.00  0.00    +0.064 A 
ATOM     33  C   UNL     1       7.825  -4.326  23.547  0.00  0.00    +0.128 A 
ATOM     34  C   UNL     1       6.554  -4.773  23.172  0.00  0.00    +0.046 A 
ATOM     35  C   UNL     1       5.644  -3.882  22.608  0.00  0.00    +0.004 A 
ATOM     36  C   UNL     1       5.998  -2.547  22.432  0.00  0.00    +0.001 A 
ATOM     37  C   UNL     1       7.284  -2.111  22.767  0.00  0.00    +0.015 A 
BRANCH  33  38
ATOM     38  O   UNL     1       8.653  -5.201  24.193  0.00  0.00    -0.506 OA
ATOM     39  H   UNL     1       9.551  -4.834  24.243  0.00  0.00    +0.292 HD
ENDBRANCH  33  38
ENDBRANCH  30  32
ENDBRANCH  27  30
ENDBRANCH  22  24
ENDBRANCH  21  22
ENDBRANCH   2  21
TORSDOF 9
ENDMDL
MODEL 5
REMARK VINA RESULT:      -7.3      1.860      4.112
REMARK  Name = 
REMARK  9 active torsions:
REMARK  status: ('A' for Active; 'I' for Inactive)
REMARK    1  A    between atoms: O_1  and  C_2
REMARK    2  A    between atoms: C_5  and  C_8
REMARK    3  A    between atoms: N_10  and  C_11
REMARK    4  A    between atoms: C_18  and  O_20
REMARK    5  A    between atoms: O_20  and  C_21
REMARK    6  A    between atoms: C_21  and  C_23
REMARK    7  A    between atoms: C_26  and  C_29
REMARK    8  A    between atoms: C_29  and  C_31
REMARK    9  A    between atoms: C_36  and  O_37
REMARK                            x       y       z     vdW  Elec       q    Type
REMARK                         _______ _______ _______ _____ _____    ______ ____
ROOT
ATOM      1  C   UNL     1       8.537  -3.388  24.967  0.00  0.00    +0.128 C 
ATOM      2  C   UNL     1       7.007  -3.528  24.728  0.00  0.00    +0.198 C 
ATOM      3  C   UNL     1       6.611  -5.008  24.636  0.00  0.00    +0.048 C 
ATOM      4  C   UNL     1       6.349  -5.706  25.972  0.00  0.00    +0.019 C 
ATOM      5  C   UNL     1       7.281  -5.355  27.130  0.00  0.00    +0.081 C 
ATOM      6  N   UNL     1       8.691  -5.240  26.745  0.00  0.00    -0.314 NA
ATOM      7  H   UNL     1       9.248  -5.459  27.574  0.00  0.00    +0.122 HD
ATOM      8  C   UNL     1       9.025  -3.854  26.364  0.00  0.00    +0.106 C 
ENDROOT
BRANCH   1  10
ATOM      9  C   UNL     1       9.211  -1.587  23.346  0.00  0.00    +0.244 C 
ATOM     10  N   UNL     1       9.027  -2.033  24.635  0.00  0.00    -0.304 N 
ATOM     11  H   UNL     1       9.158  -1.391  25.406  0.00  0.00    +0.149 HD
ATOM     12  O   UNL     1       8.935  -2.249  22.347  0.00  0.00    -0.270 OA
BRANCH   9  16
ATOM     13  C   UNL     1      10.687   2.407  22.985  0.00  0.00    +0.117 A 
ATOM     14  C   UNL     1      10.050   1.832  21.888  0.00  0.00    +0.046 A 
ATOM     15  C   UNL     1       9.556   0.526  21.972  0.00  0.00    +0.016 A 
ATOM     16  C   UNL     1       9.711  -0.199  23.160  0.00  0.00    +0.037 A 
ATOM     17  C   UNL     1      10.342   0.403  24.260  0.00  0.00    +0.016 A 
ATOM     18  C   UNL     1      10.833   1.705  24.174  0.00  0.00    +0.046 A 
BRANCH  13  19
ATOM     19  O   UNL     1      11.153   3.682  22.857  0.00  0.00    -0.507 OA
ATOM     20  H   UNL     1      11.501   3.973  23.716  0.00  0.00    +0.292 HD
ENDBRANCH  13  19
ENDBRANCH   9  16
ENDBRANCH   1  10
BRANCH   2  21
ATOM     21  O   UNL     1       6.279  -2.896  25.794  0.00  0.00    -0.456 OA
BRANCH  21  22
ATOM     22  C   UNL     1       5.316  -1.994  25.507  0.00  0.00    +0.340 C 
ATOM     23  O   UNL     1       4.120  -2.214  25.430  0.00  0.00    -0.245 OA
BRANCH  22  24
ATOM     24  C   UNL     1       5.950  -0.653  25.318  0.00  0.00    +0.059 A 
ATOM     25  C   UNL     1       5.993  -0.041  24.059  0.00  0.00    +0.015 A 
ATOM     26  C   UNL     1       6.572   1.217  23.895  0.00  0.00    +0.012 A 
ATOM     27  C   UNL     1       7.008   1.944  25.004  0.00  0.00    +0.022 A 
ATOM     28  C   UNL     1       7.031   1.314  26.258  0.00  0.00    +0.012 A 
ATOM     29  C   UNL     1       6.514   0.016  26.412  0.00  0.00    +0.015 A 
BRANCH  27  30
ATOM     30  C   UNL     1       7.426   3.377  24.885  0.00  0.00    +0.197 C 
ATOM     31  O   UNL     1       8.434   3.752  25.485  0.00  0.00    -0.287 OA
BRANCH  30  32
ATOM     32  C   UNL     1       6.687   4.357  24.025  0.00  0.00    +0.064 A 
ATOM     33  C   UNL     1       7.295   5.202  23.082  0.00  0.00    +0.128 A 
ATOM     34  C   UNL     1       6.556   6.184  22.414  0.00  0.00    +0.046 A 
ATOM     35  C   UNL     1       5.183   6.283  22.627  0.00  0.00    +0.004 A 
ATOM     36  C   UNL     1       4.549   5.395  23.493  0.00  0.00    +0.001 A 
ATOM     37  C   UNL     1       5.296   4.442  24.193  0.00  0.00    +0.015 A 
BRANCH  33  38
ATOM     38  O   UNL     1       8.619   5.066  22.769  0.00  0.00    -0.506 OA
ATOM     39  H   UNL     1       8.751   5.206  21.817  0.00  0.00    +0.292 HD
ENDBRANCH  33  38
ENDBRANCH  30  32
ENDBRANCH  27  30
ENDBRANCH  22  24
ENDBRANCH  21  22
ENDBRANCH   2  21
TORSDOF 9
ENDMDL
MODEL 6
REMARK VINA RESULT:      -7.3      3.008      8.218
REMARK  Name = 
REMARK  9 active torsions:
REMARK  status: ('A' for Active; 'I' for Inactive)
REMARK    1  A    between atoms: O_1  and  C_2
REMARK    2  A    between atoms: C_5  and  C_8
REMARK    3  A    between atoms: N_10  and  C_11
REMARK    4  A    between atoms: C_18  and  O_20
REMARK    5  A    between atoms: O_20  and  C_21
REMARK    6  A    between atoms: C_21  and  C_23
REMARK    7  A    between atoms: C_26  and  C_29
REMARK    8  A    between atoms: C_29  and  C_31
REMARK    9  A    between atoms: C_36  and  O_37
REMARK                            x       y       z     vdW  Elec       q    Type
REMARK                         _______ _______ _______ _____ _____    ______ ____
ROOT
ATOM      1  C   UNL     1       9.135  -0.339  22.532  0.00  0.00    +0.128 C 
ATOM      2  C   UNL     1       9.358   0.102  24.007  0.00  0.00    +0.198 C 
ATOM      3  C   UNL     1      10.667   0.893  24.138  0.00  0.00    +0.048 C 
ATOM      4  C   UNL     1      10.570   2.388  23.827  0.00  0.00    +0.019 C 
ATOM      5  C   UNL     1       9.683   2.793  22.651  0.00  0.00    +0.081 C 
ATOM      6  N   UNL     1       9.802   1.913  21.485  0.00  0.00    -0.314 NA
ATOM      7  H   UNL     1       9.568   2.472  20.661  0.00  0.00    +0.122 HD
ATOM      8  C   UNL     1       8.817   0.815  21.546  0.00  0.00    +0.106 C 
ENDROOT
BRANCH   1  10
ATOM      9  C   UNL     1       8.415  -2.732  22.825  0.00  0.00    +0.244 C 
ATOM     10  N   UNL     1       8.153  -1.440  22.427  0.00  0.00    -0.304 N 
ATOM     11  H   UNL     1       7.223  -1.197  22.113  0.00  0.00    +0.149 HD
ATOM     12  O   UNL     1       9.468  -3.084  23.355  0.00  0.00    -0.270 OA
BRANCH   9  16
ATOM     13  C   UNL     1       5.188  -5.499  22.394  0.00  0.00    +0.117 A 
ATOM     14  C   UNL     1       6.492  -5.982  22.326  0.00  0.00    +0.046 A 
ATOM     15  C   UNL     1       7.572  -5.104  22.463  0.00  0.00    +0.016 A 
ATOM     16  C   UNL     1       7.334  -3.738  22.660  0.00  0.00    +0.037 A 
ATOM     17  C   UNL     1       6.012  -3.272  22.741  0.00  0.00    +0.016 A 
ATOM     18  C   UNL     1       4.937  -4.149  22.606  0.00  0.00    +0.046 A 
BRANCH  13  19
ATOM     19  O   UNL     1       4.167  -6.392  22.255  0.00  0.00    -0.507 OA
ATOM     20  H   UNL     1       4.464  -7.117  21.682  0.00  0.00    +0.292 HD
ENDBRANCH  13  19
ENDBRANCH   9  16
ENDBRANCH   1  10
BRANCH   2  21
ATOM     21  O   UNL     1       8.257   0.909  24.454  0.00  0.00    -0.456 OA
BRANCH  21  22
ATOM     22  C   UNL     1       7.796   0.774  25.717  0.00  0.00    +0.340 C 
ATOM     23  O   UNL     1       7.574   1.677  26.505  0.00  0.00    -0.245 OA
BRANCH  22  24
ATOM     24  C   UNL     1       7.570  -0.677  25.996  0.00  0.00    +0.059 A 
ATOM     25  C   UNL     1       6.322  -1.274  25.775  0.00  0.00    +0.015 A 
ATOM     26  C   UNL     1       6.126  -2.632  26.023  0.00  0.00    +0.012 A 
ATOM     27  C   UNL     1       7.200  -3.449  26.377  0.00  0.00    +0.022 A 
ATOM     28  C   UNL     1       8.437  -2.850  26.666  0.00  0.00    +0.012 A 
ATOM     29  C   UNL     1       8.618  -1.468  26.486  0.00  0.00    +0.015 A 
BRANCH  27  30
ATOM     30  C   UNL     1       7.066  -4.940  26.432  0.00  0.00    +0.197 C 
ATOM     31  O   UNL     1       7.876  -5.630  25.814  0.00  0.00    -0.287 OA
BRANCH  30  32
ATOM     32  C   UNL     1       6.009  -5.617  27.252  0.00  0.00    +0.064 A 
ATOM     33  C   UNL     1       4.966  -6.392  26.717  0.00  0.00    +0.128 A 
ATOM     34  C   UNL     1       3.941  -6.878  27.534  0.00  0.00    +0.046 A 
ATOM     35  C   UNL     1       3.987  -6.659  28.909  0.00  0.00    +0.004 A 
ATOM     36  C   UNL     1       5.061  -5.968  29.467  0.00  0.00    +0.001 A 
ATOM     37  C   UNL     1       6.063  -5.445  28.643  0.00  0.00    +0.015 A 
BRANCH  33  38
ATOM     38  O   UNL     1       4.942  -6.716  25.389  0.00  0.00    -0.506 OA
ATOM     39  H   UNL     1       4.040  -6.621  25.041  0.00  0.00    +0.292 HD
ENDBRANCH  33  38
ENDBRANCH  30  32
ENDBRANCH  27  30
ENDBRANCH  22  24
ENDBRANCH  21  22
ENDBRANCH   2  21
TORSDOF 9
ENDMDL
MODEL 7
REMARK VINA RESULT:      -7.3      1.360      2.076
REMARK  Name = 
REMARK  9 active torsions:
REMARK  status: ('A' for Active; 'I' for Inactive)
REMARK    1  A    between atoms: O_1  and  C_2
REMARK    2  A    between atoms: C_5  and  C_8
REMARK    3  A    between atoms: N_10  and  C_11
REMARK    4  A    between atoms: C_18  and  O_20
REMARK    5  A    between atoms: O_20  and  C_21
REMARK    6  A    between atoms: C_21  and  C_23
REMARK    7  A    between atoms: C_26  and  C_29
REMARK    8  A    between atoms: C_29  and  C_31
REMARK    9  A    between atoms: C_36  and  O_37
REMARK                            x       y       z     vdW  Elec       q    Type
REMARK                         _______ _______ _______ _____ _____    ______ ____
ROOT
ATOM      1  C   UNL     1       6.055  -2.832  23.872  0.00  0.00    +0.128 C 
ATOM      2  C   UNL     1       7.386  -3.576  24.175  0.00  0.00    +0.198 C 
ATOM      3  C   UNL     1       7.173  -5.095  24.133  0.00  0.00    +0.048 C 
ATOM      4  C   UNL     1       7.264  -5.737  22.747  0.00  0.00    +0.019 C 
ATOM      5  C   UNL     1       6.644  -4.964  21.585  0.00  0.00    +0.081 C 
ATOM      6  N   UNL     1       5.359  -4.336  21.905  0.00  0.00    -0.314 NA
ATOM      7  H   UNL     1       4.837  -4.257  21.030  0.00  0.00    +0.122 HD
ATOM      8  C   UNL     1       5.551  -2.963  22.411  0.00  0.00    +0.106 C 
ENDROOT
BRANCH   1  10
ATOM      9  C   UNL     1       6.139  -1.044  25.640  0.00  0.00    +0.244 C 
ATOM     10  N   UNL     1       6.096  -1.422  24.317  0.00  0.00    -0.304 N 
ATOM     11  H   UNL     1       6.170  -0.716  23.596  0.00  0.00    +0.149 HD
ATOM     12  O   UNL     1       6.203  -1.839  26.577  0.00  0.00    -0.270 OA
BRANCH   9  16
ATOM     13  C   UNL     1       6.190   3.170  26.343  0.00  0.00    +0.117 A 
ATOM     14  C   UNL     1       6.725   2.328  27.314  0.00  0.00    +0.046 A 
ATOM     15  C   UNL     1       6.724   0.943  27.116  0.00  0.00    +0.016 A 
ATOM     16  C   UNL     1       6.177   0.411  25.942  0.00  0.00    +0.037 A 
ATOM     17  C   UNL     1       5.656   1.277  24.968  0.00  0.00    +0.016 A 
ATOM     18  C   UNL     1       5.658   2.657  25.167  0.00  0.00    +0.046 A 
BRANCH  13  19
ATOM     19  O   UNL     1       6.212   4.513  26.579  0.00  0.00    -0.507 OA
ATOM     20  H   UNL     1       7.118   4.837  26.446  0.00  0.00    +0.292 HD
ENDBRANCH  13  19
ENDBRANCH   9  16
ENDBRANCH   1  10
BRANCH   2  21
ATOM     21  O   UNL     1       8.392  -3.201  23.220  0.00  0.00    -0.456 OA
BRANCH  21  22
ATOM     22  C   UNL     1       9.569  -2.695  23.648  0.00  0.00    +0.340 C 
ATOM     23  O   UNL     1      10.521  -3.332  24.062  0.00  0.00    -0.245 OA
BRANCH  22  24
ATOM     24  C   UNL     1       9.533  -1.206  23.511  0.00  0.00    +0.059 A 
ATOM     25  C   UNL     1       9.427  -0.595  22.255  0.00  0.00    +0.015 A 
ATOM     26  C   UNL     1       9.378   0.794  22.138  0.00  0.00    +0.012 A 
ATOM     27  C   UNL     1       9.307   1.597  23.277  0.00  0.00    +0.022 A 
ATOM     28  C   UNL     1       9.480   1.000  24.536  0.00  0.00    +0.012 A 
ATOM     29  C   UNL     1       9.603  -0.396  24.652  0.00  0.00    +0.015 A 
BRANCH  27  30
ATOM     30  C   UNL     1       9.031   3.066  23.184  0.00  0.00    +0.197 C 
ATOM     31  O   UNL     1       7.920   3.437  22.804  0.00  0.00    -0.287 OA
BRANCH  30  32
ATOM     32  C   UNL     1      10.044   4.097  23.583  0.00  0.00    +0.064 A 
ATOM     33  C   UNL     1       9.742   5.278  24.281  0.00  0.00    +0.128 A 
ATOM     34  C   UNL     1      10.719   6.255  24.498  0.00  0.00    +0.046 A 
ATOM     35  C   UNL     1      12.029   6.028  24.083  0.00  0.00    +0.004 A 
ATOM     36  C   UNL     1      12.365   4.825  23.467  0.00  0.00    +0.001 A 
ATOM     37  C   UNL     1      11.378   3.867  23.213  0.00  0.00    +0.015 A 
BRANCH  33  38
ATOM     38  O   UNL     1       8.493   5.489  24.794  0.00  0.00    -0.506 OA
ATOM     39  H   UNL     1       8.220   6.409  24.637  0.00  0.00    +0.292 HD
ENDBRANCH  33  38
ENDBRANCH  30  32
ENDBRANCH  27  30
ENDBRANCH  22  24
ENDBRANCH  21  22
ENDBRANCH   2  21
TORSDOF 9
ENDMDL
MODEL 8
REMARK VINA RESULT:      -6.8      2.894      7.245
REMARK  Name = 
REMARK  9 active torsions:
REMARK  status: ('A' for Active; 'I' for Inactive)
REMARK    1  A    between atoms: O_1  and  C_2
REMARK    2  A    between atoms: C_5  and  C_8
REMARK    3  A    between atoms: N_10  and  C_11
REMARK    4  A    between atoms: C_18  and  O_20
REMARK    5  A    between atoms: O_20  and  C_21
REMARK    6  A    between atoms: C_21  and  C_23
REMARK    7  A    between atoms: C_26  and  C_29
REMARK    8  A    between atoms: C_29  and  C_31
REMARK    9  A    between atoms: C_36  and  O_37
REMARK                            x       y       z     vdW  Elec       q    Type
REMARK                         _______ _______ _______ _____ _____    ______ ____
ROOT
ATOM      1  C   UNL     1       7.605   0.990  24.277  0.00  0.00    +0.128 C 
ATOM      2  C   UNL     1       8.243   0.156  23.130  0.00  0.00    +0.198 C 
ATOM      3  C   UNL     1       8.598   1.061  21.942  0.00  0.00    +0.048 C 
ATOM      4  C   UNL     1       9.954   1.765  22.029  0.00  0.00    +0.019 C 
ATOM      5  C   UNL     1      10.368   2.301  23.398  0.00  0.00    +0.081 C 
ATOM      6  N   UNL     1       9.278   2.939  24.142  0.00  0.00    -0.314 NA
ATOM      7  H   UNL     1       9.703   3.625  24.770  0.00  0.00    +0.122 HD
ATOM      8  C   UNL     1       8.576   1.961  24.997  0.00  0.00    +0.106 C 
ENDROOT
BRANCH   1  10
ATOM      9  C   UNL     1       5.524   0.284  25.501  0.00  0.00    +0.244 C 
ATOM     10  N   UNL     1       6.866   0.138  25.234  0.00  0.00    -0.304 N 
ATOM     11  H   UNL     1       7.374  -0.632  25.649  0.00  0.00    +0.149 HD
ATOM     12  O   UNL     1       4.797   1.098  24.931  0.00  0.00    -0.270 OA
BRANCH   9  16
ATOM     13  C   UNL     1       3.900  -2.491  28.316  0.00  0.00    +0.117 A 
ATOM     14  C   UNL     1       3.121  -1.403  27.929  0.00  0.00    +0.046 A 
ATOM     15  C   UNL     1       3.622  -0.475  27.010  0.00  0.00    +0.016 A 
ATOM     16  C   UNL     1       4.910  -0.643  26.488  0.00  0.00    +0.037 A 
ATOM     17  C   UNL     1       5.675  -1.755  26.877  0.00  0.00    +0.016 A 
ATOM     18  C   UNL     1       5.174  -2.678  27.793  0.00  0.00    +0.046 A 
BRANCH  13  19
ATOM     19  O   UNL     1       3.371  -3.369  29.214  0.00  0.00    -0.507 OA
ATOM     20  H   UNL     1       2.404  -3.359  29.126  0.00  0.00    +0.292 HD
ENDBRANCH  13  19
ENDBRANCH   9  16
ENDBRANCH   1  10
BRANCH   2  21
ATOM     21  O   UNL     1       9.426  -0.511  23.601  0.00  0.00    -0.456 OA
BRANCH  21  22
ATOM     22  C   UNL     1       9.764  -1.715  23.092  0.00  0.00    +0.340 C 
ATOM     23  O   UNL     1      10.680  -1.941  22.320  0.00  0.00    -0.245 OA
BRANCH  22  24
ATOM     24  C   UNL     1       8.842  -2.752  23.649  0.00  0.00    +0.059 A 
ATOM     25  C   UNL     1       8.897  -3.122  24.999  0.00  0.00    +0.015 A 
ATOM     26  C   UNL     1       8.023  -4.079  25.513  0.00  0.00    +0.012 A 
ATOM     27  C   UNL     1       6.994  -4.594  24.724  0.00  0.00    +0.022 A 
ATOM     28  C   UNL     1       6.971  -4.280  23.355  0.00  0.00    +0.012 A 
ATOM     29  C   UNL     1       7.899  -3.371  22.818  0.00  0.00    +0.015 A 
BRANCH  27  30
ATOM     30  C   UNL     1       5.910  -5.447  25.307  0.00  0.00    +0.197 C 
ATOM     31  O   UNL     1       6.180  -6.175  26.263  0.00  0.00    -0.287 OA
BRANCH  30  32
ATOM     32  C   UNL     1       4.501  -5.410  24.797  0.00  0.00    +0.064 A 
ATOM     33  C   UNL     1       3.896  -6.442  24.062  0.00  0.00    +0.128 A 
ATOM     34  C   UNL     1       2.624  -6.278  23.504  0.00  0.00    +0.046 A 
ATOM     35  C   UNL     1       1.911  -5.104  23.739  0.00  0.00    +0.004 A 
ATOM     36  C   UNL     1       2.461  -4.105  24.539  0.00  0.00    +0.001 A 
ATOM     37  C   UNL     1       3.750  -4.253  25.060  0.00  0.00    +0.015 A 
BRANCH  33  38
ATOM     38  O   UNL     1       4.521  -7.647  23.899  0.00  0.00    -0.506 OA
ATOM     39  H   UNL     1       5.366  -7.651  24.378  0.00  0.00    +0.292 HD
ENDBRANCH  33  38
ENDBRANCH  30  32
ENDBRANCH  27  30
ENDBRANCH  22  24
ENDBRANCH  21  22
ENDBRANCH   2  21
TORSDOF 9
ENDMDL
MODEL 9
REMARK VINA RESULT:      -6.7      2.779      8.181
REMARK  Name = 
REMARK  9 active torsions:
REMARK  status: ('A' for Active; 'I' for Inactive)
REMARK    1  A    between atoms: O_1  and  C_2
REMARK    2  A    between atoms: C_5  and  C_8
REMARK    3  A    between atoms: N_10  and  C_11
REMARK    4  A    between atoms: C_18  and  O_20
REMARK    5  A    between atoms: O_20  and  C_21
REMARK    6  A    between atoms: C_21  and  C_23
REMARK    7  A    between atoms: C_26  and  C_29
REMARK    8  A    between atoms: C_29  and  C_31
REMARK    9  A    between atoms: C_36  and  O_37
REMARK                            x       y       z     vdW  Elec       q    Type
REMARK                         _______ _______ _______ _____ _____    ______ ____
ROOT
ATOM      1  C   UNL     1       8.563   0.543  22.687  0.00  0.00    +0.128 C 
ATOM      2  C   UNL     1       8.753   0.960  24.173  0.00  0.00    +0.198 C 
ATOM      3  C   UNL     1       9.789   2.087  24.287  0.00  0.00    +0.048 C 
ATOM      4  C   UNL     1       9.249   3.503  24.079  0.00  0.00    +0.019 C 
ATOM      5  C   UNL     1       8.205   3.692  22.980  0.00  0.00    +0.081 C 
ATOM      6  N   UNL     1       8.488   2.939  21.755  0.00  0.00    -0.314 NA
ATOM      7  H   UNL     1       8.048   3.445  20.983  0.00  0.00    +0.122 HD
ATOM      8  C   UNL     1       7.863   1.602  21.796  0.00  0.00    +0.106 C 
ENDROOT
BRANCH   1  10
ATOM      9  C   UNL     1       8.532  -1.956  22.971  0.00  0.00    +0.244 C 
ATOM     10  N   UNL     1       7.930  -0.787  22.563  0.00  0.00    -0.304 N 
ATOM     11  H   UNL     1       6.976  -0.812  22.226  0.00  0.00    +0.149 HD
ATOM     12  O   UNL     1       9.628  -2.002  23.528  0.00  0.00    -0.270 OA
BRANCH   9  16
ATOM     13  C   UNL     1       6.484  -5.681  22.540  0.00  0.00    +0.117 A 
ATOM     14  C   UNL     1       6.071  -4.602  21.764  0.00  0.00    +0.046 A 
ATOM     15  C   UNL     1       6.719  -3.368  21.881  0.00  0.00    +0.016 A 
ATOM     16  C   UNL     1       7.778  -3.224  22.785  0.00  0.00    +0.037 A 
ATOM     17  C   UNL     1       8.191  -4.328  23.548  0.00  0.00    +0.016 A 
ATOM     18  C   UNL     1       7.544  -5.557  23.429  0.00  0.00    +0.046 A 
BRANCH  13  19
ATOM     19  O   UNL     1       5.823  -6.865  22.393  0.00  0.00    -0.507 OA
ATOM     20  H   UNL     1       5.529  -6.944  21.471  0.00  0.00    +0.292 HD
ENDBRANCH  13  19
ENDBRANCH   9  16
ENDBRANCH   1  10
BRANCH   2  21
ATOM     21  O   UNL     1       7.501   1.394  24.730  0.00  0.00    -0.456 OA
BRANCH  21  22
ATOM     22  C   UNL     1       7.219   1.140  26.026  0.00  0.00    +0.340 C 
ATOM     23  O   UNL     1       7.250   1.943  26.943  0.00  0.00    -0.245 OA
BRANCH  22  24
ATOM     24  C   UNL     1       6.832  -0.298  26.164  0.00  0.00    +0.059 A 
ATOM     25  C   UNL     1       7.784  -1.280  26.467  0.00  0.00    +0.015 A 
ATOM     26  C   UNL     1       7.411  -2.616  26.609  0.00  0.00    +0.012 A 
ATOM     27  C   UNL     1       6.065  -2.981  26.578  0.00  0.00    +0.022 A 
ATOM     28  C   UNL     1       5.112  -2.018  26.211  0.00  0.00    +0.012 A 
ATOM     29  C   UNL     1       5.496  -0.683  25.994  0.00  0.00    +0.015 A 
BRANCH  27  30
ATOM     30  C   UNL     1       5.619  -4.363  26.948  0.00  0.00    +0.197 C 
ATOM     31  O   UNL     1       5.969  -4.827  28.033  0.00  0.00    -0.287 OA
BRANCH  30  32
ATOM     32  C   UNL     1       4.724  -5.177  26.063  0.00  0.00    +0.064 A 
ATOM     33  C   UNL     1       4.573  -6.571  26.155  0.00  0.00    +0.128 A 
ATOM     34  C   UNL     1       3.825  -7.277  25.207  0.00  0.00    +0.046 A 
ATOM     35  C   UNL     1       3.157  -6.587  24.198  0.00  0.00    +0.004 A 
ATOM     36  C   UNL     1       3.224  -5.197  24.144  0.00  0.00    +0.001 A 
ATOM     37  C   UNL     1       4.008  -4.496  25.067  0.00  0.00    +0.015 A 
BRANCH  33  38
ATOM     38  O   UNL     1       5.128  -7.270  27.190  0.00  0.00    -0.506 OA
ATOM     39  H   UNL     1       5.750  -6.704  27.677  0.00  0.00    +0.292 HD
ENDBRANCH  33  38
ENDBRANCH  30  32
ENDBRANCH  27  30
ENDBRANCH  22  24
ENDBRANCH  21  22
ENDBRANCH   2  21
TORSDOF 9
ENDMDL
