MODEL 1
REMARK VINA RESULT:      -3.1      0.000      0.000
REMARK  Name = 
REMARK  2 active torsions:
REMARK  status: ('A' for Active; 'I' for Inactive)
REMARK    1  A    between atoms: N_1  and  C_2
REMARK    2  A    between atoms: C_2  and  C_3
REMARK                            x       y       z     vdW  Elec       q    Type
REMARK                         _______ _______ _______ _____ _____    ______ ____
ROOT
ATOM      1  C   UNL     1      11.924   5.864  23.608  0.00  0.00    +0.224 C 
ATOM      2  O   UNL     1      12.299   6.334  24.676  0.00  0.00    -0.275 OA
ATOM      3  N   UNL     1      10.597   5.782  23.295  0.00  0.00    -0.328 N 
ATOM      4  H   UNL     1       9.924   5.993  24.018  0.00  0.00    +0.145 HD
ATOM      5  H   UNL     1      10.341   5.152  22.540  0.00  0.00    +0.145 HD
ENDROOT
BRANCH   1   6
ATOM      6  C   UNL     1      12.881   5.331  22.538  0.00  0.00    +0.174 C 
BRANCH   6   7
ATOM      7  N   UNL     1      14.239   5.110  23.086  0.00  0.00    -0.322 NA
ATOM      8  H   UNL     1      14.689   4.393  22.513  0.00  0.00    +0.119 HD
ATOM      9  H   UNL     1      14.782   5.960  22.933  0.00  0.00    +0.119 HD
ENDBRANCH   6   7
ENDBRANCH   1   6
TORSDOF 2
ENDMDL
MODEL 2
REMARK VINA RESULT:      -3.1     11.918     12.120
REMARK  Name = 
REMARK  2 active torsions:
REMARK  status: ('A' for Active; 'I' for Inactive)
REMARK    1  A    between atoms: N_1  and  C_2
REMARK    2  A    between atoms: C_2  and  C_3
REMARK                            x       y       z     vdW  Elec       q    Type
REMARK                         _______ _______ _______ _____ _____    ______ ____
ROOT
ATOM      1  C   UNL     1       9.030  -5.222  25.252  0.00  0.00    +0.224 C 
ATOM      2  O   UNL     1       8.706  -5.338  24.075  0.00  0.00    -0.275 OA
ATOM      3  N   UNL     1      10.301  -5.497  25.670  0.00  0.00    -0.328 N 
ATOM      4  H   UNL     1      10.934  -5.927  25.011  0.00  0.00    +0.145 HD
ATOM      5  H   UNL     1      10.435  -5.644  26.665  0.00  0.00    +0.145 HD
ENDROOT
BRANCH   1   6
ATOM      6  C   UNL     1       8.065  -4.769  26.352  0.00  0.00    +0.174 C 
BRANCH   6   7
ATOM      7  N   UNL     1       7.881  -5.818  27.379  0.00  0.00    -0.322 NA
ATOM      8  H   UNL     1       6.948  -6.216  27.252  0.00  0.00    +0.119 HD
ATOM      9  H   UNL     1       8.530  -6.579  27.173  0.00  0.00    +0.119 HD
ENDBRANCH   6   7
ENDBRANCH   1   6
TORSDOF 2
ENDMDL
MODEL 3
REMARK VINA RESULT:      -3.0      6.013      6.163
REMARK  Name = 
REMARK  2 active torsions:
REMARK  status: ('A' for Active; 'I' for Inactive)
REMARK    1  A    between atoms: N_1  and  C_2
REMARK    2  A    between atoms: C_2  and  C_3
REMARK                            x       y       z     vdW  Elec       q    Type
REMARK                         _______ _______ _______ _____ _____    ______ ____
ROOT
ATOM      1  C   UNL     1      10.040   0.904  22.231  0.00  0.00    +0.224 C 
ATOM      2  O   UNL     1      10.531   0.718  23.339  0.00  0.00    -0.275 OA
ATOM      3  N   UNL     1      10.038   2.142  21.653  0.00  0.00    -0.328 N 
ATOM      4  H   UNL     1      10.330   2.928  22.215  0.00  0.00    +0.145 HD
ATOM      5  H   UNL     1       9.394   2.287  20.881  0.00  0.00    +0.145 HD
ENDROOT
BRANCH   1   6
ATOM      6  C   UNL     1       9.391  -0.206  21.398  0.00  0.00    +0.174 C 
BRANCH   6   7
ATOM      7  N   UNL     1      10.106  -1.493  21.557  0.00  0.00    -0.322 NA
ATOM      8  H   UNL     1      10.974  -1.432  21.022  0.00  0.00    +0.119 HD
ATOM      9  H   UNL     1      10.394  -1.575  22.533  0.00  0.00    +0.119 HD
ENDBRANCH   6   7
ENDBRANCH   1   6
TORSDOF 2
ENDMDL
MODEL 4
REMARK VINA RESULT:      -2.9     12.009     12.024
REMARK  Name = 
REMARK  2 active torsions:
REMARK  status: ('A' for Active; 'I' for Inactive)
REMARK    1  A    between atoms: N_1  and  C_2
REMARK    2  A    between atoms: C_2  and  C_3
REMARK                            x       y       z     vdW  Elec       q    Type
REMARK                         _______ _______ _______ _____ _____    ______ ____
ROOT
ATOM      1  C   UNL     1       7.865  -5.266  25.888  0.00  0.00    +0.224 C 
ATOM      2  O   UNL     1       6.784  -5.284  25.310  0.00  0.00    -0.275 OA
ATOM      3  N   UNL     1       8.016  -5.814  27.130  0.00  0.00    -0.328 N 
ATOM      4  H   UNL     1       7.186  -6.117  27.619  0.00  0.00    +0.145 HD
ATOM      5  H   UNL     1       8.837  -5.535  27.658  0.00  0.00    +0.145 HD
ENDROOT
BRANCH   1   6
ATOM      6  C   UNL     1       9.129  -4.639  25.292  0.00  0.00    +0.174 C 
BRANCH   6   7
ATOM      7  N   UNL     1      10.291  -5.549  25.405  0.00  0.00    -0.322 NA
ATOM      8  H   UNL     1       9.989  -6.475  25.099  0.00  0.00    +0.119 HD
ATOM      9  H   UNL     1      10.990  -5.252  24.723  0.00  0.00    +0.119 HD
ENDBRANCH   6   7
ENDBRANCH   1   6
TORSDOF 2
ENDMDL
MODEL 5
REMARK VINA RESULT:      -2.8      6.147      6.388
REMARK  Name = 
REMARK  2 active torsions:
REMARK  status: ('A' for Active; 'I' for Inactive)
REMARK    1  A    between atoms: N_1  and  C_2
REMARK    2  A    between atoms: C_2  and  C_3
REMARK                            x       y       z     vdW  Elec       q    Type
REMARK                         _______ _______ _______ _____ _____    ______ ____
ROOT
ATOM      1  C   UNL     1       9.861  -0.147  22.131  0.00  0.00    +0.224 C 
ATOM      2  O   UNL     1      10.467  -0.278  23.189  0.00  0.00    -0.275 OA
ATOM      3  N   UNL     1       9.763  -1.174  21.236  0.00  0.00    -0.328 N 
ATOM      4  H   UNL     1      10.315  -2.003  21.404  0.00  0.00    +0.145 HD
ATOM      5  H   UNL     1       9.495  -0.932  20.287  0.00  0.00    +0.145 HD
ENDROOT
BRANCH   1   6
ATOM      6  C   UNL     1       9.167   1.153  21.712  0.00  0.00    +0.174 C 
BRANCH   6   7
ATOM      7  N   UNL     1      10.118   2.287  21.669  0.00  0.00    -0.322 NA
ATOM      8  H   UNL     1       9.611   3.101  21.316  0.00  0.00    +0.119 HD
ATOM      9  H   UNL     1      10.372   2.521  22.630  0.00  0.00    +0.119 HD
ENDBRANCH   6   7
ENDBRANCH   1   6
TORSDOF 2
ENDMDL
MODEL 6
REMARK VINA RESULT:      -2.8      1.950      2.580
REMARK  Name = 
REMARK  2 active torsions:
REMARK  status: ('A' for Active; 'I' for Inactive)
REMARK    1  A    between atoms: N_1  and  C_2
REMARK    2  A    between atoms: C_2  and  C_3
REMARK                            x       y       z     vdW  Elec       q    Type
REMARK                         _______ _______ _______ _____ _____    ______ ____
ROOT
ATOM      1  C   UNL     1      12.407   4.980  23.449  0.00  0.00    +0.224 C 
ATOM      2  O   UNL     1      11.799   3.944  23.206  0.00  0.00    -0.275 OA
ATOM      3  N   UNL     1      13.710   5.145  23.073  0.00  0.00    -0.328 N 
ATOM      4  H   UNL     1      14.203   4.342  22.709  0.00  0.00    +0.145 HD
ATOM      5  H   UNL     1      14.229   5.889  23.528  0.00  0.00    +0.145 HD
ENDROOT
BRANCH   1   6
ATOM      6  C   UNL     1      11.784   6.172  24.183  0.00  0.00    +0.174 C 
BRANCH   6   7
ATOM      7  N   UNL     1      12.719   6.746  25.178  0.00  0.00    -0.322 NA
ATOM      8  H   UNL     1      13.631   6.311  25.030  0.00  0.00    +0.119 HD
ATOM      9  H   UNL     1      12.849   7.733  24.954  0.00  0.00    +0.119 HD
ENDBRANCH   6   7
ENDBRANCH   1   6
TORSDOF 2
ENDMDL
MODEL 7
REMARK VINA RESULT:      -2.7      5.260      5.493
REMARK  Name = 
REMARK  2 active torsions:
REMARK  status: ('A' for Active; 'I' for Inactive)
REMARK    1  A    between atoms: N_1  and  C_2
REMARK    2  A    between atoms: C_2  and  C_3
REMARK                            x       y       z     vdW  Elec       q    Type
REMARK                         _______ _______ _______ _____ _____    ______ ____
ROOT
ATOM      1  C   UNL     1      10.451   0.771  23.787  0.00  0.00    +0.224 C 
ATOM      2  O   UNL     1      10.553  -0.236  23.095  0.00  0.00    -0.275 OA
ATOM      3  N   UNL     1      10.462   0.701  25.151  0.00  0.00    -0.328 N 
ATOM      4  H   UNL     1      10.421  -0.213  25.579  0.00  0.00    +0.145 HD
ATOM      5  H   UNL     1      10.108   1.508  25.655  0.00  0.00    +0.145 HD
ENDROOT
BRANCH   1   6
ATOM      6  C   UNL     1      10.302   2.181  23.207  0.00  0.00    +0.174 C 
BRANCH   6   7
ATOM      7  N   UNL     1      10.098   2.147  21.741  0.00  0.00    -0.322 NA
ATOM      8  H   UNL     1      10.862   2.672  21.311  0.00  0.00    +0.119 HD
ATOM      9  H   UNL     1      10.221   1.184  21.428  0.00  0.00    +0.119 HD
ENDBRANCH   6   7
ENDBRANCH   1   6
TORSDOF 2
ENDMDL
MODEL 8
REMARK VINA RESULT:      -2.6     10.375     10.402
REMARK  Name = 
REMARK  2 active torsions:
REMARK  status: ('A' for Active; 'I' for Inactive)
REMARK    1  A    between atoms: N_1  and  C_2
REMARK    2  A    between atoms: C_2  and  C_3
REMARK                            x       y       z     vdW  Elec       q    Type
REMARK                         _______ _______ _______ _____ _____    ______ ____
ROOT
ATOM      1  C   UNL     1       9.178  -3.661  24.300  0.00  0.00    +0.224 C 
ATOM      2  O   UNL     1      10.152  -3.014  23.931  0.00  0.00    -0.275 OA
ATOM      3  N   UNL     1       7.983  -3.583  23.642  0.00  0.00    -0.328 N 
ATOM      4  H   UNL     1       7.881  -2.879  22.925  0.00  0.00    +0.145 HD
ATOM      5  H   UNL     1       7.163  -3.917  24.139  0.00  0.00    +0.145 HD
ENDROOT
BRANCH   1   6
ATOM      6  C   UNL     1       9.197  -4.600  25.509  0.00  0.00    +0.174 C 
BRANCH   6   7
ATOM      7  N   UNL     1      10.345  -5.533  25.454  0.00  0.00    -0.322 NA
ATOM      8  H   UNL     1      10.621  -5.739  26.416  0.00  0.00    +0.119 HD
ATOM      9  H   UNL     1      10.013  -6.419  25.072  0.00  0.00    +0.119 HD
ENDBRANCH   6   7
ENDBRANCH   1   6
TORSDOF 2
ENDMDL
MODEL 9
REMARK VINA RESULT:      -2.6      5.432      5.571
REMARK  Name = 
REMARK  2 active torsions:
REMARK  status: ('A' for Active; 'I' for Inactive)
REMARK    1  A    between atoms: N_1  and  C_2
REMARK    2  A    between atoms: C_2  and  C_3
REMARK                            x       y       z     vdW  Elec       q    Type
REMARK                         _______ _______ _______ _____ _____    ______ ____
ROOT
ATOM      1  C   UNL     1       9.990   1.135  22.344  0.00  0.00    +0.224 C 
ATOM      2  O   UNL     1       9.947   0.054  21.768  0.00  0.00    -0.275 OA
ATOM      3  N   UNL     1      10.133   2.305  21.652  0.00  0.00    -0.328 N 
ATOM      4  H   UNL     1      10.337   2.249  20.665  0.00  0.00    +0.145 HD
ATOM      5  H   UNL     1      10.430   3.118  22.182  0.00  0.00    +0.145 HD
ENDROOT
BRANCH   1   6
ATOM      6  C   UNL     1       9.892   1.285  23.865  0.00  0.00    +0.174 C 
BRANCH   6   7
ATOM      7  N   UNL     1      11.052   0.670  24.548  0.00  0.00    -0.322 NA
ATOM      8  H   UNL     1      11.835   1.323  24.474  0.00  0.00    +0.119 HD
ATOM      9  H   UNL     1      10.839   0.615  25.545  0.00  0.00    +0.119 HD
ENDBRANCH   6   7
ENDBRANCH   1   6
TORSDOF 2
ENDMDL
