MODEL 1
REMARK VINA RESULT:      -8.0      0.000      0.000
REMARK  Name = 
REMARK  0 active torsions:
REMARK  status: ('A' for Active; 'I' for Inactive)
REMARK                            x       y       z     vdW  Elec       q    Type
REMARK                         _______ _______ _______ _____ _____    ______ ____
ROOT
ATOM      1  O   UNL     1       9.170  -4.533  26.981  0.00  0.00    -0.270 OA
ATOM      2  C   UNL     1       8.089  -4.993  26.640  0.00  0.00    +0.245 C 
ATOM      3  C   UNL     1       7.258  -4.845  25.487  0.00  0.00    +0.052 A 
ATOM      4  C   UNL     1       6.088  -5.638  25.637  0.00  0.00    -0.008 A 
ATOM      5  C   UNL     1       5.113  -5.646  24.604  0.00  0.00    +0.015 A 
ATOM      6  C   UNL     1       3.923  -6.373  24.611  0.00  0.00    +0.008 A 
ATOM      7  C   UNL     1       3.334  -6.033  23.377  0.00  0.00    +0.048 A 
ATOM      8  C   UNL     1       2.099  -6.550  22.966  0.00  0.00    +0.026 A 
ATOM      9  C   UNL     1       1.443  -7.434  23.826  0.00  0.00    +0.002 A 
ATOM     10  C   UNL     1       2.001  -7.788  25.052  0.00  0.00    +0.001 A 
ATOM     11  N   UNL     1       4.179  -5.146  22.712  0.00  0.00    -0.353 N 
ATOM     12  H   UNL     1       3.984  -4.753  21.805  0.00  0.00    +0.166 HD
ATOM     13  C   UNL     1       3.237  -7.267  25.457  0.00  0.00    +0.010 A 
ATOM     14  C   UNL     1       5.291  -4.900  23.470  0.00  0.00    +0.072 A 
ATOM     15  C   UNL     1       6.373  -4.113  23.237  0.00  0.00    +0.072 A 
ATOM     16  N   UNL     1       6.646  -3.338  22.157  0.00  0.00    -0.352 N 
ATOM     17  H   UNL     1       6.096  -3.200  21.322  0.00  0.00    +0.166 HD
ATOM     18  C   UNL     1       7.882  -2.788  22.508  0.00  0.00    +0.048 A 
ATOM     19  C   UNL     1       8.663  -1.893  21.761  0.00  0.00    +0.026 A 
ATOM     20  C   UNL     1       9.879  -1.455  22.291  0.00  0.00    +0.002 A 
ATOM     21  C   UNL     1      10.314  -1.892  23.535  0.00  0.00    +0.001 A 
ATOM     22  C   UNL     1       9.546  -2.785  24.291  0.00  0.00    +0.010 A 
ATOM     23  C   UNL     1       8.309  -3.259  23.804  0.00  0.00    +0.008 A 
ATOM     24  C   UNL     1       6.108  -6.348  26.922  0.00  0.00    +0.141 C 
ATOM     25  C   UNL     1       7.306  -4.135  24.277  0.00  0.00    +0.022 A 
ATOM     26  N   UNL     1       7.379  -5.877  27.446  0.00  0.00    -0.307 N 
ATOM     27  H   UNL     1       7.764  -6.147  28.339  0.00  0.00    +0.149 HD
ENDROOT
TORSDOF 0
ENDMDL
MODEL 2
REMARK VINA RESULT:      -8.0      0.918      6.063
REMARK  Name = 
REMARK  0 active torsions:
REMARK  status: ('A' for Active; 'I' for Inactive)
REMARK                            x       y       z     vdW  Elec       q    Type
REMARK                         _______ _______ _______ _____ _____    ______ ____
ROOT
ATOM      1  O   UNL     1       5.610  -7.106  27.713  0.00  0.00    -0.270 OA
ATOM      2  C   UNL     1       6.277  -6.323  27.051  0.00  0.00    +0.245 C 
ATOM      3  C   UNL     1       6.121  -5.709  25.770  0.00  0.00    +0.052 A 
ATOM      4  C   UNL     1       7.233  -4.866  25.505  0.00  0.00    -0.008 A 
ATOM      5  C   UNL     1       7.291  -4.148  24.280  0.00  0.00    +0.015 A 
ATOM      6  C   UNL     1       8.314  -3.287  23.886  0.00  0.00    +0.008 A 
ATOM      7  C   UNL     1       7.889  -2.848  22.616  0.00  0.00    +0.048 A 
ATOM      8  C   UNL     1       8.635  -1.949  21.844  0.00  0.00    +0.026 A 
ATOM      9  C   UNL     1       9.843  -1.483  22.370  0.00  0.00    +0.002 A 
ATOM     10  C   UNL     1      10.287  -1.900  23.622  0.00  0.00    +0.001 A 
ATOM     11  N   UNL     1       6.667  -3.452  22.324  0.00  0.00    -0.353 N 
ATOM     12  H   UNL     1       6.152  -3.299  21.471  0.00  0.00    +0.166 HD
ATOM     13  C   UNL     1       9.535  -2.799  24.389  0.00  0.00    +0.010 A 
ATOM     14  C   UNL     1       6.287  -4.264  23.357  0.00  0.00    +0.072 A 
ATOM     15  C   UNL     1       5.186  -5.044  23.519  0.00  0.00    +0.072 A 
ATOM     16  N   UNL     1       4.141  -5.229  22.673  0.00  0.00    -0.352 N 
ATOM     17  H   UNL     1       3.984  -4.823  21.764  0.00  0.00    +0.166 HD
ATOM     18  C   UNL     1       3.350  -6.127  23.395  0.00  0.00    +0.048 A 
ATOM     19  C   UNL     1       2.120  -6.684  23.010  0.00  0.00    +0.026 A 
ATOM     20  C   UNL     1       1.480  -7.570  23.879  0.00  0.00    +0.002 A 
ATOM     21  C   UNL     1       2.043  -7.899  25.105  0.00  0.00    +0.001 A 
ATOM     22  C   UNL     1       3.267  -7.351  25.503  0.00  0.00    +0.010 A 
ATOM     23  C   UNL     1       3.958  -6.451  24.663  0.00  0.00    +0.008 A 
ATOM     24  C   UNL     1       8.182  -4.897  26.626  0.00  0.00    +0.141 C 
ATOM     25  C   UNL     1       5.171  -5.730  24.737  0.00  0.00    +0.022 A 
ATOM     26  N   UNL     1       7.491  -5.819  27.511  0.00  0.00    -0.307 N 
ATOM     27  H   UNL     1       7.832  -6.107  28.416  0.00  0.00    +0.149 HD
ENDROOT
TORSDOF 0
ENDMDL
MODEL 3
REMARK VINA RESULT:      -7.8      4.402      6.698
REMARK  Name = 
REMARK  0 active torsions:
REMARK  status: ('A' for Active; 'I' for Inactive)
REMARK                            x       y       z     vdW  Elec       q    Type
REMARK                         _______ _______ _______ _____ _____    ______ ____
ROOT
ATOM      1  O   UNL     1      10.045   1.819  21.552  0.00  0.00    -0.270 OA
ATOM      2  C   UNL     1       9.773   0.778  22.135  0.00  0.00    +0.245 C 
ATOM      3  C   UNL     1       9.143   0.463  23.378  0.00  0.00    +0.052 A 
ATOM      4  C   UNL     1       9.092  -0.947  23.543  0.00  0.00    -0.008 A 
ATOM      5  C   UNL     1       8.503  -1.493  24.715  0.00  0.00    +0.015 A 
ATOM      6  C   UNL     1       8.381  -2.850  25.011  0.00  0.00    +0.008 A 
ATOM      7  C   UNL     1       7.738  -2.846  26.265  0.00  0.00    +0.048 A 
ATOM      8  C   UNL     1       7.414  -4.025  26.947  0.00  0.00    +0.026 A 
ATOM      9  C   UNL     1       7.750  -5.241  26.345  0.00  0.00    +0.002 A 
ATOM     10  C   UNL     1       8.386  -5.275  25.106  0.00  0.00    +0.001 A 
ATOM     11  N   UNL     1       7.513  -1.523  26.644  0.00  0.00    -0.353 N 
ATOM     12  H   UNL     1       7.065  -1.251  27.504  0.00  0.00    +0.166 HD
ATOM     13  C   UNL     1       8.706  -4.091  24.430  0.00  0.00    +0.010 A 
ATOM     14  C   UNL     1       7.987  -0.674  25.682  0.00  0.00    +0.072 A 
ATOM     15  C   UNL     1       7.990   0.684  25.615  0.00  0.00    +0.072 A 
ATOM     16  N   UNL     1       7.510   1.582  26.511  0.00  0.00    -0.352 N 
ATOM     17  H   UNL     1       7.059   1.412  27.397  0.00  0.00    +0.166 HD
ATOM     18  C   UNL     1       7.805   2.794  25.881  0.00  0.00    +0.048 A 
ATOM     19  C   UNL     1       7.535   4.090  26.349  0.00  0.00    +0.026 A 
ATOM     20  C   UNL     1       7.912   5.182  25.566  0.00  0.00    +0.002 A 
ATOM     21  C   UNL     1       8.545   5.000  24.343  0.00  0.00    +0.001 A 
ATOM     22  C   UNL     1       8.819   3.714  23.863  0.00  0.00    +0.010 A 
ATOM     23  C   UNL     1       8.460   2.574  24.614  0.00  0.00    +0.008 A 
ATOM     24  C   UNL     1       9.701  -1.624  22.390  0.00  0.00    +0.141 C 
ATOM     25  C   UNL     1       8.578   1.176  24.446  0.00  0.00    +0.022 A 
ATOM     26  N   UNL     1      10.079  -0.468  21.595  0.00  0.00    -0.307 N 
ATOM     27  H   UNL     1      10.540  -0.516  20.699  0.00  0.00    +0.149 HD
ENDROOT
TORSDOF 0
ENDMDL
MODEL 4
REMARK VINA RESULT:      -7.7      4.922      8.980
REMARK  Name = 
REMARK  0 active torsions:
REMARK  status: ('A' for Active; 'I' for Inactive)
REMARK                            x       y       z     vdW  Elec       q    Type
REMARK                         _______ _______ _______ _____ _____    ______ ____
ROOT
ATOM      1  O   UNL     1       4.811   0.126  25.367  0.00  0.00    -0.270 OA
ATOM      2  C   UNL     1       5.647   0.982  25.114  0.00  0.00    +0.245 C 
ATOM      3  C   UNL     1       7.031   0.956  24.762  0.00  0.00    +0.052 A 
ATOM      4  C   UNL     1       7.503   2.283  24.578  0.00  0.00    -0.008 A 
ATOM      5  C   UNL     1       8.861   2.499  24.220  0.00  0.00    +0.015 A 
ATOM      6  C   UNL     1       9.461   3.740  24.006  0.00  0.00    +0.008 A 
ATOM      7  C   UNL     1      10.790   3.399  23.683  0.00  0.00    +0.048 A 
ATOM      8  C   UNL     1      11.761   4.364  23.388  0.00  0.00    +0.026 A 
ATOM      9  C   UNL     1      11.379   5.707  23.419  0.00  0.00    +0.002 A 
ATOM     10  C   UNL     1      10.073   6.072  23.735  0.00  0.00    +0.001 A 
ATOM     11  N   UNL     1      10.913   2.012  23.719  0.00  0.00    -0.353 N 
ATOM     12  H   UNL     1      11.769   1.516  23.524  0.00  0.00    +0.166 HD
ATOM     13  C   UNL     1       9.106   5.102  24.030  0.00  0.00    +0.010 A 
ATOM     14  C   UNL     1       9.715   1.443  24.053  0.00  0.00    +0.072 A 
ATOM     15  C   UNL     1       9.358   0.141  24.207  0.00  0.00    +0.072 A 
ATOM     16  N   UNL     1      10.119  -0.973  24.066  0.00  0.00    -0.352 N 
ATOM     17  H   UNL     1      11.095  -1.046  23.821  0.00  0.00    +0.166 HD
ATOM     18  C   UNL     1       9.196  -1.984  24.351  0.00  0.00    +0.048 A 
ATOM     19  C   UNL     1       9.420  -3.369  24.361  0.00  0.00    +0.026 A 
ATOM     20  C   UNL     1       8.359  -4.222  24.674  0.00  0.00    +0.002 A 
ATOM     21  C   UNL     1       7.101  -3.716  24.972  0.00  0.00    +0.001 A 
ATOM     22  C   UNL     1       6.862  -2.337  24.965  0.00  0.00    +0.010 A 
ATOM     23  C   UNL     1       7.899  -1.429  24.656  0.00  0.00    +0.008 A 
ATOM     24  C   UNL     1       6.422   3.251  24.810  0.00  0.00    +0.141 C 
ATOM     25  C   UNL     1       8.015  -0.024  24.558  0.00  0.00    +0.022 A 
ATOM     26  N   UNL     1       5.337   2.339  25.129  0.00  0.00    -0.307 N 
ATOM     27  H   UNL     1       4.396   2.627  25.355  0.00  0.00    +0.149 HD
ENDROOT
TORSDOF 0
ENDMDL
MODEL 5
REMARK VINA RESULT:      -7.5      5.075      7.381
REMARK  Name = 
REMARK  0 active torsions:
REMARK  status: ('A' for Active; 'I' for Inactive)
REMARK                            x       y       z     vdW  Elec       q    Type
REMARK                         _______ _______ _______ _____ _____    ______ ____
ROOT
ATOM      1  O   UNL     1       6.074   4.279  24.514  0.00  0.00    -0.270 OA
ATOM      2  C   UNL     1       6.298   3.077  24.545  0.00  0.00    +0.245 C 
ATOM      3  C   UNL     1       7.465   2.271  24.375  0.00  0.00    +0.052 A 
ATOM      4  C   UNL     1       7.125   0.899  24.524  0.00  0.00    -0.008 A 
ATOM      5  C   UNL     1       8.137  -0.089  24.396  0.00  0.00    +0.015 A 
ATOM      6  C   UNL     1       7.953  -1.466  24.519  0.00  0.00    +0.008 A 
ATOM      7  C   UNL     1       9.248  -1.981  24.306  0.00  0.00    +0.048 A 
ATOM      8  C   UNL     1       9.525  -3.353  24.341  0.00  0.00    +0.026 A 
ATOM      9  C   UNL     1       8.466  -4.227  24.598  0.00  0.00    +0.002 A 
ATOM     10  C   UNL     1       7.177  -3.746  24.811  0.00  0.00    +0.001 A 
ATOM     11  N   UNL     1      10.116  -0.915  24.075  0.00  0.00    -0.353 N 
ATOM     12  H   UNL     1      11.102  -1.020  23.896  0.00  0.00    +0.166 HD
ATOM     13  C   UNL     1       6.906  -2.372  24.775  0.00  0.00    +0.010 A 
ATOM     14  C   UNL     1       9.431   0.267  24.130  0.00  0.00    +0.072 A 
ATOM     15  C   UNL     1       9.852   1.550  23.969  0.00  0.00    +0.072 A 
ATOM     16  N   UNL     1      11.101   2.009  23.704  0.00  0.00    -0.352 N 
ATOM     17  H   UNL     1      11.954   1.486  23.576  0.00  0.00    +0.166 HD
ATOM     18  C   UNL     1      10.890   3.390  23.657  0.00  0.00    +0.048 A 
ATOM     19  C   UNL     1      11.841   4.394  23.414  0.00  0.00    +0.026 A 
ATOM     20  C   UNL     1      11.427   5.727  23.407  0.00  0.00    +0.002 A 
ATOM     21  C   UNL     1      10.099   6.064  23.636  0.00  0.00    +0.001 A 
ATOM     22  C   UNL     1       9.140   5.075  23.881  0.00  0.00    +0.010 A 
ATOM     23  C   UNL     1       9.503   3.710  23.898  0.00  0.00    +0.008 A 
ATOM     24  C   UNL     1       5.691   0.752  24.803  0.00  0.00    +0.141 C 
ATOM     25  C   UNL     1       8.825   2.488  24.105  0.00  0.00    +0.022 A 
ATOM     26  N   UNL     1       5.291   2.148  24.793  0.00  0.00    -0.307 N 
ATOM     27  H   UNL     1       4.348   2.474  24.951  0.00  0.00    +0.149 HD
ENDROOT
TORSDOF 0
ENDMDL
MODEL 6
REMARK VINA RESULT:      -7.5      4.514      8.107
REMARK  Name = 
REMARK  0 active torsions:
REMARK  status: ('A' for Active; 'I' for Inactive)
REMARK                            x       y       z     vdW  Elec       q    Type
REMARK                         _______ _______ _______ _____ _____    ______ ____
ROOT
ATOM      1  O   UNL     1      10.255  -1.881  21.949  0.00  0.00    -0.270 OA
ATOM      2  C   UNL     1       9.902  -0.836  22.478  0.00  0.00    +0.245 C 
ATOM      3  C   UNL     1       9.214  -0.509  23.687  0.00  0.00    +0.052 A 
ATOM      4  C   UNL     1       9.076   0.902  23.791  0.00  0.00    -0.008 A 
ATOM      5  C   UNL     1       8.421   1.458  24.922  0.00  0.00    +0.015 A 
ATOM      6  C   UNL     1       8.214   2.817  25.158  0.00  0.00    +0.008 A 
ATOM      7  C   UNL     1       7.532   2.825  26.391  0.00  0.00    +0.048 A 
ATOM      8  C   UNL     1       7.121   4.010  27.015  0.00  0.00    +0.026 A 
ATOM      9  C   UNL     1       7.408   5.218  26.374  0.00  0.00    +0.002 A 
ATOM     10  C   UNL     1       8.082   5.240  25.155  0.00  0.00    +0.001 A 
ATOM     11  N   UNL     1       7.370   1.508  26.817  0.00  0.00    -0.353 N 
ATOM     12  H   UNL     1       6.912   1.244  27.676  0.00  0.00    +0.166 HD
ATOM     13  C   UNL     1       8.489   4.050  24.537  0.00  0.00    +0.010 A 
ATOM     14  C   UNL     1       7.922   0.650  25.907  0.00  0.00    +0.072 A 
ATOM     15  C   UNL     1       8.005  -0.707  25.896  0.00  0.00    +0.072 A 
ATOM     16  N   UNL     1       7.547  -1.596  26.814  0.00  0.00    -0.352 N 
ATOM     17  H   UNL     1       7.059  -1.417  27.678  0.00  0.00    +0.166 HD
ATOM     18  C   UNL     1       7.931  -2.813  26.244  0.00  0.00    +0.048 A 
ATOM     19  C   UNL     1       7.720  -4.102  26.757  0.00  0.00    +0.026 A 
ATOM     20  C   UNL     1       8.183  -5.201  26.030  0.00  0.00    +0.002 A 
ATOM     21  C   UNL     1       8.842  -5.031  24.820  0.00  0.00    +0.001 A 
ATOM     22  C   UNL     1       9.060  -3.751  24.296  0.00  0.00    +0.010 A 
ATOM     23  C   UNL     1       8.613  -2.605  24.989  0.00  0.00    +0.008 A 
ATOM     24  C   UNL     1       9.680   1.566  22.628  0.00  0.00    +0.141 C 
ATOM     25  C   UNL     1       8.658  -1.210  24.767  0.00  0.00    +0.022 A 
ATOM     26  N   UNL     1      10.153   0.403  21.896  0.00  0.00    -0.307 N 
ATOM     27  H   UNL     1      10.639   0.443  21.012  0.00  0.00    +0.149 HD
ENDROOT
TORSDOF 0
ENDMDL
MODEL 7
REMARK VINA RESULT:      -7.4      2.314      6.990
REMARK  Name = 
REMARK  0 active torsions:
REMARK  status: ('A' for Active; 'I' for Inactive)
REMARK                            x       y       z     vdW  Elec       q    Type
REMARK                         _______ _______ _______ _____ _____    ______ ____
ROOT
ATOM      1  O   UNL     1       4.909  -6.017  22.502  0.00  0.00    -0.270 OA
ATOM      2  C   UNL     1       5.685  -5.072  22.509  0.00  0.00    +0.245 C 
ATOM      3  C   UNL     1       6.398  -4.370  23.529  0.00  0.00    +0.052 A 
ATOM      4  C   UNL     1       7.173  -3.334  22.943  0.00  0.00    -0.008 A 
ATOM      5  C   UNL     1       7.970  -2.501  23.775  0.00  0.00    +0.015 A 
ATOM      6  C   UNL     1       8.779  -1.451  23.343  0.00  0.00    +0.008 A 
ATOM      7  C   UNL     1       9.337  -0.965  24.542  0.00  0.00    +0.048 A 
ATOM      8  C   UNL     1      10.230   0.113  24.572  0.00  0.00    +0.026 A 
ATOM      9  C   UNL     1      10.568   0.715  23.357  0.00  0.00    +0.002 A 
ATOM     10  C   UNL     1      10.032   0.255  22.157  0.00  0.00    +0.001 A 
ATOM     11  N   UNL     1       8.847  -1.728  25.600  0.00  0.00    -0.353 N 
ATOM     12  H   UNL     1       9.097  -1.580  26.566  0.00  0.00    +0.166 HD
ATOM     13  C   UNL     1       9.139  -0.824  22.134  0.00  0.00    +0.010 A 
ATOM     14  C   UNL     1       7.994  -2.688  25.130  0.00  0.00    +0.072 A 
ATOM     15  C   UNL     1       7.288  -3.650  25.781  0.00  0.00    +0.072 A 
ATOM     16  N   UNL     1       7.241  -3.919  27.110  0.00  0.00    -0.352 N 
ATOM     17  H   UNL     1       7.721  -3.456  27.867  0.00  0.00    +0.166 HD
ATOM     18  C   UNL     1       6.355  -5.000  27.148  0.00  0.00    +0.048 A 
ATOM     19  C   UNL     1       5.919  -5.710  28.278  0.00  0.00    +0.026 A 
ATOM     20  C   UNL     1       5.024  -6.767  28.105  0.00  0.00    +0.002 A 
ATOM     21  C   UNL     1       4.568  -7.118  26.841  0.00  0.00    +0.001 A 
ATOM     22  C   UNL     1       4.995  -6.420  25.706  0.00  0.00    +0.010 A 
ATOM     23  C   UNL     1       5.898  -5.342  25.822  0.00  0.00    +0.008 A 
ATOM     24  C   UNL     1       6.993  -3.317  21.485  0.00  0.00    +0.141 C 
ATOM     25  C   UNL     1       6.521  -4.445  24.925  0.00  0.00    +0.022 A 
ATOM     26  N   UNL     1       6.065  -4.424  21.337  0.00  0.00    -0.307 N 
ATOM     27  H   UNL     1       5.688  -4.740  20.456  0.00  0.00    +0.149 HD
ENDROOT
TORSDOF 0
ENDMDL
MODEL 8
REMARK VINA RESULT:      -7.4      4.694      6.847
REMARK  Name = 
REMARK  0 active torsions:
REMARK  status: ('A' for Active; 'I' for Inactive)
REMARK                            x       y       z     vdW  Elec       q    Type
REMARK                         _______ _______ _______ _____ _____    ______ ____
ROOT
ATOM      1  O   UNL     1      10.921   3.334  23.735  0.00  0.00    -0.270 OA
ATOM      2  C   UNL     1      10.499   2.187  23.790  0.00  0.00    +0.245 C 
ATOM      3  C   UNL     1       9.214   1.585  23.628  0.00  0.00    +0.052 A 
ATOM      4  C   UNL     1       9.319   0.180  23.805  0.00  0.00    -0.008 A 
ATOM      5  C   UNL     1       8.156  -0.628  23.688  0.00  0.00    +0.015 A 
ATOM      6  C   UNL     1       8.107  -2.014  23.833  0.00  0.00    +0.008 A 
ATOM      7  C   UNL     1       6.745  -2.309  23.624  0.00  0.00    +0.048 A 
ATOM      8  C   UNL     1       6.242  -3.615  23.679  0.00  0.00    +0.026 A 
ATOM      9  C   UNL     1       7.140  -4.649  23.953  0.00  0.00    +0.002 A 
ATOM     10  C   UNL     1       8.492  -4.387  24.165  0.00  0.00    +0.001 A 
ATOM     11  N   UNL     1       6.068  -1.118  23.370  0.00  0.00    -0.353 N 
ATOM     12  H   UNL     1       5.078  -1.059  23.186  0.00  0.00    +0.166 HD
ATOM     13  C   UNL     1       8.988  -3.079  24.108  0.00  0.00    +0.010 A 
ATOM     14  C   UNL     1       6.941  -0.065  23.408  0.00  0.00    +0.072 A 
ATOM     15  C   UNL     1       6.740   1.266  23.223  0.00  0.00    +0.072 A 
ATOM     16  N   UNL     1       5.586   1.923  22.944  0.00  0.00    -0.352 N 
ATOM     17  H   UNL     1       4.658   1.548  22.821  0.00  0.00    +0.166 HD
ATOM     18  C   UNL     1       6.026   3.248  22.875  0.00  0.00    +0.048 A 
ATOM     19  C   UNL     1       5.257   4.392  22.610  0.00  0.00    +0.026 A 
ATOM     20  C   UNL     1       5.887   5.638  22.584  0.00  0.00    +0.002 A 
ATOM     21  C   UNL     1       7.252   5.752  22.815  0.00  0.00    +0.001 A 
ATOM     22  C   UNL     1       8.032   4.621  23.079  0.00  0.00    +0.010 A 
ATOM     23  C   UNL     1       7.446   3.337  23.118  0.00  0.00    +0.008 A 
ATOM     24  C   UNL     1      10.707  -0.201  24.097  0.00  0.00    +0.141 C 
ATOM     25  C   UNL     1       7.910   2.022  23.347  0.00  0.00    +0.022 A 
ATOM     26  N   UNL     1      11.336   1.108  24.060  0.00  0.00    -0.307 N 
ATOM     27  H   UNL     1      12.319   1.275  24.217  0.00  0.00    +0.149 HD
ENDROOT
TORSDOF 0
ENDMDL
MODEL 9
REMARK VINA RESULT:      -7.3      3.505      4.706
REMARK  Name = 
REMARK  0 active torsions:
REMARK  status: ('A' for Active; 'I' for Inactive)
REMARK                            x       y       z     vdW  Elec       q    Type
REMARK                         _______ _______ _______ _____ _____    ______ ____
ROOT
ATOM      1  O   UNL     1       5.694   1.382  26.544  0.00  0.00    -0.270 OA
ATOM      2  C   UNL     1       5.669   0.287  25.998  0.00  0.00    +0.245 C 
ATOM      3  C   UNL     1       6.436  -0.334  24.965  0.00  0.00    +0.052 A 
ATOM      4  C   UNL     1       5.949  -1.649  24.734  0.00  0.00    -0.008 A 
ATOM      5  C   UNL     1       6.567  -2.459  23.743  0.00  0.00    +0.015 A 
ATOM      6  C   UNL     1       6.201  -3.762  23.410  0.00  0.00    +0.008 A 
ATOM      7  C   UNL     1       7.114  -4.098  22.390  0.00  0.00    +0.048 A 
ATOM      8  C   UNL     1       7.104  -5.346  21.754  0.00  0.00    +0.026 A 
ATOM      9  C   UNL     1       6.146  -6.278  22.161  0.00  0.00    +0.002 A 
ATOM     10  C   UNL     1       5.232  -5.973  23.167  0.00  0.00    +0.001 A 
ATOM     11  N   UNL     1       7.956  -3.009  22.172  0.00  0.00    -0.353 N 
ATOM     12  H   UNL     1       8.699  -2.998  21.491  0.00  0.00    +0.166 HD
ATOM     13  C   UNL     1       5.247  -4.723  23.798  0.00  0.00    +0.010 A 
ATOM     14  C   UNL     1       7.622  -1.983  23.012  0.00  0.00    +0.072 A 
ATOM     15  C   UNL     1       8.156  -0.742  23.160  0.00  0.00    +0.072 A 
ATOM     16  N   UNL     1       9.193  -0.176  22.493  0.00  0.00    -0.352 N 
ATOM     17  H   UNL     1       9.763  -0.569  21.760  0.00  0.00    +0.166 HD
ATOM     18  C   UNL     1       9.255   1.087  23.088  0.00  0.00    +0.048 A 
ATOM     19  C   UNL     1      10.152   2.127  22.796  0.00  0.00    +0.026 A 
ATOM     20  C   UNL     1      10.051   3.324  23.507  0.00  0.00    +0.002 A 
ATOM     21  C   UNL     1       9.083   3.492  24.489  0.00  0.00    +0.001 A 
ATOM     22  C   UNL     1       8.184   2.463  24.793  0.00  0.00    +0.010 A 
ATOM     23  C   UNL     1       8.240   1.232  24.103  0.00  0.00    +0.008 A 
ATOM     24  C   UNL     1       4.820  -1.945  25.625  0.00  0.00    +0.141 C 
ATOM     25  C   UNL     1       7.519   0.018  24.145  0.00  0.00    +0.022 A 
ATOM     26  N   UNL     1       4.741  -0.689  26.351  0.00  0.00    -0.307 N 
ATOM     27  H   UNL     1       4.069  -0.490  27.077  0.00  0.00    +0.149 HD
ENDROOT
TORSDOF 0
ENDMDL
