MODEL 1
REMARK VINA RESULT:      -5.0      0.000      0.000
REMARK  Name = 
REMARK  8 active torsions:
REMARK  status: ('A' for Active; 'I' for Inactive)
REMARK    1  A    between atoms: O_1  and  C_2
REMARK    2  A    between atoms: C_2  and  C_3
REMARK    3  A    between atoms: C_3  and  N_4
REMARK    4  A    between atoms: C_6  and  O_8
REMARK    5  A    between atoms: C_9  and  O_11
REMARK    6  A    between atoms: C_12  and  O_14
REMARK    7  A    between atoms: C_15  and  C_17
REMARK    8  A    between atoms: C_17  and  O_18
REMARK                            x       y       z     vdW  Elec       q    Type
REMARK                         _______ _______ _______ _____ _____    ______ ____
ROOT
ATOM      1  N   UNL     1       6.361  -4.306  24.452  0.00  0.00    -0.290 NA
ATOM      2  C   UNL     1       7.556  -3.450  24.123  0.00  0.00    +0.113 C 
ATOM      3  C   UNL     1       8.902  -4.181  24.327  0.00  0.00    +0.165 C 
ATOM      4  C   UNL     1       9.017  -4.722  25.758  0.00  0.00    +0.174 C 
ATOM      5  C   UNL     1       7.772  -5.518  26.183  0.00  0.00    +0.159 C 
ATOM      6  C   UNL     1       6.486  -4.728  25.864  0.00  0.00    +0.119 C 
ENDROOT
BRANCH   3   7
ATOM      7  O   UNL     1      10.014  -3.309  24.085  0.00  0.00    -0.388 OA
ATOM      8  H   UNL     1      10.003  -3.143  23.120  0.00  0.00    +0.210 HD
ENDBRANCH   3   7
BRANCH   4   9
ATOM      9  O   UNL     1      10.211  -5.529  25.798  0.00  0.00    -0.387 OA
ATOM     10  H   UNL     1      10.711  -5.271  26.592  0.00  0.00    +0.210 HD
ENDBRANCH   4   9
BRANCH   5  11
ATOM     11  O   UNL     1       7.863  -5.793  27.585  0.00  0.00    -0.388 OA
ATOM     12  H   UNL     1       8.549  -6.472  27.718  0.00  0.00    +0.210 HD
ENDBRANCH   5  11
BRANCH   1  13
ATOM     13  C   UNL     1       6.219  -5.462  23.532  0.00  0.00    +0.112 C 
BRANCH  13  14
ATOM     14  C   UNL     1       4.778  -5.976  23.356  0.00  0.00    +0.171 C 
BRANCH  14  15
ATOM     15  O   UNL     1       4.707  -7.328  23.802  0.00  0.00    -0.394 OA
ATOM     16  H   UNL     1       5.612  -7.683  23.787  0.00  0.00    +0.209 HD
ENDBRANCH  14  15
ENDBRANCH  13  14
ENDBRANCH   1  13
BRANCH   2  17
ATOM     17  C   UNL     1       7.472  -2.786  22.737  0.00  0.00    +0.177 C 
BRANCH  17  18
ATOM     18  O   UNL     1       8.157  -1.530  22.757  0.00  0.00    -0.393 OA
ATOM     19  H   UNL     1       7.547  -0.896  22.336  0.00  0.00    +0.209 HD
ENDBRANCH  17  18
ENDBRANCH   2  17
TORSDOF 8
ENDMDL
MODEL 2
REMARK VINA RESULT:      -4.7      2.083      3.312
REMARK  Name = 
REMARK  8 active torsions:
REMARK  status: ('A' for Active; 'I' for Inactive)
REMARK    1  A    between atoms: O_1  and  C_2
REMARK    2  A    between atoms: C_2  and  C_3
REMARK    3  A    between atoms: C_3  and  N_4
REMARK    4  A    between atoms: C_6  and  O_8
REMARK    5  A    between atoms: C_9  and  O_11
REMARK    6  A    between atoms: C_12  and  O_14
REMARK    7  A    between atoms: C_15  and  C_17
REMARK    8  A    between atoms: C_17  and  O_18
REMARK                            x       y       z     vdW  Elec       q    Type
REMARK                         _______ _______ _______ _____ _____    ______ ____
ROOT
ATOM      1  N   UNL     1       7.210  -4.282  23.903  0.00  0.00    -0.290 NA
ATOM      2  C   UNL     1       7.955  -4.421  25.204  0.00  0.00    +0.113 C 
ATOM      3  C   UNL     1       7.479  -5.622  26.053  0.00  0.00    +0.165 C 
ATOM      4  C   UNL     1       5.969  -5.540  26.314  0.00  0.00    +0.174 C 
ATOM      5  C   UNL     1       5.166  -5.292  25.026  0.00  0.00    +0.159 C 
ATOM      6  C   UNL     1       5.774  -4.124  24.223  0.00  0.00    +0.119 C 
ENDROOT
BRANCH   3   7
ATOM      7  O   UNL     1       8.152  -5.671  27.317  0.00  0.00    -0.388 OA
ATOM      8  H   UNL     1       7.971  -4.805  27.737  0.00  0.00    +0.210 HD
ENDBRANCH   3   7
BRANCH   4   9
ATOM      9  O   UNL     1       5.594  -6.777  26.952  0.00  0.00    -0.387 OA
ATOM     10  H   UNL     1       4.632  -6.882  26.841  0.00  0.00    +0.210 HD
ENDBRANCH   4   9
BRANCH   5  11
ATOM     11  O   UNL     1       3.809  -5.008  25.382  0.00  0.00    -0.388 OA
ATOM     12  H   UNL     1       3.227  -5.504  24.778  0.00  0.00    +0.210 HD
ENDBRANCH   5  11
BRANCH   1  13
ATOM     13  C   UNL     1       7.456  -5.420  22.981  0.00  0.00    +0.112 C 
BRANCH  13  14
ATOM     14  C   UNL     1       6.723  -5.330  21.630  0.00  0.00    +0.171 C 
BRANCH  14  15
ATOM     15  O   UNL     1       5.801  -6.411  21.527  0.00  0.00    -0.394 OA
ATOM     16  H   UNL     1       6.296  -7.229  21.705  0.00  0.00    +0.209 HD
ENDBRANCH  14  15
ENDBRANCH  13  14
ENDBRANCH   1  13
BRANCH   2  17
ATOM     17  C   UNL     1       9.486  -4.413  25.039  0.00  0.00    +0.177 C 
BRANCH  17  18
ATOM     18  O   UNL     1      10.007  -5.723  25.276  0.00  0.00    -0.393 OA
ATOM     19  H   UNL     1       9.240  -6.263  25.546  0.00  0.00    +0.209 HD
ENDBRANCH  17  18
ENDBRANCH   2  17
TORSDOF 8
ENDMDL
MODEL 3
REMARK VINA RESULT:      -4.7      1.431      4.000
REMARK  Name = 
REMARK  8 active torsions:
REMARK  status: ('A' for Active; 'I' for Inactive)
REMARK    1  A    between atoms: O_1  and  C_2
REMARK    2  A    between atoms: C_2  and  C_3
REMARK    3  A    between atoms: C_3  and  N_4
REMARK    4  A    between atoms: C_6  and  O_8
REMARK    5  A    between atoms: C_9  and  O_11
REMARK    6  A    between atoms: C_12  and  O_14
REMARK    7  A    between atoms: C_15  and  C_17
REMARK    8  A    between atoms: C_17  and  O_18
REMARK                            x       y       z     vdW  Elec       q    Type
REMARK                         _______ _______ _______ _____ _____    ______ ____
ROOT
ATOM      1  N   UNL     1       7.017  -5.221  25.066  0.00  0.00    -0.290 NA
ATOM      2  C   UNL     1       8.070  -4.552  24.223  0.00  0.00    +0.113 C 
ATOM      3  C   UNL     1       7.591  -3.226  23.589  0.00  0.00    +0.165 C 
ATOM      4  C   UNL     1       6.316  -3.447  22.765  0.00  0.00    +0.174 C 
ATOM      5  C   UNL     1       5.242  -4.222  23.547  0.00  0.00    +0.159 C 
ATOM      6  C   UNL     1       5.848  -5.482  24.199  0.00  0.00    +0.119 C 
ENDROOT
BRANCH   3   7
ATOM      7  O   UNL     1       8.591  -2.664  22.729  0.00  0.00    -0.388 OA
ATOM      8  H   UNL     1       9.443  -2.840  23.179  0.00  0.00    +0.210 HD
ENDBRANCH   3   7
BRANCH   4   9
ATOM      9  O   UNL     1       5.853  -2.141  22.366  0.00  0.00    -0.387 OA
ATOM     10  H   UNL     1       6.528  -1.496  22.642  0.00  0.00    +0.210 HD
ENDBRANCH   4   9
BRANCH   5  11
ATOM     11  O   UNL     1       4.187  -4.575  22.646  0.00  0.00    -0.388 OA
ATOM     12  H   UNL     1       4.509  -4.443  21.736  0.00  0.00    +0.210 HD
ENDBRANCH   5  11
BRANCH   1  13
ATOM     13  C   UNL     1       6.658  -4.425  26.266  0.00  0.00    +0.112 C 
BRANCH  13  14
ATOM     14  C   UNL     1       6.763  -5.184  27.602  0.00  0.00    +0.171 C 
BRANCH  14  15
ATOM     15  O   UNL     1       7.888  -6.056  27.556  0.00  0.00    -0.394 OA
ATOM     16  H   UNL     1       8.489  -5.787  28.272  0.00  0.00    +0.209 HD
ENDBRANCH  14  15
ENDBRANCH  13  14
ENDBRANCH   1  13
BRANCH   2  17
ATOM     17  C   UNL     1       9.419  -4.382  24.946  0.00  0.00    +0.177 C 
BRANCH  17  18
ATOM     18  O   UNL     1       9.944  -5.664  25.302  0.00  0.00    -0.393 OA
ATOM     19  H   UNL     1      10.277  -5.564  26.214  0.00  0.00    +0.209 HD
ENDBRANCH  17  18
ENDBRANCH   2  17
TORSDOF 8
ENDMDL
MODEL 4
REMARK VINA RESULT:      -4.7      4.882      6.475
REMARK  Name = 
REMARK  8 active torsions:
REMARK  status: ('A' for Active; 'I' for Inactive)
REMARK    1  A    between atoms: O_1  and  C_2
REMARK    2  A    between atoms: C_2  and  C_3
REMARK    3  A    between atoms: C_3  and  N_4
REMARK    4  A    between atoms: C_6  and  O_8
REMARK    5  A    between atoms: C_9  and  O_11
REMARK    6  A    between atoms: C_12  and  O_14
REMARK    7  A    between atoms: C_15  and  C_17
REMARK    8  A    between atoms: C_17  and  O_18
REMARK                            x       y       z     vdW  Elec       q    Type
REMARK                         _______ _______ _______ _____ _____    ______ ____
ROOT
ATOM      1  N   UNL     1       9.376   0.803  24.955  0.00  0.00    -0.290 NA
ATOM      2  C   UNL     1       9.856   1.698  23.844  0.00  0.00    +0.113 C 
ATOM      3  C   UNL     1       9.490   1.173  22.437  0.00  0.00    +0.165 C 
ATOM      4  C   UNL     1      10.020  -0.252  22.234  0.00  0.00    +0.174 C 
ATOM      5  C   UNL     1       9.646  -1.186  23.396  0.00  0.00    +0.159 C 
ATOM      6  C   UNL     1       9.984  -0.530  24.751  0.00  0.00    +0.119 C 
ENDROOT
BRANCH   3   7
ATOM      7  O   UNL     1      10.036   2.008  21.407  0.00  0.00    -0.388 OA
ATOM      8  H   UNL     1       9.354   2.691  21.243  0.00  0.00    +0.210 HD
ENDBRANCH   3   7
BRANCH   4   9
ATOM      9  O   UNL     1       9.484  -0.715  20.978  0.00  0.00    -0.387 OA
ATOM     10  H   UNL     1       9.559  -1.686  20.969  0.00  0.00    +0.210 HD
ENDBRANCH   4   9
BRANCH   5  11
ATOM     11  O   UNL     1      10.358  -2.418  23.239  0.00  0.00    -0.388 OA
ATOM     12  H   UNL     1       9.982  -2.891  22.475  0.00  0.00    +0.210 HD
ENDBRANCH   5  11
BRANCH   1  13
ATOM     13  C   UNL     1       7.895   0.737  25.033  0.00  0.00    +0.112 C 
BRANCH  13  14
ATOM     14  C   UNL     1       7.297   1.182  26.380  0.00  0.00    +0.171 C 
BRANCH  14  15
ATOM     15  O   UNL     1       8.013   0.553  27.440  0.00  0.00    -0.394 OA
ATOM     16  H   UNL     1       8.358   1.260  28.011  0.00  0.00    +0.209 HD
ENDBRANCH  14  15
ENDBRANCH  13  14
ENDBRANCH   1  13
BRANCH   2  17
ATOM     17  C   UNL     1       9.449   3.172  24.025  0.00  0.00    +0.177 C 
BRANCH  17  18
ATOM     18  O   UNL     1      10.368   4.019  23.328  0.00  0.00    -0.393 OA
ATOM     19  H   UNL     1      11.164   3.474  23.184  0.00  0.00    +0.209 HD
ENDBRANCH  17  18
ENDBRANCH   2  17
TORSDOF 8
ENDMDL
MODEL 5
REMARK VINA RESULT:      -4.6      3.390      5.737
REMARK  Name = 
REMARK  8 active torsions:
REMARK  status: ('A' for Active; 'I' for Inactive)
REMARK    1  A    between atoms: O_1  and  C_2
REMARK    2  A    between atoms: C_2  and  C_3
REMARK    3  A    between atoms: C_3  and  N_4
REMARK    4  A    between atoms: C_6  and  O_8
REMARK    5  A    between atoms: C_9  and  O_11
REMARK    6  A    between atoms: C_12  and  O_14
REMARK    7  A    between atoms: C_15  and  C_17
REMARK    8  A    between atoms: C_17  and  O_18
REMARK                            x       y       z     vdW  Elec       q    Type
REMARK                         _______ _______ _______ _____ _____    ______ ____
ROOT
ATOM      1  N   UNL     1       8.836  -1.336  22.595  0.00  0.00    -0.290 NA
ATOM      2  C   UNL     1       9.615  -1.220  23.878  0.00  0.00    +0.113 C 
ATOM      3  C   UNL     1       9.452   0.153  24.567  0.00  0.00    +0.165 C 
ATOM      4  C   UNL     1       9.835   1.291  23.611  0.00  0.00    +0.174 C 
ATOM      5  C   UNL     1       9.145   1.161  22.243  0.00  0.00    +0.159 C 
ATOM      6  C   UNL     1       9.307  -0.268  21.686  0.00  0.00    +0.119 C 
ENDROOT
BRANCH   3   7
ATOM      7  O   UNL     1      10.273   0.254  25.738  0.00  0.00    -0.388 OA
ATOM      8  H   UNL     1       9.878   0.978  26.266  0.00  0.00    +0.210 HD
ENDBRANCH   3   7
BRANCH   4   9
ATOM      9  O   UNL     1       9.486   2.522  24.275  0.00  0.00    -0.387 OA
ATOM     10  H   UNL     1      10.120   2.650  25.003  0.00  0.00    +0.210 HD
ENDBRANCH   4   9
BRANCH   5  11
ATOM     11  O   UNL     1       9.721   2.121  21.349  0.00  0.00    -0.388 OA
ATOM     12  H   UNL     1       9.183   2.139  20.537  0.00  0.00    +0.210 HD
ENDBRANCH   5  11
BRANCH   1  13
ATOM     13  C   UNL     1       7.369  -1.280  22.812  0.00  0.00    +0.112 C 
BRANCH  13  14
ATOM     14  C   UNL     1       6.608  -2.564  22.433  0.00  0.00    +0.171 C 
BRANCH  14  15
ATOM     15  O   UNL     1       7.546  -3.610  22.197  0.00  0.00    -0.394 OA
ATOM     16  H   UNL     1       8.017  -3.393  21.374  0.00  0.00    +0.209 HD
ENDBRANCH  14  15
ENDBRANCH  13  14
ENDBRANCH   1  13
BRANCH   2  17
ATOM     17  C   UNL     1       9.362  -2.382  24.857  0.00  0.00    +0.177 C 
BRANCH  17  18
ATOM     18  O   UNL     1       9.757  -3.618  24.256  0.00  0.00    -0.393 OA
ATOM     19  H   UNL     1      10.330  -4.055  24.914  0.00  0.00    +0.209 HD
ENDBRANCH  17  18
ENDBRANCH   2  17
TORSDOF 8
ENDMDL
MODEL 6
REMARK VINA RESULT:      -4.5      1.765      3.938
REMARK  Name = 
REMARK  8 active torsions:
REMARK  status: ('A' for Active; 'I' for Inactive)
REMARK    1  A    between atoms: O_1  and  C_2
REMARK    2  A    between atoms: C_2  and  C_3
REMARK    3  A    between atoms: C_3  and  N_4
REMARK    4  A    between atoms: C_6  and  O_8
REMARK    5  A    between atoms: C_9  and  O_11
REMARK    6  A    between atoms: C_12  and  O_14
REMARK    7  A    between atoms: C_15  and  C_17
REMARK    8  A    between atoms: C_17  and  O_18
REMARK                            x       y       z     vdW  Elec       q    Type
REMARK                         _______ _______ _______ _____ _____    ______ ____
ROOT
ATOM      1  N   UNL     1       8.411  -4.715  23.756  0.00  0.00    -0.290 NA
ATOM      2  C   UNL     1       7.136  -5.364  23.285  0.00  0.00    +0.113 C 
ATOM      3  C   UNL     1       5.947  -5.138  24.246  0.00  0.00    +0.165 C 
ATOM      4  C   UNL     1       6.293  -5.618  25.662  0.00  0.00    +0.174 C 
ATOM      5  C   UNL     1       7.642  -5.067  26.153  0.00  0.00    +0.159 C 
ATOM      6  C   UNL     1       8.735  -5.277  25.085  0.00  0.00    +0.119 C 
ENDROOT
BRANCH   3   7
ATOM      7  O   UNL     1       4.777  -5.839  23.807  0.00  0.00    -0.388 OA
ATOM      8  H   UNL     1       5.061  -6.341  23.016  0.00  0.00    +0.210 HD
ENDBRANCH   3   7
BRANCH   4   9
ATOM      9  O   UNL     1       5.203  -5.209  26.512  0.00  0.00    -0.387 OA
ATOM     10  H   UNL     1       4.376  -5.491  26.083  0.00  0.00    +0.210 HD
ENDBRANCH   4   9
BRANCH   5  11
ATOM     11  O   UNL     1       7.990  -5.731  27.372  0.00  0.00    -0.388 OA
ATOM     12  H   UNL     1       7.305  -5.529  28.034  0.00  0.00    +0.210 HD
ENDBRANCH   5  11
BRANCH   1  13
ATOM     13  C   UNL     1       8.320  -3.233  23.781  0.00  0.00    +0.112 C 
BRANCH  13  14
ATOM     14  C   UNL     1       9.643  -2.509  24.090  0.00  0.00    +0.171 C 
BRANCH  14  15
ATOM     15  O   UNL     1      10.425  -2.438  22.901  0.00  0.00    -0.394 OA
ATOM     16  H   UNL     1       9.868  -2.031  22.216  0.00  0.00    +0.209 HD
ENDBRANCH  14  15
ENDBRANCH  13  14
ENDBRANCH   1  13
BRANCH   2  17
ATOM     17  C   UNL     1       6.769  -5.011  21.832  0.00  0.00    +0.177 C 
BRANCH  17  18
ATOM     18  O   UNL     1       5.588  -4.204  21.812  0.00  0.00    -0.393 OA
ATOM     19  H   UNL     1       5.189  -4.306  22.697  0.00  0.00    +0.209 HD
ENDBRANCH  17  18
ENDBRANCH   2  17
TORSDOF 8
ENDMDL
MODEL 7
REMARK VINA RESULT:      -4.5      1.602      4.863
REMARK  Name = 
REMARK  8 active torsions:
REMARK  status: ('A' for Active; 'I' for Inactive)
REMARK    1  A    between atoms: O_1  and  C_2
REMARK    2  A    between atoms: C_2  and  C_3
REMARK    3  A    between atoms: C_3  and  N_4
REMARK    4  A    between atoms: C_6  and  O_8
REMARK    5  A    between atoms: C_9  and  O_11
REMARK    6  A    between atoms: C_12  and  O_14
REMARK    7  A    between atoms: C_15  and  C_17
REMARK    8  A    between atoms: C_17  and  O_18
REMARK                            x       y       z     vdW  Elec       q    Type
REMARK                         _______ _______ _______ _____ _____    ______ ____
ROOT
ATOM      1  N   UNL     1       6.210  -4.109  24.819  0.00  0.00    -0.290 NA
ATOM      2  C   UNL     1       5.912  -4.951  26.032  0.00  0.00    +0.113 C 
ATOM      3  C   UNL     1       5.479  -6.392  25.681  0.00  0.00    +0.165 C 
ATOM      4  C   UNL     1       4.272  -6.383  24.734  0.00  0.00    +0.174 C 
ATOM      5  C   UNL     1       4.483  -5.453  23.527  0.00  0.00    +0.159 C 
ATOM      6  C   UNL     1       4.987  -4.070  23.989  0.00  0.00    +0.119 C 
ENDROOT
BRANCH   3   7
ATOM      7  O   UNL     1       5.125  -7.134  26.855  0.00  0.00    -0.388 OA
ATOM      8  H   UNL     1       5.756  -7.882  26.885  0.00  0.00    +0.210 HD
ENDBRANCH   3   7
BRANCH   4   9
ATOM      9  O   UNL     1       4.056  -7.749  24.329  0.00  0.00    -0.387 OA
ATOM     10  H   UNL     1       3.279  -7.759  23.741  0.00  0.00    +0.210 HD
ENDBRANCH   4   9
BRANCH   5  11
ATOM     11  O   UNL     1       3.242  -5.330  22.823  0.00  0.00    -0.388 OA
ATOM     12  H   UNL     1       3.401  -4.805  22.019  0.00  0.00    +0.210 HD
ENDBRANCH   5  11
BRANCH   1  13
ATOM     13  C   UNL     1       7.387  -4.602  24.060  0.00  0.00    +0.112 C 
BRANCH  13  14
ATOM     14  C   UNL     1       8.659  -3.746  24.208  0.00  0.00    +0.171 C 
BRANCH  14  15
ATOM     15  O   UNL     1       9.697  -4.545  24.767  0.00  0.00    -0.394 OA
ATOM     16  H   UNL     1       9.858  -5.279  24.150  0.00  0.00    +0.209 HD
ENDBRANCH  14  15
ENDBRANCH  13  14
ENDBRANCH   1  13
BRANCH   2  17
ATOM     17  C   UNL     1       7.038  -4.935  27.082  0.00  0.00    +0.177 C 
BRANCH  17  18
ATOM     18  O   UNL     1       7.900  -6.060  26.888  0.00  0.00    -0.393 OA
ATOM     19  H   UNL     1       8.141  -6.042  25.942  0.00  0.00    +0.209 HD
ENDBRANCH  17  18
ENDBRANCH   2  17
TORSDOF 8
ENDMDL
MODEL 8
REMARK VINA RESULT:      -4.5      1.966      4.305
REMARK  Name = 
REMARK  8 active torsions:
REMARK  status: ('A' for Active; 'I' for Inactive)
REMARK    1  A    between atoms: O_1  and  C_2
REMARK    2  A    between atoms: C_2  and  C_3
REMARK    3  A    between atoms: C_3  and  N_4
REMARK    4  A    between atoms: C_6  and  O_8
REMARK    5  A    between atoms: C_9  and  O_11
REMARK    6  A    between atoms: C_12  and  O_14
REMARK    7  A    between atoms: C_15  and  C_17
REMARK    8  A    between atoms: C_17  and  O_18
REMARK                            x       y       z     vdW  Elec       q    Type
REMARK                         _______ _______ _______ _____ _____    ______ ____
ROOT
ATOM      1  N   UNL     1       6.894  -5.147  24.358  0.00  0.00    -0.290 NA
ATOM      2  C   UNL     1       6.173  -4.990  23.045  0.00  0.00    +0.113 C 
ATOM      3  C   UNL     1       6.317  -3.576  22.437  0.00  0.00    +0.165 C 
ATOM      4  C   UNL     1       5.846  -2.506  23.431  0.00  0.00    +0.174 C 
ATOM      5  C   UNL     1       6.474  -2.685  24.823  0.00  0.00    +0.159 C 
ATOM      6  C   UNL     1       6.340  -4.147  25.296  0.00  0.00    +0.119 C 
ENDROOT
BRANCH   3   7
ATOM      7  O   UNL     1       5.551  -3.441  21.234  0.00  0.00    -0.388 OA
ATOM      8  H   UNL     1       5.293  -2.497  21.199  0.00  0.00    +0.210 HD
ENDBRANCH   3   7
BRANCH   4   9
ATOM      9  O   UNL     1       6.181  -1.229  22.850  0.00  0.00    -0.387 OA
ATOM     10  H   UNL     1       6.867  -0.825  23.411  0.00  0.00    +0.210 HD
ENDBRANCH   4   9
BRANCH   5  11
ATOM     11  O   UNL     1       5.821  -1.796  25.736  0.00  0.00    -0.388 OA
ATOM     12  H   UNL     1       4.887  -2.064  25.804  0.00  0.00    +0.210 HD
ENDBRANCH   5  11
BRANCH   1  13
ATOM     13  C   UNL     1       8.367  -5.028  24.217  0.00  0.00    +0.112 C 
BRANCH  13  14
ATOM     14  C   UNL     1       9.166  -5.315  25.501  0.00  0.00    +0.171 C 
BRANCH  14  15
ATOM     15  O   UNL     1      10.553  -5.387  25.182  0.00  0.00    -0.394 OA
ATOM     16  H   UNL     1      10.847  -6.292  25.384  0.00  0.00    +0.209 HD
ENDBRANCH  14  15
ENDBRANCH  13  14
ENDBRANCH   1  13
BRANCH   2  17
ATOM     17  C   UNL     1       6.516  -6.087  22.021  0.00  0.00    +0.177 C 
BRANCH  17  18
ATOM     18  O   UNL     1       5.404  -6.302  21.148  0.00  0.00    -0.393 OA
ATOM     19  H   UNL     1       4.637  -5.906  21.603  0.00  0.00    +0.209 HD
ENDBRANCH  17  18
ENDBRANCH   2  17
TORSDOF 8
ENDMDL
MODEL 9
REMARK VINA RESULT:      -4.5      1.764      5.208
REMARK  Name = 
REMARK  8 active torsions:
REMARK  status: ('A' for Active; 'I' for Inactive)
REMARK    1  A    between atoms: O_1  and  C_2
REMARK    2  A    between atoms: C_2  and  C_3
REMARK    3  A    between atoms: C_3  and  N_4
REMARK    4  A    between atoms: C_6  and  O_8
REMARK    5  A    between atoms: C_9  and  O_11
REMARK    6  A    between atoms: C_12  and  O_14
REMARK    7  A    between atoms: C_15  and  C_17
REMARK    8  A    between atoms: C_17  and  O_18
REMARK                            x       y       z     vdW  Elec       q    Type
REMARK                         _______ _______ _______ _____ _____    ______ ____
ROOT
ATOM      1  N   UNL     1       6.434  -4.518  25.073  0.00  0.00    -0.290 NA
ATOM      2  C   UNL     1       5.379  -5.589  25.151  0.00  0.00    +0.113 C 
ATOM      3  C   UNL     1       5.253  -6.416  23.851  0.00  0.00    +0.165 C 
ATOM      4  C   UNL     1       4.989  -5.501  22.648  0.00  0.00    +0.174 C 
ATOM      5  C   UNL     1       5.979  -4.326  22.580  0.00  0.00    +0.159 C 
ATOM      6  C   UNL     1       6.082  -3.623  23.949  0.00  0.00    +0.119 C 
ENDROOT
BRANCH   3   7
ATOM      7  O   UNL     1       4.183  -7.367  23.936  0.00  0.00    -0.388 OA
ATOM      8  H   UNL     1       3.370  -6.830  24.024  0.00  0.00    +0.210 HD
ENDBRANCH   3   7
BRANCH   4   9
ATOM      9  O   UNL     1       5.063  -6.335  21.474  0.00  0.00    -0.387 OA
ATOM     10  H   UNL     1       5.825  -6.930  21.587  0.00  0.00    +0.210 HD
ENDBRANCH   4   9
BRANCH   5  11
ATOM     11  O   UNL     1       5.532  -3.411  21.574  0.00  0.00    -0.388 OA
ATOM     12  H   UNL     1       4.644  -3.689  21.284  0.00  0.00    +0.210 HD
ENDBRANCH   5  11
BRANCH   1  13
ATOM     13  C   UNL     1       7.803  -5.077  24.936  0.00  0.00    +0.112 C 
BRANCH  13  14
ATOM     14  C   UNL     1       8.735  -4.807  26.131  0.00  0.00    +0.171 C 
BRANCH  14  15
ATOM     15  O   UNL     1       9.962  -5.505  25.934  0.00  0.00    -0.394 OA
ATOM     16  H   UNL     1      10.309  -5.234  25.067  0.00  0.00    +0.209 HD
ENDBRANCH  14  15
ENDBRANCH  13  14
ENDBRANCH   1  13
BRANCH   2  17
ATOM     17  C   UNL     1       5.513  -6.494  26.390  0.00  0.00    +0.177 C 
BRANCH  17  18
ATOM     18  O   UNL     1       4.277  -7.171  26.633  0.00  0.00    -0.393 OA
ATOM     19  H   UNL     1       3.863  -7.277  25.756  0.00  0.00    +0.209 HD
ENDBRANCH  17  18
ENDBRANCH   2  17
TORSDOF 8
ENDMDL
