MODEL 1
REMARK VINA RESULT:      -6.0      0.000      0.000
REMARK  Name = 
REMARK  6 active torsions:
REMARK  status: ('A' for Active; 'I' for Inactive)
REMARK    1  A    between atoms: C_1  and  C_2
REMARK    2  A    between atoms: C_2  and  C_20
REMARK    3  A    between atoms: C_8  and  O_10
REMARK    4  A    between atoms: C_11  and  O_13
REMARK    5  A    between atoms: C_14  and  O_16
REMARK    6  A    between atoms: C_20  and  O_21
REMARK                            x       y       z     vdW  Elec       q    Type
REMARK                         _______ _______ _______ _____ _____    ______ ____
ROOT
ATOM      1  C   UNL     1       9.775  -0.823  24.439  0.00  0.00    +0.087 C 
ATOM      2  C   UNL     1       8.506  -1.579  24.030  0.00  0.00    +0.268 C 
ATOM      3  O   UNL     1       8.161  -2.371  25.159  0.00  0.00    -0.331 OA
ATOM      4  C   UNL     1       7.141  -3.341  24.870  0.00  0.00    +0.184 C 
ATOM      5  C   UNL     1       7.634  -4.254  23.756  0.00  0.00    +0.178 C 
ATOM      6  O   UNL     1       8.875  -4.866  24.101  0.00  0.00    -0.341 OA
ATOM      7  C   UNL     1       8.961  -5.499  25.361  0.00  0.00    +0.279 C 
ATOM      8  C   UNL     1       8.205  -4.863  26.549  0.00  0.00    +0.201 C 
ATOM      9  C   UNL     1       7.926  -3.373  22.545  0.00  0.00    +0.198 C 
ATOM     10  C   UNL     1       6.903  -4.190  26.118  0.00  0.00    +0.179 C 
ATOM     11  O   UNL     1       8.884  -2.358  22.878  0.00  0.00    -0.337 OA
ENDROOT
BRANCH   2  12
ATOM     12  C   UNL     1       7.464  -0.496  23.605  0.00  0.00    +0.365 C 
ATOM     13  O   UNL     1       6.405  -0.281  24.167  0.00  0.00    -0.245 OA
BRANCH  12  14
ATOM     14  O   UNL     1       7.855   0.178  22.488  0.00  0.00    -0.477 OA
ATOM     15  H   UNL     1       8.765  -0.085  22.229  0.00  0.00    +0.295 HD
ENDBRANCH  12  14
ENDBRANCH   2  12
BRANCH   7  16
ATOM     16  O   UNL     1      10.352  -5.465  25.677  0.00  0.00    -0.365 OA
ATOM     17  H   UNL     1      10.388  -5.033  26.552  0.00  0.00    +0.213 HD
ENDBRANCH   7  16
BRANCH   8  18
ATOM     18  O   UNL     1       7.925  -5.873  27.535  0.00  0.00    -0.384 OA
ATOM     19  H   UNL     1       6.959  -5.874  27.669  0.00  0.00    +0.210 HD
ENDBRANCH   8  18
BRANCH  10  20
ATOM     20  O   UNL     1       6.393  -3.353  27.166  0.00  0.00    -0.386 OA
ATOM     21  H   UNL     1       7.018  -3.416  27.913  0.00  0.00    +0.210 HD
ENDBRANCH  10  20
TORSDOF 5
ENDMDL
MODEL 2
REMARK VINA RESULT:      -5.9      1.448      3.097
REMARK  Name = 
REMARK  6 active torsions:
REMARK  status: ('A' for Active; 'I' for Inactive)
REMARK    1  A    between atoms: C_1  and  C_2
REMARK    2  A    between atoms: C_2  and  C_20
REMARK    3  A    between atoms: C_8  and  O_10
REMARK    4  A    between atoms: C_11  and  O_13
REMARK    5  A    between atoms: C_14  and  O_16
REMARK    6  A    between atoms: C_20  and  O_21
REMARK                            x       y       z     vdW  Elec       q    Type
REMARK                         _______ _______ _______ _____ _____    ______ ____
ROOT
ATOM      1  C   UNL     1       7.295  -3.062  22.234  0.00  0.00    +0.087 C 
ATOM      2  C   UNL     1       8.275  -2.592  23.315  0.00  0.00    +0.268 C 
ATOM      3  O   UNL     1       8.426  -3.702  24.191  0.00  0.00    -0.331 OA
ATOM      4  C   UNL     1       9.112  -3.363  25.407  0.00  0.00    +0.184 C 
ATOM      5  C   UNL     1       8.331  -2.269  26.122  0.00  0.00    +0.178 C 
ATOM      6  O   UNL     1       6.983  -2.667  26.359  0.00  0.00    -0.341 OA
ATOM      7  C   UNL     1       6.771  -3.928  26.962  0.00  0.00    +0.279 C 
ATOM      8  C   UNL     1       7.728  -5.083  26.589  0.00  0.00    +0.201 C 
ATOM      9  C   UNL     1       8.253  -1.076  25.175  0.00  0.00    +0.198 C 
ATOM     10  C   UNL     1       9.148  -4.595  26.310  0.00  0.00    +0.179 C 
ATOM     11  O   UNL     1       7.642  -1.456  23.933  0.00  0.00    -0.337 OA
ENDROOT
BRANCH   2  12
ATOM     12  C   UNL     1       9.565  -2.126  22.568  0.00  0.00    +0.365 C 
ATOM     13  O   UNL     1      10.707  -2.353  22.928  0.00  0.00    -0.245 OA
BRANCH  12  14
ATOM     14  O   UNL     1       9.275  -1.383  21.463  0.00  0.00    -0.477 OA
ATOM     15  H   UNL     1       9.299  -1.944  20.657  0.00  0.00    +0.295 HD
ENDBRANCH  12  14
ENDBRANCH   2  12
BRANCH   7  16
ATOM     16  O   UNL     1       5.464  -4.307  26.536  0.00  0.00    -0.365 OA
ATOM     17  H   UNL     1       5.440  -5.275  26.670  0.00  0.00    +0.213 HD
ENDBRANCH   7  16
BRANCH   8  18
ATOM     18  O   UNL     1       7.749  -6.052  27.653  0.00  0.00    -0.384 OA
ATOM     19  H   UNL     1       6.988  -5.852  28.228  0.00  0.00    +0.210 HD
ENDBRANCH   8  18
BRANCH  10  20
ATOM     20  O   UNL     1       9.921  -5.623  25.672  0.00  0.00    -0.386 OA
ATOM     21  H   UNL     1       9.814  -6.434  26.204  0.00  0.00    +0.210 HD
ENDBRANCH  10  20
TORSDOF 5
ENDMDL
MODEL 3
REMARK VINA RESULT:      -5.8      1.865      4.623
REMARK  Name = 
REMARK  6 active torsions:
REMARK  status: ('A' for Active; 'I' for Inactive)
REMARK    1  A    between atoms: C_1  and  C_2
REMARK    2  A    between atoms: C_2  and  C_20
REMARK    3  A    between atoms: C_8  and  O_10
REMARK    4  A    between atoms: C_11  and  O_13
REMARK    5  A    between atoms: C_14  and  O_16
REMARK    6  A    between atoms: C_20  and  O_21
REMARK                            x       y       z     vdW  Elec       q    Type
REMARK                         _______ _______ _______ _____ _____    ______ ____
ROOT
ATOM      1  C   UNL     1       7.202  -5.503  21.652  0.00  0.00    +0.087 C 
ATOM      2  C   UNL     1       7.232  -4.972  23.089  0.00  0.00    +0.268 C 
ATOM      3  O   UNL     1       7.159  -3.557  22.967  0.00  0.00    -0.331 OA
ATOM      4  C   UNL     1       7.431  -2.875  24.202  0.00  0.00    +0.184 C 
ATOM      5  C   UNL     1       8.825  -3.261  24.679  0.00  0.00    +0.178 C 
ATOM      6  O   UNL     1       9.806  -2.981  23.683  0.00  0.00    -0.341 OA
ATOM      7  C   UNL     1       9.799  -1.692  23.104  0.00  0.00    +0.279 C 
ATOM      8  C   UNL     1       8.434  -1.006  22.872  0.00  0.00    +0.201 C 
ATOM      9  C   UNL     1       8.837  -4.775  24.863  0.00  0.00    +0.198 C 
ATOM     10  C   UNL     1       7.410  -1.369  23.947  0.00  0.00    +0.179 C 
ATOM     11  O   UNL     1       8.480  -5.436  23.640  0.00  0.00    -0.337 OA
ENDROOT
BRANCH   2  12
ATOM     12  C   UNL     1       6.046  -5.659  23.839  0.00  0.00    +0.365 C 
ATOM     13  O   UNL     1       5.756  -5.480  25.008  0.00  0.00    -0.245 OA
BRANCH  12  14
ATOM     14  O   UNL     1       5.374  -6.533  23.038  0.00  0.00    -0.477 OA
ATOM     15  H   UNL     1       6.000  -7.011  22.451  0.00  0.00    +0.295 HD
ENDBRANCH  12  14
ENDBRANCH   2  12
BRANCH   7  16
ATOM     16  O   UNL     1      10.402  -1.878  21.825  0.00  0.00    -0.365 OA
ATOM     17  H   UNL     1      10.005  -1.179  21.269  0.00  0.00    +0.213 HD
ENDBRANCH   7  16
BRANCH   8  18
ATOM     18  O   UNL     1       8.614   0.422  22.839  0.00  0.00    -0.384 OA
ATOM     19  H   UNL     1       9.518   0.598  23.158  0.00  0.00    +0.210 HD
ENDBRANCH   8  18
BRANCH  10  20
ATOM     20  O   UNL     1       6.090  -0.979  23.541  0.00  0.00    -0.386 OA
ATOM     21  H   UNL     1       5.760  -0.348  24.208  0.00  0.00    +0.210 HD
ENDBRANCH  10  20
TORSDOF 5
ENDMDL
MODEL 4
REMARK VINA RESULT:      -5.6      2.166      5.531
REMARK  Name = 
REMARK  6 active torsions:
REMARK  status: ('A' for Active; 'I' for Inactive)
REMARK    1  A    between atoms: C_1  and  C_2
REMARK    2  A    between atoms: C_2  and  C_20
REMARK    3  A    between atoms: C_8  and  O_10
REMARK    4  A    between atoms: C_11  and  O_13
REMARK    5  A    between atoms: C_14  and  O_16
REMARK    6  A    between atoms: C_20  and  O_21
REMARK                            x       y       z     vdW  Elec       q    Type
REMARK                         _______ _______ _______ _____ _____    ______ ____
ROOT
ATOM      1  C   UNL     1       6.551  -2.021  23.375  0.00  0.00    +0.087 C 
ATOM      2  C   UNL     1       7.948  -1.811  23.969  0.00  0.00    +0.268 C 
ATOM      3  O   UNL     1       8.097  -0.402  24.090  0.00  0.00    -0.331 OA
ATOM      4  C   UNL     1       9.444  -0.006  24.392  0.00  0.00    +0.184 C 
ATOM      5  C   UNL     1      10.363  -0.509  23.287  0.00  0.00    +0.178 C 
ATOM      6  O   UNL     1       9.939  -0.039  22.009  0.00  0.00    -0.341 OA
ATOM      7  C   UNL     1       9.683   1.344  21.876  0.00  0.00    +0.279 C 
ATOM      8  C   UNL     1       9.055   2.088  23.076  0.00  0.00    +0.201 C 
ATOM      9  C   UNL     1      10.224  -2.027  23.239  0.00  0.00    +0.198 C 
ATOM     10  C   UNL     1       9.514   1.520  24.418  0.00  0.00    +0.179 C 
ATOM     11  O   UNL     1       8.856  -2.404  23.021  0.00  0.00    -0.337 OA
ENDROOT
BRANCH   2  12
ATOM     12  C   UNL     1       7.987  -2.623  25.303  0.00  0.00    +0.365 C 
ATOM     13  O   UNL     1       8.098  -2.141  26.416  0.00  0.00    -0.245 OA
BRANCH  12  14
ATOM     14  O   UNL     1       7.922  -3.966  25.085  0.00  0.00    -0.477 OA
ATOM     15  H   UNL     1       7.380  -4.401  25.779  0.00  0.00    +0.295 HD
ENDBRANCH  12  14
ENDBRANCH   2  12
BRANCH   7  16
ATOM     16  O   UNL     1       8.756   1.428  20.795  0.00  0.00    -0.365 OA
ATOM     17  H   UNL     1       8.628   0.500  20.516  0.00  0.00    +0.213 HD
ENDBRANCH   7  16
BRANCH   8  18
ATOM     18  O   UNL     1       9.388   3.486  23.003  0.00  0.00    -0.384 OA
ATOM     19  H   UNL     1      10.078   3.645  23.672  0.00  0.00    +0.210 HD
ENDBRANCH   8  18
BRANCH  10  20
ATOM     20  O   UNL     1       8.690   2.010  25.486  0.00  0.00    -0.386 OA
ATOM     21  H   UNL     1       8.332   2.871  25.199  0.00  0.00    +0.210 HD
ENDBRANCH  10  20
TORSDOF 5
ENDMDL
MODEL 5
REMARK VINA RESULT:      -5.5      1.946      3.154
REMARK  Name = 
REMARK  6 active torsions:
REMARK  status: ('A' for Active; 'I' for Inactive)
REMARK    1  A    between atoms: C_1  and  C_2
REMARK    2  A    between atoms: C_2  and  C_20
REMARK    3  A    between atoms: C_8  and  O_10
REMARK    4  A    between atoms: C_11  and  O_13
REMARK    5  A    between atoms: C_14  and  O_16
REMARK    6  A    between atoms: C_20  and  O_21
REMARK                            x       y       z     vdW  Elec       q    Type
REMARK                         _______ _______ _______ _____ _____    ______ ____
ROOT
ATOM      1  C   UNL     1      10.380   1.151  24.381  0.00  0.00    +0.087 C 
ATOM      2  C   UNL     1       9.474   0.664  23.245  0.00  0.00    +0.268 C 
ATOM      3  O   UNL     1       8.343   0.090  23.887  0.00  0.00    -0.331 OA
ATOM      4  C   UNL     1       7.503  -0.648  22.985  0.00  0.00    +0.184 C 
ATOM      5  C   UNL     1       8.327  -1.758  22.345  0.00  0.00    +0.178 C 
ATOM      6  O   UNL     1       8.920  -2.596  23.334  0.00  0.00    -0.341 OA
ATOM      7  C   UNL     1       8.079  -3.101  24.351  0.00  0.00    +0.279 C 
ATOM      8  C   UNL     1       6.943  -2.192  24.874  0.00  0.00    +0.201 C 
ATOM      9  C   UNL     1       9.487  -1.093  21.611  0.00  0.00    +0.198 C 
ATOM     10  C   UNL     1       6.370  -1.291  23.783  0.00  0.00    +0.179 C 
ATOM     11  O   UNL     1      10.265  -0.292  22.513  0.00  0.00    -0.337 OA
ENDROOT
BRANCH   2  12
ATOM     12  C   UNL     1       9.193   1.906  22.340  0.00  0.00    +0.365 C 
ATOM     13  O   UNL     1       8.123   2.480  22.246  0.00  0.00    -0.245 OA
BRANCH  12  14
ATOM     14  O   UNL     1      10.290   2.269  21.617  0.00  0.00    -0.477 OA
ATOM     15  H   UNL     1      11.072   1.741  21.892  0.00  0.00    +0.295 HD
ENDBRANCH  12  14
ENDBRANCH   2  12
BRANCH   7  16
ATOM     16  O   UNL     1       8.960  -3.350  25.445  0.00  0.00    -0.365 OA
ATOM     17  H   UNL     1       9.023  -4.324  25.485  0.00  0.00    +0.213 HD
ENDBRANCH   7  16
BRANCH   8  18
ATOM     18  O   UNL     1       5.895  -3.007  25.429  0.00  0.00    -0.384 OA
ATOM     19  H   UNL     1       5.168  -3.009  24.781  0.00  0.00    +0.210 HD
ENDBRANCH   8  18
BRANCH  10  20
ATOM     20  O   UNL     1       5.554  -0.258  24.355  0.00  0.00    -0.386 OA
ATOM     21  H   UNL     1       4.804  -0.115  23.747  0.00  0.00    +0.210 HD
ENDBRANCH  10  20
TORSDOF 5
ENDMDL
MODEL 6
REMARK VINA RESULT:      -5.5      1.683      5.227
REMARK  Name = 
REMARK  6 active torsions:
REMARK  status: ('A' for Active; 'I' for Inactive)
REMARK    1  A    between atoms: C_1  and  C_2
REMARK    2  A    between atoms: C_2  and  C_20
REMARK    3  A    between atoms: C_8  and  O_10
REMARK    4  A    between atoms: C_11  and  O_13
REMARK    5  A    between atoms: C_14  and  O_16
REMARK    6  A    between atoms: C_20  and  O_21
REMARK                            x       y       z     vdW  Elec       q    Type
REMARK                         _______ _______ _______ _____ _____    ______ ____
ROOT
ATOM      1  C   UNL     1       8.524  -2.429  26.336  0.00  0.00    +0.087 C 
ATOM      2  C   UNL     1       8.050  -2.885  24.952  0.00  0.00    +0.268 C 
ATOM      3  O   UNL     1       8.772  -2.085  24.025  0.00  0.00    -0.331 OA
ATOM      4  C   UNL     1       8.271  -2.195  22.683  0.00  0.00    +0.184 C 
ATOM      5  C   UNL     1       6.808  -1.773  22.669  0.00  0.00    +0.178 C 
ATOM      6  O   UNL     1       6.646  -0.458  23.197  0.00  0.00    -0.341 OA
ATOM      7  C   UNL     1       7.480   0.560  22.682  0.00  0.00    +0.279 C 
ATOM      8  C   UNL     1       8.934   0.191  22.311  0.00  0.00    +0.201 C 
ATOM      9  C   UNL     1       6.061  -2.700  23.621  0.00  0.00    +0.198 C 
ATOM     10  C   UNL     1       9.056  -1.239  21.786  0.00  0.00    +0.179 C 
ATOM     11  O   UNL     1       6.630  -2.639  24.937  0.00  0.00    -0.337 OA
ENDROOT
BRANCH   2  12
ATOM     12  C   UNL     1       8.310  -4.424  24.880  0.00  0.00    +0.365 C 
ATOM     13  O   UNL     1       7.484  -5.289  25.110  0.00  0.00    -0.245 OA
BRANCH  12  14
ATOM     14  O   UNL     1       9.605  -4.708  24.562  0.00  0.00    -0.477 OA
ATOM     15  H   UNL     1       9.842  -4.304  23.698  0.00  0.00    +0.295 HD
ENDBRANCH  12  14
ENDBRANCH   2  12
BRANCH   7  16
ATOM     16  O   UNL     1       7.542   1.526  23.728  0.00  0.00    -0.365 OA
ATOM     17  H   UNL     1       6.751   1.343  24.272  0.00  0.00    +0.213 HD
ENDBRANCH   7  16
BRANCH   8  18
ATOM     18  O   UNL     1       9.425   1.113  21.321  0.00  0.00    -0.384 OA
ATOM     19  H   UNL     1       8.888   1.922  21.400  0.00  0.00    +0.210 HD
ENDBRANCH   8  18
BRANCH  10  20
ATOM     20  O   UNL     1      10.431  -1.650  21.749  0.00  0.00    -0.386 OA
ATOM     21  H   UNL     1      10.771  -1.433  20.862  0.00  0.00    +0.210 HD
ENDBRANCH  10  20
TORSDOF 5
ENDMDL
MODEL 7
REMARK VINA RESULT:      -5.5      2.884      6.236
REMARK  Name = 
REMARK  6 active torsions:
REMARK  status: ('A' for Active; 'I' for Inactive)
REMARK    1  A    between atoms: C_1  and  C_2
REMARK    2  A    between atoms: C_2  and  C_20
REMARK    3  A    between atoms: C_8  and  O_10
REMARK    4  A    between atoms: C_11  and  O_13
REMARK    5  A    between atoms: C_14  and  O_16
REMARK    6  A    between atoms: C_20  and  O_21
REMARK                            x       y       z     vdW  Elec       q    Type
REMARK                         _______ _______ _______ _____ _____    ______ ____
ROOT
ATOM      1  C   UNL     1       9.708  -0.677  25.515  0.00  0.00    +0.087 C 
ATOM      2  C   UNL     1       9.136  -0.850  24.104  0.00  0.00    +0.268 C 
ATOM      3  O   UNL     1       9.232   0.434  23.501  0.00  0.00    -0.331 OA
ATOM      4  C   UNL     1       8.510   0.524  22.262  0.00  0.00    +0.184 C 
ATOM      5  C   UNL     1       7.044   0.208  22.525  0.00  0.00    +0.178 C 
ATOM      6  O   UNL     1       6.503   1.067  23.527  0.00  0.00    -0.341 OA
ATOM      7  C   UNL     1       6.710   2.456  23.376  0.00  0.00    +0.279 C 
ATOM      8  C   UNL     1       8.055   2.931  22.779  0.00  0.00    +0.201 C 
ATOM      9  C   UNL     1       6.982  -1.201  23.106  0.00  0.00    +0.198 C 
ATOM     10  C   UNL     1       8.606   1.957  21.740  0.00  0.00    +0.179 C 
ATOM     11  O   UNL     1       7.779  -1.293  24.296  0.00  0.00    -0.337 OA
ENDROOT
BRANCH   2  12
ATOM     12  C   UNL     1       9.964  -1.990  23.429  0.00  0.00    +0.365 C 
ATOM     13  O   UNL     1      10.642  -1.867  22.425  0.00  0.00    -0.245 OA
BRANCH  12  14
ATOM     14  O   UNL     1       9.813  -3.181  24.075  0.00  0.00    -0.477 OA
ATOM     15  H   UNL     1       9.425  -3.040  24.967  0.00  0.00    +0.295 HD
ENDBRANCH  12  14
ENDBRANCH   2  12
BRANCH   7  16
ATOM     16  O   UNL     1       6.632   2.969  24.705  0.00  0.00    -0.365 OA
ATOM     17  H   UNL     1       5.673   3.033  24.882  0.00  0.00    +0.213 HD
ENDBRANCH   7  16
BRANCH   8  18
ATOM     18  O   UNL     1       7.882   4.229  22.182  0.00  0.00    -0.384 OA
ATOM     19  H   UNL     1       6.924   4.405  22.165  0.00  0.00    +0.210 HD
ENDBRANCH   8  18
BRANCH  10  20
ATOM     20  O   UNL     1       9.978   2.257  21.441  0.00  0.00    -0.386 OA
ATOM     21  H   UNL     1      10.321   2.794  22.180  0.00  0.00    +0.210 HD
ENDBRANCH  10  20
TORSDOF 5
ENDMDL
MODEL 8
REMARK VINA RESULT:      -5.5      2.881      4.783
REMARK  Name = 
REMARK  6 active torsions:
REMARK  status: ('A' for Active; 'I' for Inactive)
REMARK    1  A    between atoms: C_1  and  C_2
REMARK    2  A    between atoms: C_2  and  C_20
REMARK    3  A    between atoms: C_8  and  O_10
REMARK    4  A    between atoms: C_11  and  O_13
REMARK    5  A    between atoms: C_14  and  O_16
REMARK    6  A    between atoms: C_20  and  O_21
REMARK                            x       y       z     vdW  Elec       q    Type
REMARK                         _______ _______ _______ _____ _____    ______ ____
ROOT
ATOM      1  C   UNL     1       7.401   2.448  21.989  0.00  0.00    +0.087 C 
ATOM      2  C   UNL     1       8.440   1.783  22.899  0.00  0.00    +0.268 C 
ATOM      3  O   UNL     1       8.563   0.451  22.416  0.00  0.00    -0.331 OA
ATOM      4  C   UNL     1       9.305  -0.399  23.306  0.00  0.00    +0.184 C 
ATOM      5  C   UNL     1       8.606  -0.423  24.658  0.00  0.00    +0.178 C 
ATOM      6  O   UNL     1       7.248  -0.837  24.530  0.00  0.00    -0.341 OA
ATOM      7  C   UNL     1       6.992  -2.017  23.797  0.00  0.00    +0.279 C 
ATOM      8  C   UNL     1       7.875  -2.314  22.563  0.00  0.00    +0.201 C 
ATOM      9  C   UNL     1       8.558   1.013  25.169  0.00  0.00    +0.198 C 
ATOM     10  C   UNL     1       9.308  -1.818  22.741  0.00  0.00    +0.179 C 
ATOM     11  O   UNL     1       7.887   1.863  24.227  0.00  0.00    -0.337 OA
ENDROOT
BRANCH   2  12
ATOM     12  C   UNL     1       9.727   2.665  22.818  0.00  0.00    +0.365 C 
ATOM     13  O   UNL     1      10.078   3.474  23.658  0.00  0.00    -0.245 OA
BRANCH  12  14
ATOM     14  O   UNL     1      10.416   2.457  21.662  0.00  0.00    -0.477 OA
ATOM     15  H   UNL     1      10.833   3.292  21.356  0.00  0.00    +0.295 HD
ENDBRANCH  12  14
ENDBRANCH   2  12
BRANCH   7  16
ATOM     16  O   UNL     1       5.653  -1.859  23.331  0.00  0.00    -0.365 OA
ATOM     17  H   UNL     1       5.102  -2.139  24.088  0.00  0.00    +0.213 HD
ENDBRANCH   7  16
BRANCH   8  18
ATOM     18  O   UNL     1       7.881  -3.731  22.308  0.00  0.00    -0.384 OA
ATOM     19  H   UNL     1       8.811  -3.986  22.169  0.00  0.00    +0.210 HD
ENDBRANCH   8  18
BRANCH  10  20
ATOM     20  O   UNL     1      10.006  -1.823  21.486  0.00  0.00    -0.386 OA
ATOM     21  H   UNL     1      10.958  -1.760  21.687  0.00  0.00    +0.210 HD
ENDBRANCH  10  20
TORSDOF 5
ENDMDL
MODEL 9
REMARK VINA RESULT:      -5.4      2.950      3.955
REMARK  Name = 
REMARK  6 active torsions:
REMARK  status: ('A' for Active; 'I' for Inactive)
REMARK    1  A    between atoms: C_1  and  C_2
REMARK    2  A    between atoms: C_2  and  C_20
REMARK    3  A    between atoms: C_8  and  O_10
REMARK    4  A    between atoms: C_11  and  O_13
REMARK    5  A    between atoms: C_14  and  O_16
REMARK    6  A    between atoms: C_20  and  O_21
REMARK                            x       y       z     vdW  Elec       q    Type
REMARK                         _______ _______ _______ _____ _____    ______ ____
ROOT
ATOM      1  C   UNL     1      10.338   2.057  23.793  0.00  0.00    +0.087 C 
ATOM      2  C   UNL     1       9.640   0.768  23.346  0.00  0.00    +0.268 C 
ATOM      3  O   UNL     1       8.421   0.729  24.075  0.00  0.00    -0.331 OA
ATOM      4  C   UNL     1       7.751  -0.538  23.976  0.00  0.00    +0.184 C 
ATOM      5  C   UNL     1       8.678  -1.626  24.501  0.00  0.00    +0.178 C 
ATOM      6  O   UNL     1       9.100  -1.344  25.833  0.00  0.00    -0.341 OA
ATOM      7  C   UNL     1       8.103  -1.019  26.779  0.00  0.00    +0.279 C 
ATOM      8  C   UNL     1       6.889  -0.190  26.300  0.00  0.00    +0.201 C 
ATOM      9  C   UNL     1       9.942  -1.594  23.647  0.00  0.00    +0.198 C 
ATOM     10  C   UNL     1       6.503  -0.504  24.856  0.00  0.00    +0.179 C 
ATOM     11  O   UNL     1      10.550  -0.295  23.692  0.00  0.00    -0.337 OA
ENDROOT
BRANCH   2  12
ATOM     12  C   UNL     1       9.509   0.853  21.791  0.00  0.00    +0.365 C 
ATOM     13  O   UNL     1       9.383  -0.101  21.043  0.00  0.00    -0.245 OA
BRANCH  12  14
ATOM     14  O   UNL     1       9.591   2.136  21.342  0.00  0.00    -0.477 OA
ATOM     15  H   UNL     1      10.465   2.524  21.568  0.00  0.00    +0.295 HD
ENDBRANCH  12  14
ENDBRANCH   2  12
BRANCH   7  16
ATOM     16  O   UNL     1       8.787  -0.240  27.758  0.00  0.00    -0.365 OA
ATOM     17  H   UNL     1       8.081   0.290  28.179  0.00  0.00    +0.213 HD
ENDBRANCH   7  16
BRANCH   8  18
ATOM     18  O   UNL     1       5.766  -0.439  27.167  0.00  0.00    -0.384 OA
ATOM     19  H   UNL     1       6.003  -0.081  28.041  0.00  0.00    +0.210 HD
ENDBRANCH   8  18
BRANCH  10  20
ATOM     20  O   UNL     1       5.595   0.484  24.347  0.00  0.00    -0.386 OA
ATOM     21  H   UNL     1       4.877   0.006  23.891  0.00  0.00    +0.210 HD
ENDBRANCH  10  20
TORSDOF 5
ENDMDL
