MODEL 1
REMARK VINA RESULT:      -7.1      0.000      0.000
REMARK  Name = 
REMARK  17 active torsions:
REMARK  status: ('A' for Active; 'I' for Inactive)
REMARK    1  A    between atoms: C_1  and  C_2
REMARK    2  A    between atoms: C_2  and  C_3
REMARK    3  A    between atoms: C_3  and  O_4
REMARK    4  A    between atoms: C_6  and  O_8
REMARK    5  A    between atoms: O_8  and  C_9
REMARK    6  A    between atoms: C_12  and  N_21
REMARK    7  A    between atoms: C_14  and  O_16
REMARK    8  A    between atoms: C_17  and  C_19
REMARK    9  A    between atoms: N_21  and  C_22
REMARK   10  A    between atoms: N_21  and  C_23
REMARK   11  A    between atoms: C_25  and  O_26
REMARK   12  A    between atoms: C_29  and  O_30
REMARK   13  A    between atoms: C_32  and  C_34
REMARK   14  A    between atoms: C_34  and  O_36
REMARK   15  A    between atoms: O_36  and  C_37
REMARK   16  A    between atoms: C_44  and  O_45
REMARK   17  A    between atoms: O_45  and  C_46
REMARK                            x       y       z     vdW  Elec       q    Type
REMARK                         _______ _______ _______ _____ _____    ______ ____
ROOT
ATOM      1  C   UNL     1       8.669  -2.988  24.944  0.00  0.00    +0.086 C 
ATOM      2  C   UNL     1       9.538  -1.764  24.534  0.00  0.00    +0.163 C 
ATOM      3  C   UNL     1       8.911  -0.406  24.892  0.00  0.00    +0.020 A 
ATOM      4  C   UNL     1       7.719  -0.300  25.645  0.00  0.00    +0.031 A 
ATOM      5  C   UNL     1       7.154   0.977  25.836  0.00  0.00    +0.134 A 
ATOM      6  C   UNL     1       7.740   2.139  25.303  0.00  0.00    +0.078 A 
ATOM      7  C   UNL     1       7.009   3.429  25.252  0.00  0.00    +0.202 C 
ATOM      8  O   UNL     1       5.786   3.390  25.256  0.00  0.00    -0.286 OA
ATOM      9  C   UNL     1       7.726   4.704  24.985  0.00  0.00    +0.075 A 
ATOM     10  C   UNL     1       8.993   4.579  24.377  0.00  0.00    +0.037 A 
ATOM     11  C   UNL     1       9.706   5.700  23.921  0.00  0.00    +0.012 A 
ATOM     12  C   UNL     1       9.173   6.967  24.076  0.00  0.00    +0.004 A 
ATOM     13  C   UNL     1       7.945   7.107  24.710  0.00  0.00    +0.046 A 
ATOM     14  C   UNL     1       9.623   3.259  24.172  0.00  0.00    +0.198 C 
ATOM     15  O   UNL     1      10.712   3.162  23.606  0.00  0.00    -0.286 OA
ATOM     16  C   UNL     1       7.203   6.001  25.177  0.00  0.00    +0.132 A 
ATOM     17  C   UNL     1       8.970   2.041  24.673  0.00  0.00    +0.078 A 
ATOM     18  C   UNL     1       7.033  -1.528  26.224  0.00  0.00    +0.158 C 
ATOM     19  C   UNL     1       9.562   0.779  24.495  0.00  0.00    +0.133 A 
ATOM     20  C   UNL     1       8.012  -2.700  26.306  0.00  0.00    +0.072 C 
ENDROOT
BRANCH   1  22
ATOM     21  C   UNL     1       8.718  -5.501  25.627  0.00  0.00    +0.007 C 
ATOM     22  C   UNL     1       9.455  -4.320  25.016  0.00  0.00    +0.032 C 
ENDBRANCH   1  22
BRANCH   1  23
ATOM     23  O   UNL     1       7.632  -3.246  23.979  0.00  0.00    -0.387 OA
ATOM     24  H   UNL     1       6.809  -2.805  24.277  0.00  0.00    +0.210 HD
ENDBRANCH   1  23
BRANCH   2  25
ATOM     25  C   UNL     1       9.883  -1.862  23.045  0.00  0.00    +0.317 C 
ATOM     26  O   UNL     1      10.963  -2.227  22.593  0.00  0.00    -0.250 OA
BRANCH  25  27
ATOM     27  O   UNL     1       8.815  -1.466  22.290  0.00  0.00    -0.467 OA
ATOM     28  C   UNL     1       9.141  -0.628  21.181  0.00  0.00    +0.280 C 
ENDBRANCH  25  27
ENDBRANCH   2  25
BRANCH  16  29
ATOM     29  O   UNL     1       6.057   6.467  25.753  0.00  0.00    -0.494 OA
ATOM     30  C   UNL     1       4.915   6.862  25.021  0.00  0.00    +0.277 C 
ENDBRANCH  16  29
BRANCH   5  31
ATOM     31  O   UNL     1       6.017   1.084  26.593  0.00  0.00    -0.506 OA
ATOM     32  H   UNL     1       5.378   0.422  26.266  0.00  0.00    +0.292 HD
ENDBRANCH   5  31
BRANCH  19  33
ATOM     33  O   UNL     1      10.806   0.642  23.925  0.00  0.00    -0.506 OA
ATOM     34  H   UNL     1      11.453   0.423  24.634  0.00  0.00    +0.292 HD
ENDBRANCH  19  33
BRANCH  18  35
ATOM     35  O   UNL     1       5.901  -1.773  25.380  0.00  0.00    -0.343 OA
BRANCH  35  36
ATOM     36  C   UNL     1       4.847  -2.534  25.984  0.00  0.00    +0.253 C 
ATOM     37  O   UNL     1       3.676  -1.744  26.110  0.00  0.00    -0.346 OA
ATOM     38  C   UNL     1       2.603  -2.465  26.716  0.00  0.00    +0.148 C 
ATOM     39  C   UNL     1       1.443  -1.487  26.888  0.00  0.00    +0.041 C 
ATOM     40  C   UNL     1       2.190  -3.696  25.880  0.00  0.00    +0.160 C 
ATOM     41  C   UNL     1       3.426  -4.625  25.620  0.00  0.00    +0.092 C 
ATOM     42  C   UNL     1       4.579  -3.741  25.087  0.00  0.00    +0.083 C 
BRANCH  41  43
ATOM     43  N   UNL     1       3.171  -5.770  24.690  0.00  0.00    -0.303 NA
ATOM     44  C   UNL     1       4.338  -6.635  24.486  0.00  0.00    +0.105 C 
ATOM     45  C   UNL     1       2.682  -5.330  23.377  0.00  0.00    +0.105 C 
ENDBRANCH  41  43
BRANCH  40  46
ATOM     46  O   UNL     1       1.134  -4.366  26.577  0.00  0.00    -0.388 OA
ATOM     47  H   UNL     1       0.316  -3.854  26.454  0.00  0.00    +0.210 HD
ENDBRANCH  40  46
ENDBRANCH  35  36
ENDBRANCH  18  35
TORSDOF 11
ENDMDL
MODEL 2
REMARK VINA RESULT:      -6.9      1.215      2.142
REMARK  Name = 
REMARK  17 active torsions:
REMARK  status: ('A' for Active; 'I' for Inactive)
REMARK    1  A    between atoms: C_1  and  C_2
REMARK    2  A    between atoms: C_2  and  C_3
REMARK    3  A    between atoms: C_3  and  O_4
REMARK    4  A    between atoms: C_6  and  O_8
REMARK    5  A    between atoms: O_8  and  C_9
REMARK    6  A    between atoms: C_12  and  N_21
REMARK    7  A    between atoms: C_14  and  O_16
REMARK    8  A    between atoms: C_17  and  C_19
REMARK    9  A    between atoms: N_21  and  C_22
REMARK   10  A    between atoms: N_21  and  C_23
REMARK   11  A    between atoms: C_25  and  O_26
REMARK   12  A    between atoms: C_29  and  O_30
REMARK   13  A    between atoms: C_32  and  C_34
REMARK   14  A    between atoms: C_34  and  O_36
REMARK   15  A    between atoms: O_36  and  C_37
REMARK   16  A    between atoms: C_44  and  O_45
REMARK   17  A    between atoms: O_45  and  C_46
REMARK                            x       y       z     vdW  Elec       q    Type
REMARK                         _______ _______ _______ _____ _____    ______ ____
ROOT
ATOM      1  C   UNL     1       8.566  -3.001  24.754  0.00  0.00    +0.086 C 
ATOM      2  C   UNL     1       9.486  -1.789  24.434  0.00  0.00    +0.163 C 
ATOM      3  C   UNL     1       8.856  -0.424  24.760  0.00  0.00    +0.020 A 
ATOM      4  C   UNL     1       7.608  -0.306  25.414  0.00  0.00    +0.031 A 
ATOM      5  C   UNL     1       7.051   0.979  25.576  0.00  0.00    +0.134 A 
ATOM      6  C   UNL     1       7.699   2.137  25.110  0.00  0.00    +0.078 A 
ATOM      7  C   UNL     1       6.998   3.441  25.018  0.00  0.00    +0.202 C 
ATOM      8  O   UNL     1       5.778   3.425  24.921  0.00  0.00    -0.286 OA
ATOM      9  C   UNL     1       7.756   4.706  24.830  0.00  0.00    +0.075 A 
ATOM     10  C   UNL     1       9.066   4.565  24.327  0.00  0.00    +0.037 A 
ATOM     11  C   UNL     1       9.834   5.678  23.947  0.00  0.00    +0.012 A 
ATOM     12  C   UNL     1       9.312   6.953  24.076  0.00  0.00    +0.004 A 
ATOM     13  C   UNL     1       8.038   7.108  24.609  0.00  0.00    +0.046 A 
ATOM     14  C   UNL     1       9.689   3.236  24.154  0.00  0.00    +0.198 C 
ATOM     15  O   UNL     1      10.818   3.127  23.679  0.00  0.00    -0.286 OA
ATOM     16  C   UNL     1       7.241   6.009  24.997  0.00  0.00    +0.132 A 
ATOM     17  C   UNL     1       8.975   2.025  24.582  0.00  0.00    +0.078 A 
ATOM     18  C   UNL     1       6.856  -1.529  25.917  0.00  0.00    +0.158 C 
ATOM     19  C   UNL     1       9.558   0.754  24.435  0.00  0.00    +0.133 A 
ATOM     20  C   UNL     1       7.804  -2.719  26.062  0.00  0.00    +0.072 C 
ENDROOT
BRANCH   1  22
ATOM     21  C   UNL     1       8.642  -5.425  25.702  0.00  0.00    +0.007 C 
ATOM     22  C   UNL     1       9.319  -4.348  24.871  0.00  0.00    +0.032 C 
ENDBRANCH   1  22
BRANCH   1  23
ATOM     23  O   UNL     1       7.607  -3.227  23.704  0.00  0.00    -0.387 OA
ATOM     24  H   UNL     1       7.763  -4.116  23.321  0.00  0.00    +0.210 HD
ENDBRANCH   1  23
BRANCH   2  25
ATOM     25  C   UNL     1       9.951  -1.873  22.978  0.00  0.00    +0.317 C 
ATOM     26  O   UNL     1      11.057  -2.255  22.610  0.00  0.00    -0.250 OA
BRANCH  25  27
ATOM     27  O   UNL     1       8.958  -1.444  22.144  0.00  0.00    -0.467 OA
ATOM     28  C   UNL     1       9.383  -0.555  21.110  0.00  0.00    +0.280 C 
ENDBRANCH  25  27
ENDBRANCH   2  25
BRANCH  16  29
ATOM     29  O   UNL     1       6.061   6.489  25.484  0.00  0.00    -0.494 OA
ATOM     30  C   UNL     1       4.987   6.909  24.666  0.00  0.00    +0.277 C 
ENDBRANCH  16  29
BRANCH   5  31
ATOM     31  O   UNL     1       5.858   1.097  26.239  0.00  0.00    -0.506 OA
ATOM     32  H   UNL     1       5.149   0.818  25.628  0.00  0.00    +0.292 HD
ENDBRANCH   5  31
BRANCH  19  33
ATOM     33  O   UNL     1      10.842   0.602  23.967  0.00  0.00    -0.506 OA
ATOM     34  H   UNL     1      11.123   1.444  23.542  0.00  0.00    +0.292 HD
ENDBRANCH  19  33
BRANCH  18  35
ATOM     35  O   UNL     1       5.792  -1.741  24.979  0.00  0.00    -0.343 OA
BRANCH  35  36
ATOM     36  C   UNL     1       4.774  -2.653  25.411  0.00  0.00    +0.253 C 
ATOM     37  O   UNL     1       5.223  -3.991  25.284  0.00  0.00    -0.346 OA
ATOM     38  C   UNL     1       4.233  -4.933  25.697  0.00  0.00    +0.148 C 
ATOM     39  C   UNL     1       4.792  -6.327  25.420  0.00  0.00    +0.041 C 
ATOM     40  C   UNL     1       3.855  -4.757  27.184  0.00  0.00    +0.160 C 
ATOM     41  C   UNL     1       3.394  -3.285  27.464  0.00  0.00    +0.092 C 
ATOM     42  C   UNL     1       4.460  -2.334  26.872  0.00  0.00    +0.083 C 
BRANCH  41  43
ATOM     43  N   UNL     1       3.148  -2.964  28.906  0.00  0.00    -0.303 NA
ATOM     44  C   UNL     1       1.726  -2.865  29.254  0.00  0.00    +0.105 C 
ATOM     45  C   UNL     1       3.818  -1.727  29.329  0.00  0.00    +0.105 C 
ENDBRANCH  41  43
BRANCH  40  46
ATOM     46  O   UNL     1       2.841  -5.720  27.496  0.00  0.00    -0.388 OA
ATOM     47  H   UNL     1       3.279  -6.563  27.707  0.00  0.00    +0.210 HD
ENDBRANCH  40  46
ENDBRANCH  35  36
ENDBRANCH  18  35
TORSDOF 11
ENDMDL
MODEL 3
REMARK VINA RESULT:      -6.7      2.140      3.264
REMARK  Name = 
REMARK  17 active torsions:
REMARK  status: ('A' for Active; 'I' for Inactive)
REMARK    1  A    between atoms: C_1  and  C_2
REMARK    2  A    between atoms: C_2  and  C_3
REMARK    3  A    between atoms: C_3  and  O_4
REMARK    4  A    between atoms: C_6  and  O_8
REMARK    5  A    between atoms: O_8  and  C_9
REMARK    6  A    between atoms: C_12  and  N_21
REMARK    7  A    between atoms: C_14  and  O_16
REMARK    8  A    between atoms: C_17  and  C_19
REMARK    9  A    between atoms: N_21  and  C_22
REMARK   10  A    between atoms: N_21  and  C_23
REMARK   11  A    between atoms: C_25  and  O_26
REMARK   12  A    between atoms: C_29  and  O_30
REMARK   13  A    between atoms: C_32  and  C_34
REMARK   14  A    between atoms: C_34  and  O_36
REMARK   15  A    between atoms: O_36  and  C_37
REMARK   16  A    between atoms: C_44  and  O_45
REMARK   17  A    between atoms: O_45  and  C_46
REMARK                            x       y       z     vdW  Elec       q    Type
REMARK                         _______ _______ _______ _____ _____    ______ ____
ROOT
ATOM      1  C   UNL     1       8.588  -2.231  24.250  0.00  0.00    +0.086 C 
ATOM      2  C   UNL     1       8.949  -0.753  24.577  0.00  0.00    +0.163 C 
ATOM      3  C   UNL     1       7.753   0.091  25.050  0.00  0.00    +0.020 A 
ATOM      4  C   UNL     1       6.479  -0.473  25.288  0.00  0.00    +0.031 A 
ATOM      5  C   UNL     1       5.411   0.388  25.613  0.00  0.00    +0.134 A 
ATOM      6  C   UNL     1       5.578   1.781  25.707  0.00  0.00    +0.078 A 
ATOM      7  C   UNL     1       4.419   2.705  25.761  0.00  0.00    +0.202 C 
ATOM      8  O   UNL     1       3.360   2.316  25.288  0.00  0.00    -0.286 OA
ATOM      9  C   UNL     1       4.590   4.124  26.172  0.00  0.00    +0.075 A 
ATOM     10  C   UNL     1       5.903   4.633  26.084  0.00  0.00    +0.037 A 
ATOM     11  C   UNL     1       6.180   5.995  26.281  0.00  0.00    +0.012 A 
ATOM     12  C   UNL     1       5.154   6.872  26.585  0.00  0.00    +0.004 A 
ATOM     13  C   UNL     1       3.862   6.376  26.714  0.00  0.00    +0.046 A 
ATOM     14  C   UNL     1       7.049   3.759  25.757  0.00  0.00    +0.198 C 
ATOM     15  O   UNL     1       8.183   4.224  25.647  0.00  0.00    -0.286 OA
ATOM     16  C   UNL     1       3.551   5.013  26.519  0.00  0.00    +0.132 A 
ATOM     17  C   UNL     1       6.853   2.312  25.594  0.00  0.00    +0.078 A 
ATOM     18  C   UNL     1       6.239  -1.972  25.177  0.00  0.00    +0.158 C 
ATOM     19  C   UNL     1       7.935   1.466  25.294  0.00  0.00    +0.133 A 
ATOM     20  C   UNL     1       7.560  -2.734  25.280  0.00  0.00    +0.072 C 
ENDROOT
BRANCH   1  22
ATOM     21  C   UNL     1       9.643  -4.504  24.959  0.00  0.00    +0.007 C 
ATOM     22  C   UNL     1       9.808  -3.184  24.224  0.00  0.00    +0.032 C 
ENDBRANCH   1  22
BRANCH   1  23
ATOM     23  O   UNL     1       8.018  -2.356  22.934  0.00  0.00    -0.387 OA
ATOM     24  H   UNL     1       7.214  -1.799  22.886  0.00  0.00    +0.210 HD
ENDBRANCH   1  23
BRANCH   2  25
ATOM     25  C   UNL     1       9.656  -0.124  23.374  0.00  0.00    +0.317 C 
ATOM     26  O   UNL     1      10.862   0.079  23.290  0.00  0.00    -0.250 OA
BRANCH  25  27
ATOM     27  O   UNL     1       8.742   0.195  22.409  0.00  0.00    -0.467 OA
ATOM     28  C   UNL     1       9.056   1.361  21.646  0.00  0.00    +0.280 C 
ENDBRANCH  25  27
ENDBRANCH   2  25
BRANCH  16  29
ATOM     29  O   UNL     1       2.212   4.847  26.725  0.00  0.00    -0.494 OA
ATOM     30  C   UNL     1       1.665   4.238  27.877  0.00  0.00    +0.277 C 
ENDBRANCH  16  29
BRANCH   5  31
ATOM     31  O   UNL     1       4.183  -0.161  25.877  0.00  0.00    -0.506 OA
ATOM     32  H   UNL     1       3.503   0.469  25.569  0.00  0.00    +0.292 HD
ENDBRANCH   5  31
BRANCH  19  33
ATOM     33  O   UNL     1       9.223   1.943  25.228  0.00  0.00    -0.506 OA
ATOM     34  H   UNL     1       9.191   2.906  25.024  0.00  0.00    +0.292 HD
ENDBRANCH  19  33
BRANCH  18  35
ATOM     35  O   UNL     1       5.551  -2.162  23.934  0.00  0.00    -0.343 OA
BRANCH  35  36
ATOM     36  C   UNL     1       4.962  -3.457  23.758  0.00  0.00    +0.253 C 
ATOM     37  O   UNL     1       5.851  -4.314  23.061  0.00  0.00    -0.346 OA
ATOM     38  C   UNL     1       5.297  -5.614  22.857  0.00  0.00    +0.148 C 
ATOM     39  C   UNL     1       6.298  -6.404  22.017  0.00  0.00    +0.041 C 
ATOM     40  C   UNL     1       4.990  -6.325  24.193  0.00  0.00    +0.160 C 
ATOM     41  C   UNL     1       4.054  -5.440  25.086  0.00  0.00    +0.092 C 
ATOM     42  C   UNL     1       4.662  -4.019  25.147  0.00  0.00    +0.083 C 
BRANCH  41  43
ATOM     43  N   UNL     1       3.815  -5.968  26.467  0.00  0.00    -0.303 NA
ATOM     44  C   UNL     1       3.163  -5.005  27.361  0.00  0.00    +0.105 C 
ATOM     45  C   UNL     1       5.050  -6.438  27.111  0.00  0.00    +0.105 C 
ENDBRANCH  41  43
BRANCH  40  46
ATOM     46  O   UNL     1       4.416  -7.601  23.889  0.00  0.00    -0.388 OA
ATOM     47  H   UNL     1       3.501  -7.609  24.220  0.00  0.00    +0.210 HD
ENDBRANCH  40  46
ENDBRANCH  35  36
ENDBRANCH  18  35
TORSDOF 11
ENDMDL
MODEL 4
REMARK VINA RESULT:      -6.5      2.886      8.502
REMARK  Name = 
REMARK  17 active torsions:
REMARK  status: ('A' for Active; 'I' for Inactive)
REMARK    1  A    between atoms: C_1  and  C_2
REMARK    2  A    between atoms: C_2  and  C_3
REMARK    3  A    between atoms: C_3  and  O_4
REMARK    4  A    between atoms: C_6  and  O_8
REMARK    5  A    between atoms: O_8  and  C_9
REMARK    6  A    between atoms: C_12  and  N_21
REMARK    7  A    between atoms: C_14  and  O_16
REMARK    8  A    between atoms: C_17  and  C_19
REMARK    9  A    between atoms: N_21  and  C_22
REMARK   10  A    between atoms: N_21  and  C_23
REMARK   11  A    between atoms: C_25  and  O_26
REMARK   12  A    between atoms: C_29  and  O_30
REMARK   13  A    between atoms: C_32  and  C_34
REMARK   14  A    between atoms: C_34  and  O_36
REMARK   15  A    between atoms: O_36  and  C_37
REMARK   16  A    between atoms: C_44  and  O_45
REMARK   17  A    between atoms: O_45  and  C_46
REMARK                            x       y       z     vdW  Elec       q    Type
REMARK                         _______ _______ _______ _____ _____    ______ ____
ROOT
ATOM      1  C   UNL     1       8.201   0.789  23.058  0.00  0.00    +0.086 C 
ATOM      2  C   UNL     1       7.914  -0.685  22.651  0.00  0.00    +0.163 C 
ATOM      3  C   UNL     1       6.798  -1.353  23.472  0.00  0.00    +0.020 A 
ATOM      4  C   UNL     1       6.024  -0.639  24.415  0.00  0.00    +0.031 A 
ATOM      5  C   UNL     1       5.098  -1.351  25.203  0.00  0.00    +0.134 A 
ATOM      6  C   UNL     1       4.923  -2.740  25.077  0.00  0.00    +0.078 A 
ATOM      7  C   UNL     1       4.173  -3.528  26.086  0.00  0.00    +0.202 C 
ATOM      8  O   UNL     1       4.092  -3.072  27.218  0.00  0.00    -0.286 OA
ATOM      9  C   UNL     1       3.727  -4.917  25.795  0.00  0.00    +0.075 A 
ATOM     10  C   UNL     1       4.399  -5.568  24.740  0.00  0.00    +0.037 A 
ATOM     11  C   UNL     1       4.196  -6.930  24.465  0.00  0.00    +0.012 A 
ATOM     12  C   UNL     1       3.306  -7.663  25.229  0.00  0.00    +0.004 A 
ATOM     13  C   UNL     1       2.607  -7.024  26.246  0.00  0.00    +0.046 A 
ATOM     14  C   UNL     1       5.368  -4.852  23.884  0.00  0.00    +0.198 C 
ATOM     15  O   UNL     1       5.975  -5.442  22.991  0.00  0.00    -0.286 OA
ATOM     16  C   UNL     1       2.792  -5.658  26.549  0.00  0.00    +0.132 A 
ATOM     17  C   UNL     1       5.595  -3.412  24.068  0.00  0.00    +0.078 A 
ATOM     18  C   UNL     1       6.190   0.861  24.607  0.00  0.00    +0.158 C 
ATOM     19  C   UNL     1       6.505  -2.714  23.255  0.00  0.00    +0.133 A 
ATOM     20  C   UNL     1       6.867   1.485  23.387  0.00  0.00    +0.072 C 
ENDROOT
BRANCH   1  22
ATOM     21  C   UNL     1      10.282   2.216  22.416  0.00  0.00    +0.007 C 
ATOM     22  C   UNL     1       8.962   1.602  21.982  0.00  0.00    +0.032 C 
ENDBRANCH   1  22
BRANCH   1  23
ATOM     23  O   UNL     1       9.053   0.860  24.217  0.00  0.00    -0.387 OA
ATOM     24  H   UNL     1       9.973   1.022  23.921  0.00  0.00    +0.210 HD
ENDBRANCH   1  23
BRANCH   2  25
ATOM     25  C   UNL     1       9.217  -1.487  22.693  0.00  0.00    +0.317 C 
ATOM     26  O   UNL     1       9.872  -1.823  21.712  0.00  0.00    -0.250 OA
BRANCH  25  27
ATOM     27  O   UNL     1       9.538  -1.790  23.986  0.00  0.00    -0.467 OA
ATOM     28  C   UNL     1       9.935  -3.145  24.205  0.00  0.00    +0.280 C 
ENDBRANCH  25  27
ENDBRANCH   2  25
BRANCH  16  29
ATOM     29  O   UNL     1       1.961  -5.333  27.582  0.00  0.00    -0.494 OA
ATOM     30  C   UNL     1       1.587  -6.238  28.601  0.00  0.00    +0.277 C 
ENDBRANCH  16  29
BRANCH   5  31
ATOM     31  O   UNL     1       4.323  -0.654  26.094  0.00  0.00    -0.506 OA
ATOM     32  H   UNL     1       4.768  -0.684  26.962  0.00  0.00    +0.292 HD
ENDBRANCH   5  31
BRANCH  19  33
ATOM     33  O   UNL     1       7.151  -3.329  22.208  0.00  0.00    -0.506 OA
ATOM     34  H   UNL     1       7.612  -4.129  22.550  0.00  0.00    +0.292 HD
ENDBRANCH  19  33
BRANCH  18  35
ATOM     35  O   UNL     1       6.928   1.015  25.826  0.00  0.00    -0.343 OA
BRANCH  35  36
ATOM     36  C   UNL     1       6.448   2.045  26.700  0.00  0.00    +0.253 C 
ATOM     37  O   UNL     1       6.537   1.627  28.052  0.00  0.00    -0.346 OA
ATOM     38  C   UNL     1       6.059   2.624  28.956  0.00  0.00    +0.148 C 
ATOM     39  C   UNL     1       6.111   2.023  30.359  0.00  0.00    +0.041 C 
ATOM     40  C   UNL     1       6.883   3.927  28.865  0.00  0.00    +0.160 C 
ATOM     41  C   UNL     1       6.910   4.460  27.391  0.00  0.00    +0.092 C 
ATOM     42  C   UNL     1       7.311   3.284  26.469  0.00  0.00    +0.083 C 
BRANCH  41  43
ATOM     43  N   UNL     1       7.806   5.637  27.161  0.00  0.00    -0.303 NA
ATOM     44  C   UNL     1       7.107   6.926  27.197  0.00  0.00    +0.105 C 
ATOM     45  C   UNL     1       8.543   5.543  25.893  0.00  0.00    +0.105 C 
ENDBRANCH  41  43
BRANCH  40  46
ATOM     46  O   UNL     1       6.315   4.870  29.781  0.00  0.00    -0.388 OA
ATOM     47  H   UNL     1       5.403   5.058  29.497  0.00  0.00    +0.210 HD
ENDBRANCH  40  46
ENDBRANCH  35  36
ENDBRANCH  18  35
TORSDOF 11
ENDMDL
MODEL 5
REMARK VINA RESULT:      -6.5      2.416      8.321
REMARK  Name = 
REMARK  17 active torsions:
REMARK  status: ('A' for Active; 'I' for Inactive)
REMARK    1  A    between atoms: C_1  and  C_2
REMARK    2  A    between atoms: C_2  and  C_3
REMARK    3  A    between atoms: C_3  and  O_4
REMARK    4  A    between atoms: C_6  and  O_8
REMARK    5  A    between atoms: O_8  and  C_9
REMARK    6  A    between atoms: C_12  and  N_21
REMARK    7  A    between atoms: C_14  and  O_16
REMARK    8  A    between atoms: C_17  and  C_19
REMARK    9  A    between atoms: N_21  and  C_22
REMARK   10  A    between atoms: N_21  and  C_23
REMARK   11  A    between atoms: C_25  and  O_26
REMARK   12  A    between atoms: C_29  and  O_30
REMARK   13  A    between atoms: C_32  and  C_34
REMARK   14  A    between atoms: C_34  and  O_36
REMARK   15  A    between atoms: O_36  and  C_37
REMARK   16  A    between atoms: C_44  and  O_45
REMARK   17  A    between atoms: O_45  and  C_46
REMARK                            x       y       z     vdW  Elec       q    Type
REMARK                         _______ _______ _______ _____ _____    ______ ____
ROOT
ATOM      1  C   UNL     1       8.758   0.754  22.911  0.00  0.00    +0.086 C 
ATOM      2  C   UNL     1       8.487  -0.741  22.576  0.00  0.00    +0.163 C 
ATOM      3  C   UNL     1       7.282  -1.340  23.322  0.00  0.00    +0.020 A 
ATOM      4  C   UNL     1       6.430  -0.554  24.131  0.00  0.00    +0.031 A 
ATOM      5  C   UNL     1       5.416  -1.201  24.867  0.00  0.00    +0.134 A 
ATOM      6  C   UNL     1       5.230  -2.593  24.817  0.00  0.00    +0.078 A 
ATOM      7  C   UNL     1       4.368  -3.302  25.794  0.00  0.00    +0.202 C 
ATOM      8  O   UNL     1       4.182  -2.769  26.879  0.00  0.00    -0.286 OA
ATOM      9  C   UNL     1       3.929  -4.702  25.553  0.00  0.00    +0.075 A 
ATOM     10  C   UNL     1       4.692  -5.431  24.617  0.00  0.00    +0.037 A 
ATOM     11  C   UNL     1       4.493  -6.806  24.414  0.00  0.00    +0.012 A 
ATOM     12  C   UNL     1       3.518  -7.476  25.131  0.00  0.00    +0.004 A 
ATOM     13  C   UNL     1       2.732  -6.762  26.026  0.00  0.00    +0.046 A 
ATOM     14  C   UNL     1       5.755  -4.786  23.818  0.00  0.00    +0.198 C 
ATOM     15  O   UNL     1       6.438  -5.442  23.033  0.00  0.00    -0.286 OA
ATOM     16  C   UNL     1       2.909  -5.380  26.255  0.00  0.00    +0.132 A 
ATOM     17  C   UNL     1       5.988  -3.339  23.928  0.00  0.00    +0.078 A 
ATOM     18  C   UNL     1       6.603   0.953  24.239  0.00  0.00    +0.158 C 
ATOM     19  C   UNL     1       6.988  -2.709  23.167  0.00  0.00    +0.133 A 
ATOM     20  C   UNL     1       7.411   1.485  23.055  0.00  0.00    +0.072 C 
ENDROOT
BRANCH   1  22
ATOM     21  C   UNL     1      10.568   2.556  22.406  0.00  0.00    +0.007 C 
ATOM     22  C   UNL     1       9.638   1.482  21.866  0.00  0.00    +0.032 C 
ENDBRANCH   1  22
BRANCH   1  23
ATOM     23  O   UNL     1       9.490   0.894  24.143  0.00  0.00    -0.387 OA
ATOM     24  H   UNL     1      10.160   1.600  24.032  0.00  0.00    +0.210 HD
ENDBRANCH   1  23
BRANCH   2  25
ATOM     25  C   UNL     1       9.765  -1.553  22.803  0.00  0.00    +0.317 C 
ATOM     26  O   UNL     1      10.553  -1.892  21.927  0.00  0.00    -0.250 OA
BRANCH  25  27
ATOM     27  O   UNL     1       9.893  -1.862  24.128  0.00  0.00    -0.467 OA
ATOM     28  C   UNL     1      10.153  -3.240  24.402  0.00  0.00    +0.280 C 
ENDBRANCH  25  27
ENDBRANCH   2  25
BRANCH  16  29
ATOM     29  O   UNL     1       1.985  -4.976  27.174  0.00  0.00    -0.494 OA
ATOM     30  C   UNL     1       2.122  -5.180  28.566  0.00  0.00    +0.277 C 
ENDBRANCH  16  29
BRANCH   5  31
ATOM     31  O   UNL     1       4.569  -0.436  25.626  0.00  0.00    -0.506 OA
ATOM     32  H   UNL     1       4.451   0.419  25.170  0.00  0.00    +0.292 HD
ENDBRANCH   5  31
BRANCH  19  33
ATOM     33  O   UNL     1       7.725  -3.401  22.235  0.00  0.00    -0.506 OA
ATOM     34  H   UNL     1       7.291  -4.270  22.074  0.00  0.00    +0.292 HD
ENDBRANCH  19  33
BRANCH  18  35
ATOM     35  O   UNL     1       7.217   1.182  25.513  0.00  0.00    -0.343 OA
BRANCH  35  36
ATOM     36  C   UNL     1       7.086   2.517  26.020  0.00  0.00    +0.253 C 
ATOM     37  O   UNL     1       8.034   3.374  25.406  0.00  0.00    -0.346 OA
ATOM     38  C   UNL     1       7.941   4.714  25.891  0.00  0.00    +0.148 C 
ATOM     39  C   UNL     1       9.068   5.509  25.235  0.00  0.00    +0.041 C 
ATOM     40  C   UNL     1       6.559   5.338  25.598  0.00  0.00    +0.160 C 
ATOM     41  C   UNL     1       5.415   4.441  26.182  0.00  0.00    +0.092 C 
ATOM     42  C   UNL     1       5.666   2.988  25.713  0.00  0.00    +0.083 C 
BRANCH  41  43
ATOM     43  N   UNL     1       4.027   4.875  25.825  0.00  0.00    -0.303 NA
ATOM     44  C   UNL     1       2.984   3.945  26.272  0.00  0.00    +0.105 C 
ATOM     45  C   UNL     1       3.862   5.099  24.382  0.00  0.00    +0.105 C 
ENDBRANCH  41  43
BRANCH  40  46
ATOM     46  O   UNL     1       6.553   6.663  26.143  0.00  0.00    -0.388 OA
ATOM     47  H   UNL     1       7.383   6.793  26.635  0.00  0.00    +0.210 HD
ENDBRANCH  40  46
ENDBRANCH  35  36
ENDBRANCH  18  35
TORSDOF 11
ENDMDL
MODEL 6
REMARK VINA RESULT:      -6.4      2.813      6.177
REMARK  Name = 
REMARK  17 active torsions:
REMARK  status: ('A' for Active; 'I' for Inactive)
REMARK    1  A    between atoms: C_1  and  C_2
REMARK    2  A    between atoms: C_2  and  C_3
REMARK    3  A    between atoms: C_3  and  O_4
REMARK    4  A    between atoms: C_6  and  O_8
REMARK    5  A    between atoms: O_8  and  C_9
REMARK    6  A    between atoms: C_12  and  N_21
REMARK    7  A    between atoms: C_14  and  O_16
REMARK    8  A    between atoms: C_17  and  C_19
REMARK    9  A    between atoms: N_21  and  C_22
REMARK   10  A    between atoms: N_21  and  C_23
REMARK   11  A    between atoms: C_25  and  O_26
REMARK   12  A    between atoms: C_29  and  O_30
REMARK   13  A    between atoms: C_32  and  C_34
REMARK   14  A    between atoms: C_34  and  O_36
REMARK   15  A    between atoms: O_36  and  C_37
REMARK   16  A    between atoms: C_44  and  O_45
REMARK   17  A    between atoms: O_45  and  C_46
REMARK                            x       y       z     vdW  Elec       q    Type
REMARK                         _______ _______ _______ _____ _____    ______ ____
ROOT
ATOM      1  C   UNL     1       9.725   2.399  23.270  0.00  0.00    +0.086 C 
ATOM      2  C   UNL     1       8.944   3.337  24.235  0.00  0.00    +0.163 C 
ATOM      3  C   UNL     1       8.035   2.593  25.228  0.00  0.00    +0.020 A 
ATOM      4  C   UNL     1       8.024   1.183  25.331  0.00  0.00    +0.031 A 
ATOM      5  C   UNL     1       7.083   0.577  26.188  0.00  0.00    +0.134 A 
ATOM      6  C   UNL     1       6.164   1.331  26.938  0.00  0.00    +0.078 A 
ATOM      7  C   UNL     1       4.999   0.702  27.608  0.00  0.00    +0.202 C 
ATOM      8  O   UNL     1       4.592  -0.361  27.159  0.00  0.00    -0.286 OA
ATOM      9  C   UNL     1       4.222   1.436  28.642  0.00  0.00    +0.075 A 
ATOM     10  C   UNL     1       4.367   2.839  28.635  0.00  0.00    +0.037 A 
ATOM     11  C   UNL     1       3.570   3.666  29.444  0.00  0.00    +0.012 A 
ATOM     12  C   UNL     1       2.625   3.106  30.284  0.00  0.00    +0.004 A 
ATOM     13  C   UNL     1       2.500   1.723  30.330  0.00  0.00    +0.046 A 
ATOM     14  C   UNL     1       5.350   3.510  27.760  0.00  0.00    +0.198 C 
ATOM     15  O   UNL     1       5.439   4.736  27.737  0.00  0.00    -0.286 OA
ATOM     16  C   UNL     1       3.284   0.865  29.529  0.00  0.00    +0.132 A 
ATOM     17  C   UNL     1       6.262   2.714  26.926  0.00  0.00    +0.078 A 
ATOM     18  C   UNL     1       8.982   0.320  24.524  0.00  0.00    +0.158 C 
ATOM     19  C   UNL     1       7.211   3.336  26.097  0.00  0.00    +0.133 A 
ATOM     20  C   UNL     1      10.175   1.148  24.046  0.00  0.00    +0.072 C 
ENDROOT
BRANCH   1  22
ATOM     21  C   UNL     1      11.722   4.059  23.455  0.00  0.00    +0.007 C 
ATOM     22  C   UNL     1      10.951   3.067  22.601  0.00  0.00    +0.032 C 
ENDBRANCH   1  22
BRANCH   1  23
ATOM     23  O   UNL     1       8.906   1.982  22.162  0.00  0.00    -0.387 OA
ATOM     24  H   UNL     1       7.964   2.082  22.412  0.00  0.00    +0.210 HD
ENDBRANCH   1  23
BRANCH   2  25
ATOM     25  C   UNL     1       8.172   4.378  23.419  0.00  0.00    +0.317 C 
ATOM     26  O   UNL     1       7.268   4.128  22.629  0.00  0.00    -0.250 OA
BRANCH  25  27
ATOM     27  O   UNL     1       8.650   5.630  23.687  0.00  0.00    -0.467 OA
ATOM     28  C   UNL     1       7.961   6.691  23.025  0.00  0.00    +0.280 C 
ENDBRANCH  25  27
ENDBRANCH   2  25
BRANCH  16  29
ATOM     29  O   UNL     1       2.933  -0.422  29.811  0.00  0.00    -0.494 OA
ATOM     30  C   UNL     1       3.775  -1.336  30.485  0.00  0.00    +0.277 C 
ENDBRANCH  16  29
BRANCH   5  31
ATOM     31  O   UNL     1       7.094  -0.787  26.313  0.00  0.00    -0.506 OA
ATOM     32  H   UNL     1       6.508  -1.154  25.624  0.00  0.00    +0.292 HD
ENDBRANCH   5  31
BRANCH  19  33
ATOM     33  O   UNL     1       7.379   4.701  26.096  0.00  0.00    -0.506 OA
ATOM     34  H   UNL     1       8.342   4.898  26.148  0.00  0.00    +0.292 HD
ENDBRANCH  19  33
BRANCH  18  35
ATOM     35  O   UNL     1       8.198  -0.239  23.462  0.00  0.00    -0.343 OA
BRANCH  35  36
ATOM     36  C   UNL     1       8.438  -1.627  23.196  0.00  0.00    +0.253 C 
ATOM     37  O   UNL     1       8.775  -2.309  24.392  0.00  0.00    -0.346 OA
ATOM     38  C   UNL     1       9.031  -3.696  24.168  0.00  0.00    +0.148 C 
ATOM     39  C   UNL     1       9.477  -4.294  25.500  0.00  0.00    +0.041 C 
ATOM     40  C   UNL     1       7.794  -4.426  23.602  0.00  0.00    +0.160 C 
ATOM     41  C   UNL     1       7.287  -3.722  22.297  0.00  0.00    +0.092 C 
ATOM     42  C   UNL     1       7.161  -2.209  22.594  0.00  0.00    +0.083 C 
BRANCH  41  43
ATOM     43  N   UNL     1       6.001  -4.257  21.748  0.00  0.00    -0.303 NA
ATOM     44  C   UNL     1       4.980  -4.504  22.773  0.00  0.00    +0.105 C 
ATOM     45  C   UNL     1       6.191  -5.491  20.974  0.00  0.00    +0.105 C 
ENDBRANCH  41  43
BRANCH  40  46
ATOM     46  O   UNL     1       8.154  -5.795  23.384  0.00  0.00    -0.388 OA
ATOM     47  H   UNL     1       9.082  -5.911  23.652  0.00  0.00    +0.210 HD
ENDBRANCH  40  46
ENDBRANCH  35  36
ENDBRANCH  18  35
TORSDOF 11
ENDMDL
MODEL 7
REMARK VINA RESULT:      -6.3      3.001      9.408
REMARK  Name = 
REMARK  17 active torsions:
REMARK  status: ('A' for Active; 'I' for Inactive)
REMARK    1  A    between atoms: C_1  and  C_2
REMARK    2  A    between atoms: C_2  and  C_3
REMARK    3  A    between atoms: C_3  and  O_4
REMARK    4  A    between atoms: C_6  and  O_8
REMARK    5  A    between atoms: O_8  and  C_9
REMARK    6  A    between atoms: C_12  and  N_21
REMARK    7  A    between atoms: C_14  and  O_16
REMARK    8  A    between atoms: C_17  and  C_19
REMARK    9  A    between atoms: N_21  and  C_22
REMARK   10  A    between atoms: N_21  and  C_23
REMARK   11  A    between atoms: C_25  and  O_26
REMARK   12  A    between atoms: C_29  and  O_30
REMARK   13  A    between atoms: C_32  and  C_34
REMARK   14  A    between atoms: C_34  and  O_36
REMARK   15  A    between atoms: O_36  and  C_37
REMARK   16  A    between atoms: C_44  and  O_45
REMARK   17  A    between atoms: O_45  and  C_46
REMARK                            x       y       z     vdW  Elec       q    Type
REMARK                         _______ _______ _______ _____ _____    ______ ____
ROOT
ATOM      1  C   UNL     1       6.024   1.373  28.761  0.00  0.00    +0.086 C 
ATOM      2  C   UNL     1       4.945   0.253  28.772  0.00  0.00    +0.163 C 
ATOM      3  C   UNL     1       5.101  -0.776  27.638  0.00  0.00    +0.020 A 
ATOM      4  C   UNL     1       6.207  -0.765  26.758  0.00  0.00    +0.031 A 
ATOM      5  C   UNL     1       6.218  -1.673  25.680  0.00  0.00    +0.134 A 
ATOM      6  C   UNL     1       5.169  -2.582  25.459  0.00  0.00    +0.078 A 
ATOM      7  C   UNL     1       5.036  -3.328  24.183  0.00  0.00    +0.202 C 
ATOM      8  O   UNL     1       5.555  -2.845  23.186  0.00  0.00    -0.286 OA
ATOM      9  C   UNL     1       4.127  -4.500  24.073  0.00  0.00    +0.075 A 
ATOM     10  C   UNL     1       3.121  -4.589  25.058  0.00  0.00    +0.037 A 
ATOM     11  C   UNL     1       2.097  -5.547  24.981  0.00  0.00    +0.012 A 
ATOM     12  C   UNL     1       2.068  -6.443  23.927  0.00  0.00    +0.004 A 
ATOM     13  C   UNL     1       3.076  -6.392  22.972  0.00  0.00    +0.046 A 
ATOM     14  C   UNL     1       3.083  -3.663  26.209  0.00  0.00    +0.198 C 
ATOM     15  O   UNL     1       2.178  -3.729  27.040  0.00  0.00    -0.286 OA
ATOM     16  C   UNL     1       4.117  -5.439  23.020  0.00  0.00    +0.132 A 
ATOM     17  C   UNL     1       4.150  -2.670  26.395  0.00  0.00    +0.078 A 
ATOM     18  C   UNL     1       7.358   0.213  26.939  0.00  0.00    +0.158 C 
ATOM     19  C   UNL     1       4.134  -1.789  27.490  0.00  0.00    +0.133 A 
ATOM     20  C   UNL     1       7.379   0.757  28.367  0.00  0.00    +0.072 C 
ENDROOT
BRANCH   1  22
ATOM     21  C   UNL     1       7.568   2.567  30.485  0.00  0.00    +0.007 C 
ATOM     22  C   UNL     1       6.165   2.122  30.109  0.00  0.00    +0.032 C 
ENDBRANCH   1  22
BRANCH   1  23
ATOM     23  O   UNL     1       5.699   2.410  27.817  0.00  0.00    -0.387 OA
ATOM     24  H   UNL     1       4.873   2.851  28.106  0.00  0.00    +0.210 HD
ENDBRANCH   1  23
BRANCH   2  25
ATOM     25  C   UNL     1       3.552   0.888  28.782  0.00  0.00    +0.317 C 
ATOM     26  O   UNL     1       3.069   1.547  27.867  0.00  0.00    -0.250 OA
BRANCH  25  27
ATOM     27  O   UNL     1       2.929   0.629  29.970  0.00  0.00    -0.467 OA
ATOM     28  C   UNL     1       1.532   0.926  29.994  0.00  0.00    +0.280 C 
ENDBRANCH  25  27
ENDBRANCH   2  25
BRANCH  16  29
ATOM     29  O   UNL     1       4.943  -5.656  21.956  0.00  0.00    -0.494 OA
ATOM     30  C   UNL     1       6.284  -6.086  22.079  0.00  0.00    +0.277 C 
ENDBRANCH  16  29
BRANCH   5  31
ATOM     31  O   UNL     1       7.306  -1.686  24.845  0.00  0.00    -0.506 OA
ATOM     32  H   UNL     1       7.973  -2.284  25.235  0.00  0.00    +0.292 HD
ENDBRANCH   5  31
BRANCH  19  33
ATOM     33  O   UNL     1       3.174  -1.879  28.470  0.00  0.00    -0.506 OA
ATOM     34  H   UNL     1       3.458  -1.333  29.239  0.00  0.00    +0.292 HD
ENDBRANCH  19  33
BRANCH  18  35
ATOM     35  O   UNL     1       7.172   1.219  25.935  0.00  0.00    -0.343 OA
BRANCH  35  36
ATOM     36  C   UNL     1       8.312   1.463  25.100  0.00  0.00    +0.253 C 
ATOM     37  O   UNL     1       8.170   0.790  23.861  0.00  0.00    -0.346 OA
ATOM     38  C   UNL     1       9.291   1.001  23.002  0.00  0.00    +0.148 C 
ATOM     39  C   UNL     1       9.068   0.153  21.752  0.00  0.00    +0.041 C 
ATOM     40  C   UNL     1       9.476   2.494  22.651  0.00  0.00    +0.160 C 
ATOM     41  C   UNL     1       9.586   3.357  23.955  0.00  0.00    +0.092 C 
ATOM     42  C   UNL     1       8.407   2.971  24.879  0.00  0.00    +0.083 C 
BRANCH  41  43
ATOM     43  N   UNL     1       9.616   4.837  23.733  0.00  0.00    -0.303 NA
ATOM     44  C   UNL     1      10.968   5.406  23.735  0.00  0.00    +0.105 C 
ATOM     45  C   UNL     1       8.801   5.569  24.711  0.00  0.00    +0.105 C 
ENDBRANCH  41  43
BRANCH  40  46
ATOM     46  O   UNL     1      10.634   2.608  21.816  0.00  0.00    -0.388 OA
ATOM     47  H   UNL     1      10.393   2.311  20.921  0.00  0.00    +0.210 HD
ENDBRANCH  40  46
ENDBRANCH  35  36
ENDBRANCH  18  35
TORSDOF 11
ENDMDL
MODEL 8
REMARK VINA RESULT:      -6.3      1.583      2.252
REMARK  Name = 
REMARK  17 active torsions:
REMARK  status: ('A' for Active; 'I' for Inactive)
REMARK    1  A    between atoms: C_1  and  C_2
REMARK    2  A    between atoms: C_2  and  C_3
REMARK    3  A    between atoms: C_3  and  O_4
REMARK    4  A    between atoms: C_6  and  O_8
REMARK    5  A    between atoms: O_8  and  C_9
REMARK    6  A    between atoms: C_12  and  N_21
REMARK    7  A    between atoms: C_14  and  O_16
REMARK    8  A    between atoms: C_17  and  C_19
REMARK    9  A    between atoms: N_21  and  C_22
REMARK   10  A    between atoms: N_21  and  C_23
REMARK   11  A    between atoms: C_25  and  O_26
REMARK   12  A    between atoms: C_29  and  O_30
REMARK   13  A    between atoms: C_32  and  C_34
REMARK   14  A    between atoms: C_34  and  O_36
REMARK   15  A    between atoms: O_36  and  C_37
REMARK   16  A    between atoms: C_44  and  O_45
REMARK   17  A    between atoms: O_45  and  C_46
REMARK                            x       y       z     vdW  Elec       q    Type
REMARK                         _______ _______ _______ _____ _____    ______ ____
ROOT
ATOM      1  C   UNL     1       8.436  -3.419  24.490  0.00  0.00    +0.086 C 
ATOM      2  C   UNL     1       9.103  -2.017  24.384  0.00  0.00    +0.163 C 
ATOM      3  C   UNL     1       8.138  -0.847  24.640  0.00  0.00    +0.020 A 
ATOM      4  C   UNL     1       6.804  -1.047  25.063  0.00  0.00    +0.031 A 
ATOM      5  C   UNL     1       5.955   0.073  25.168  0.00  0.00    +0.134 A 
ATOM      6  C   UNL     1       6.396   1.374  24.868  0.00  0.00    +0.078 A 
ATOM      7  C   UNL     1       5.447   2.502  24.698  0.00  0.00    +0.202 C 
ATOM      8  O   UNL     1       4.296   2.232  24.383  0.00  0.00    -0.286 OA
ATOM      9  C   UNL     1       5.924   3.910  24.695  0.00  0.00    +0.075 A 
ATOM     10  C   UNL     1       7.298   4.090  24.430  0.00  0.00    +0.037 A 
ATOM     11  C   UNL     1       7.850   5.367  24.234  0.00  0.00    +0.012 A 
ATOM     12  C   UNL     1       7.043   6.487  24.313  0.00  0.00    +0.004 A 
ATOM     13  C   UNL     1       5.696   6.326  24.613  0.00  0.00    +0.046 A 
ATOM     14  C   UNL     1       8.221   2.941  24.324  0.00  0.00    +0.198 C 
ATOM     15  O   UNL     1       9.410   3.111  24.056  0.00  0.00    -0.286 OA
ATOM     16  C   UNL     1       5.111   5.057  24.813  0.00  0.00    +0.132 A 
ATOM     17  C   UNL     1       7.736   1.577  24.574  0.00  0.00    +0.078 A 
ATOM     18  C   UNL     1       6.270  -2.436  25.379  0.00  0.00    +0.158 C 
ATOM     19  C   UNL     1       8.604   0.474  24.488  0.00  0.00    +0.133 A 
ATOM     20  C   UNL     1       7.423  -3.404  25.649  0.00  0.00    +0.072 C 
ENDROOT
BRANCH   1  22
ATOM     21  C   UNL     1       9.044  -5.641  25.703  0.00  0.00    +0.007 C 
ATOM     22  C   UNL     1       9.441  -4.579  24.692  0.00  0.00    +0.032 C 
ENDBRANCH   1  22
BRANCH   1  23
ATOM     23  O   UNL     1       7.742  -3.766  23.277  0.00  0.00    -0.387 OA
ATOM     24  H   UNL     1       7.058  -3.086  23.101  0.00  0.00    +0.210 HD
ENDBRANCH   1  23
BRANCH   2  25
ATOM     25  C   UNL     1       9.812  -1.892  23.033  0.00  0.00    +0.317 C 
ATOM     26  O   UNL     1      11.013  -2.058  22.847  0.00  0.00    -0.250 OA
BRANCH  25  27
ATOM     27  O   UNL     1       8.912  -1.550  22.063  0.00  0.00    -0.467 OA
ATOM     28  C   UNL     1       9.388  -0.599  21.110  0.00  0.00    +0.280 C 
ENDBRANCH  25  27
ENDBRANCH   2  25
BRANCH  16  29
ATOM     29  O   UNL     1       3.788   5.236  25.097  0.00  0.00    -0.494 OA
ATOM     30  C   UNL     1       3.236   5.087  26.390  0.00  0.00    +0.277 C 
ENDBRANCH  16  29
BRANCH   5  31
ATOM     31  O   UNL     1       4.672  -0.116  25.610  0.00  0.00    -0.506 OA
ATOM     32  H   UNL     1       4.103   0.538  25.161  0.00  0.00    +0.292 HD
ENDBRANCH   5  31
BRANCH  19  33
ATOM     33  O   UNL     1       9.949   0.635  24.254  0.00  0.00    -0.506 OA
ATOM     34  H   UNL     1      10.086   1.494  23.793  0.00  0.00    +0.292 HD
ENDBRANCH  19  33
BRANCH  18  35
ATOM     35  O   UNL     1       5.454  -2.800  24.258  0.00  0.00    -0.343 OA
BRANCH  35  36
ATOM     36  C   UNL     1       4.193  -3.396  24.593  0.00  0.00    +0.253 C 
ATOM     37  O   UNL     1       3.920  -4.490  23.735  0.00  0.00    -0.346 OA
ATOM     38  C   UNL     1       2.666  -5.107  24.031  0.00  0.00    +0.148 C 
ATOM     39  C   UNL     1       2.441  -6.196  22.985  0.00  0.00    +0.041 C 
ATOM     40  C   UNL     1       2.630  -5.679  25.465  0.00  0.00    +0.160 C 
ATOM     41  C   UNL     1       2.979  -4.565  26.512  0.00  0.00    +0.092 C 
ATOM     42  C   UNL     1       4.278  -3.867  26.044  0.00  0.00    +0.083 C 
BRANCH  41  43
ATOM     43  N   UNL     1       3.121  -5.047  27.922  0.00  0.00    -0.303 NA
ATOM     44  C   UNL     1       3.633  -4.027  28.844  0.00  0.00    +0.105 C 
ATOM     45  C   UNL     1       3.975  -6.238  28.027  0.00  0.00    +0.105 C 
ENDBRANCH  41  43
BRANCH  40  46
ATOM     46  O   UNL     1       1.333  -6.247  25.678  0.00  0.00    -0.388 OA
ATOM     47  H   UNL     1       0.889  -5.738  26.378  0.00  0.00    +0.210 HD
ENDBRANCH  40  46
ENDBRANCH  35  36
ENDBRANCH  18  35
TORSDOF 11
ENDMDL
MODEL 9
REMARK VINA RESULT:      -6.1      3.011      4.566
REMARK  Name = 
REMARK  17 active torsions:
REMARK  status: ('A' for Active; 'I' for Inactive)
REMARK    1  A    between atoms: C_1  and  C_2
REMARK    2  A    between atoms: C_2  and  C_3
REMARK    3  A    between atoms: C_3  and  O_4
REMARK    4  A    between atoms: C_6  and  O_8
REMARK    5  A    between atoms: O_8  and  C_9
REMARK    6  A    between atoms: C_12  and  N_21
REMARK    7  A    between atoms: C_14  and  O_16
REMARK    8  A    between atoms: C_17  and  C_19
REMARK    9  A    between atoms: N_21  and  C_22
REMARK   10  A    between atoms: N_21  and  C_23
REMARK   11  A    between atoms: C_25  and  O_26
REMARK   12  A    between atoms: C_29  and  O_30
REMARK   13  A    between atoms: C_32  and  C_34
REMARK   14  A    between atoms: C_34  and  O_36
REMARK   15  A    between atoms: O_36  and  C_37
REMARK   16  A    between atoms: C_44  and  O_45
REMARK   17  A    between atoms: O_45  and  C_46
REMARK                            x       y       z     vdW  Elec       q    Type
REMARK                         _______ _______ _______ _____ _____    ______ ____
ROOT
ATOM      1  C   UNL     1       5.730  -2.442  25.806  0.00  0.00    +0.086 C 
ATOM      2  C   UNL     1       7.060  -2.027  25.114  0.00  0.00    +0.163 C 
ATOM      3  C   UNL     1       7.412  -0.539  25.281  0.00  0.00    +0.020 A 
ATOM      4  C   UNL     1       6.656   0.328  26.102  0.00  0.00    +0.031 A 
ATOM      5  C   UNL     1       6.980   1.699  26.112  0.00  0.00    +0.134 A 
ATOM      6  C   UNL     1       8.029   2.224  25.336  0.00  0.00    +0.078 A 
ATOM      7  C   UNL     1       8.188   3.683  25.121  0.00  0.00    +0.202 C 
ATOM      8  O   UNL     1       7.193   4.386  25.236  0.00  0.00    -0.286 OA
ATOM      9  C   UNL     1       9.453   4.243  24.575  0.00  0.00    +0.075 A 
ATOM     10  C   UNL     1      10.283   3.328  23.893  0.00  0.00    +0.037 A 
ATOM     11  C   UNL     1      11.421   3.750  23.187  0.00  0.00    +0.012 A 
ATOM     12  C   UNL     1      11.760   5.091  23.162  0.00  0.00    +0.004 A 
ATOM     13  C   UNL     1      10.974   5.997  23.863  0.00  0.00    +0.046 A 
ATOM     14  C   UNL     1       9.982   1.882  23.869  0.00  0.00    +0.198 C 
ATOM     15  O   UNL     1      10.694   1.101  23.239  0.00  0.00    -0.286 OA
ATOM     16  C   UNL     1       9.822   5.604  24.579  0.00  0.00    +0.132 A 
ATOM     17  C   UNL     1       8.842   1.351  24.630  0.00  0.00    +0.078 A 
ATOM     18  C   UNL     1       5.497  -0.185  26.944  0.00  0.00    +0.158 C 
ATOM     19  C   UNL     1       8.549  -0.024  24.627  0.00  0.00    +0.133 A 
ATOM     20  C   UNL     1       5.610  -1.696  27.147  0.00  0.00    +0.072 C 
ENDROOT
BRANCH   1  22
ATOM     21  C   UNL     1       6.810  -4.664  26.629  0.00  0.00    +0.007 C 
ATOM     22  C   UNL     1       5.594  -3.966  26.044  0.00  0.00    +0.032 C 
ENDBRANCH   1  22
BRANCH   1  23
ATOM     23  O   UNL     1       4.587  -2.112  24.993  0.00  0.00    -0.387 OA
ATOM     24  H   UNL     1       4.852  -1.429  24.342  0.00  0.00    +0.210 HD
ENDBRANCH   1  23
BRANCH   2  25
ATOM     25  C   UNL     1       7.020  -2.447  23.643  0.00  0.00    +0.317 C 
ATOM     26  O   UNL     1       6.272  -1.976  22.793  0.00  0.00    -0.250 OA
BRANCH  25  27
ATOM     27  O   UNL     1       7.932  -3.439  23.415  0.00  0.00    -0.467 OA
ATOM     28  C   UNL     1       7.403  -4.612  22.795  0.00  0.00    +0.280 C 
ENDBRANCH  25  27
ENDBRANCH   2  25
BRANCH  16  29
ATOM     29  O   UNL     1       9.281   6.714  25.160  0.00  0.00    -0.494 OA
ATOM     30  C   UNL     1       9.419   7.029  26.531  0.00  0.00    +0.277 C 
ENDBRANCH  16  29
BRANCH   5  31
ATOM     31  O   UNL     1       6.269   2.535  26.933  0.00  0.00    -0.506 OA
ATOM     32  H   UNL     1       5.708   3.100  26.369  0.00  0.00    +0.292 HD
ENDBRANCH   5  31
BRANCH  19  33
ATOM     33  O   UNL     1       9.361  -0.930  23.987  0.00  0.00    -0.506 OA
ATOM     34  H   UNL     1       8.866  -1.775  23.880  0.00  0.00    +0.292 HD
ENDBRANCH  19  33
BRANCH  18  35
ATOM     35  O   UNL     1       4.308   0.224  26.256  0.00  0.00    -0.343 OA
BRANCH  35  36
ATOM     36  C   UNL     1       3.344   0.910  27.064  0.00  0.00    +0.253 C 
ATOM     37  O   UNL     1       3.914   1.278  28.309  0.00  0.00    -0.346 OA
ATOM     38  C   UNL     1       2.981   1.958  29.149  0.00  0.00    +0.148 C 
ATOM     39  C   UNL     1       3.676   2.210  30.485  0.00  0.00    +0.041 C 
ATOM     40  C   UNL     1       2.483   3.273  28.510  0.00  0.00    +0.160 C 
ATOM     41  C   UNL     1       1.879   3.002  27.089  0.00  0.00    +0.092 C 
ATOM     42  C   UNL     1       2.900   2.153  26.295  0.00  0.00    +0.083 C 
BRANCH  41  43
ATOM     43  N   UNL     1       1.504   4.229  26.318  0.00  0.00    -0.303 NA
ATOM     44  C   UNL     1       1.045   3.949  24.953  0.00  0.00    +0.105 C 
ATOM     45  C   UNL     1       2.598   5.207  26.250  0.00  0.00    +0.105 C 
ENDBRANCH  41  43
BRANCH  40  46
ATOM     46  O   UNL     1       1.536   3.865  29.407  0.00  0.00    -0.388 OA
ATOM     47  H   UNL     1       1.932   4.675  29.775  0.00  0.00    +0.210 HD
ENDBRANCH  40  46
ENDBRANCH  35  36
ENDBRANCH  18  35
TORSDOF 11
ENDMDL
