MODEL 1
REMARK VINA RESULT:      -6.4      0.000      0.000
REMARK  Name = 
REMARK  8 active torsions:
REMARK  status: ('A' for Active; 'I' for Inactive)
REMARK    1  A    between atoms: O_1  and  C_2
REMARK    2  A    between atoms: C_4  and  O_6
REMARK    3  A    between atoms: C_7  and  N_18
REMARK    4  A    between atoms: C_10  and  C_12
REMARK    5  A    between atoms: C_12  and  O_13
REMARK    6  A    between atoms: O_13  and  P_14
REMARK    7  A    between atoms: P_14  and  O_15
REMARK    8  A    between atoms: P_14  and  O_16
REMARK                            x       y       z     vdW  Elec       q    Type
REMARK                         _______ _______ _______ _____ _____    ______ ____
ROOT
ATOM      1  C   UNL     1       8.187  -2.174  22.651  0.00  0.00    +0.178 C 
ATOM      2  C   UNL     1       7.914  -0.878  23.423  0.00  0.00    +0.178 C 
ATOM      3  O   UNL     1       8.741  -0.895  24.605  0.00  0.00    -0.347 OA
ATOM      4  C   UNL     1       9.445  -2.138  24.657  0.00  0.00    +0.248 C 
ATOM      5  C   UNL     1       9.550  -2.586  23.184  0.00  0.00    +0.193 C 
ENDROOT
BRANCH   4   6
ATOM      6  N   UNL     1       8.735  -3.126  25.494  0.00  0.00    -0.196 N 
ATOM      7  C   UNL     1       9.221  -4.418  25.432  0.00  0.00    +0.317 C 
ATOM      8  O   UNL     1      10.236  -4.732  24.820  0.00  0.00    -0.252 OA
ATOM      9  N   UNL     1       8.500  -5.383  26.065  0.00  0.00    -0.239 N 
ATOM     10  H   UNL     1       8.823  -6.328  25.917  0.00  0.00    +0.159 HD
ATOM     11  C   UNL     1       7.230  -5.249  26.527  0.00  0.00    +0.229 C 
ATOM     12  O   UNL     1       6.535  -6.232  26.774  0.00  0.00    -0.275 OA
ATOM     13  C   UNL     1       6.725  -3.862  26.666  0.00  0.00    +0.192 C 
ATOM     14  C   UNL     1       7.710  -2.776  26.353  0.00  0.00    +0.234 C 
ATOM     15  O   UNL     1       7.485  -1.654  26.812  0.00  0.00    -0.275 OA
ENDBRANCH   4   6
BRANCH   1  16
ATOM     16  O   UNL     1       7.247  -3.210  22.970  0.00  0.00    -0.386 OA
ATOM     17  H   UNL     1       7.096  -3.220  23.932  0.00  0.00    +0.210 HD
ENDBRANCH   1  16
BRANCH   5  18
ATOM     18  O   UNL     1      10.572  -1.865  22.484  0.00  0.00    -0.385 OA
ATOM     19  H   UNL     1      10.399  -1.969  21.531  0.00  0.00    +0.210 HD
ENDBRANCH   5  18
BRANCH   2  20
ATOM     20  C   UNL     1       8.246   0.373  22.621  0.00  0.00    +0.206 C 
BRANCH  20  21
ATOM     21  O   UNL     1       8.349   1.461  23.535  0.00  0.00    -0.284 OA
BRANCH  21  22
ATOM     22  P   UNL     1       9.773   2.412  23.283  0.00  0.00    +0.472 P 
ATOM     23  O   UNL     1      11.046   3.264  23.059  0.00  0.00    -0.228 OA
BRANCH  22  24
ATOM     24  O   UNL     1       9.373   2.232  21.710  0.00  0.00    -0.303 OA
ATOM     25  H   UNL     1      10.195   2.345  21.195  0.00  0.00    +0.222 HD
ENDBRANCH  22  24
BRANCH  22  26
ATOM     26  O   UNL     1      10.570   0.994  23.435  0.00  0.00    -0.303 OA
ATOM     27  H   UNL     1       9.972   0.282  23.718  0.00  0.00    +0.222 HD
ENDBRANCH  22  26
ENDBRANCH  21  22
ENDBRANCH  20  21
ENDBRANCH   2  20
TORSDOF 8
ENDMDL
MODEL 2
REMARK VINA RESULT:      -6.3      1.394      2.492
REMARK  Name = 
REMARK  8 active torsions:
REMARK  status: ('A' for Active; 'I' for Inactive)
REMARK    1  A    between atoms: O_1  and  C_2
REMARK    2  A    between atoms: C_4  and  O_6
REMARK    3  A    between atoms: C_7  and  N_18
REMARK    4  A    between atoms: C_10  and  C_12
REMARK    5  A    between atoms: C_12  and  O_13
REMARK    6  A    between atoms: O_13  and  P_14
REMARK    7  A    between atoms: P_14  and  O_15
REMARK    8  A    between atoms: P_14  and  O_16
REMARK                            x       y       z     vdW  Elec       q    Type
REMARK                         _______ _______ _______ _____ _____    ______ ____
ROOT
ATOM      1  C   UNL     1       8.414  -0.879  24.715  0.00  0.00    +0.178 C 
ATOM      2  C   UNL     1       9.753  -1.264  24.076  0.00  0.00    +0.178 C 
ATOM      3  O   UNL     1       9.532  -2.458  23.294  0.00  0.00    -0.347 OA
ATOM      4  C   UNL     1       8.176  -2.877  23.465  0.00  0.00    +0.248 C 
ATOM      5  C   UNL     1       7.411  -1.583  23.813  0.00  0.00    +0.193 C 
ENDROOT
BRANCH   4   6
ATOM      6  N   UNL     1       8.058  -3.900  24.523  0.00  0.00    -0.196 N 
ATOM      7  C   UNL     1       6.769  -4.293  24.829  0.00  0.00    +0.317 C 
ATOM      8  O   UNL     1       5.780  -3.919  24.208  0.00  0.00    -0.252 OA
ATOM      9  N   UNL     1       6.610  -5.116  25.901  0.00  0.00    -0.239 N 
ATOM     10  H   UNL     1       5.652  -5.304  26.161  0.00  0.00    +0.159 HD
ATOM     11  C   UNL     1       7.549  -5.379  26.846  0.00  0.00    +0.229 C 
ATOM     12  O   UNL     1       7.239  -5.844  27.940  0.00  0.00    -0.275 OA
ATOM     13  C   UNL     1       8.946  -5.026  26.497  0.00  0.00    +0.192 C 
ATOM     14  C   UNL     1       9.158  -4.496  25.111  0.00  0.00    +0.234 C 
ATOM     15  O   UNL     1      10.298  -4.557  24.646  0.00  0.00    -0.275 OA
ENDBRANCH   4   6
BRANCH   1  16
ATOM     16  O   UNL     1       8.270  -1.402  26.043  0.00  0.00    -0.386 OA
ATOM     17  H   UNL     1       9.148  -1.462  26.460  0.00  0.00    +0.210 HD
ENDBRANCH   1  16
BRANCH   5  18
ATOM     18  O   UNL     1       7.174  -0.780  22.650  0.00  0.00    -0.385 OA
ATOM     19  H   UNL     1       6.662  -0.002  22.935  0.00  0.00    +0.210 HD
ENDBRANCH   5  18
BRANCH   2  20
ATOM     20  C   UNL     1      10.308  -0.183  23.159  0.00  0.00    +0.206 C 
BRANCH  20  21
ATOM     21  O   UNL     1       9.495   0.977  23.313  0.00  0.00    -0.284 OA
BRANCH  21  22
ATOM     22  P   UNL     1      10.416   2.442  23.325  0.00  0.00    +0.472 P 
ATOM     23  O   UNL     1      11.241   3.752  23.336  0.00  0.00    -0.228 OA
BRANCH  22  24
ATOM     24  O   UNL     1       8.957   3.123  23.596  0.00  0.00    -0.303 OA
ATOM     25  H   UNL     1       8.890   3.274  24.558  0.00  0.00    +0.222 HD
ENDBRANCH  22  24
BRANCH  22  26
ATOM     26  O   UNL     1      10.286   2.364  21.698  0.00  0.00    -0.303 OA
ATOM     27  H   UNL     1      10.009   1.478  21.408  0.00  0.00    +0.222 HD
ENDBRANCH  22  26
ENDBRANCH  21  22
ENDBRANCH  20  21
ENDBRANCH   2  20
TORSDOF 8
ENDMDL
MODEL 3
REMARK VINA RESULT:      -6.3      3.149      6.350
REMARK  Name = 
REMARK  8 active torsions:
REMARK  status: ('A' for Active; 'I' for Inactive)
REMARK    1  A    between atoms: O_1  and  C_2
REMARK    2  A    between atoms: C_4  and  O_6
REMARK    3  A    between atoms: C_7  and  N_18
REMARK    4  A    between atoms: C_10  and  C_12
REMARK    5  A    between atoms: C_12  and  O_13
REMARK    6  A    between atoms: O_13  and  P_14
REMARK    7  A    between atoms: P_14  and  O_15
REMARK    8  A    between atoms: P_14  and  O_16
REMARK                            x       y       z     vdW  Elec       q    Type
REMARK                         _______ _______ _______ _____ _____    ______ ____
ROOT
ATOM      1  C   UNL     1       9.864  -1.293  23.981  0.00  0.00    +0.178 C 
ATOM      2  C   UNL     1       8.424  -1.807  23.879  0.00  0.00    +0.178 C 
ATOM      3  O   UNL     1       7.780  -1.081  22.810  0.00  0.00    -0.347 OA
ATOM      4  C   UNL     1       8.693  -0.107  22.298  0.00  0.00    +0.248 C 
ATOM      5  C   UNL     1      10.090  -0.687  22.604  0.00  0.00    +0.193 C 
ENDROOT
BRANCH   4   6
ATOM      6  N   UNL     1       8.484   1.212  22.928  0.00  0.00    -0.196 N 
ATOM      7  C   UNL     1       9.424   2.176  22.618  0.00  0.00    +0.317 C 
ATOM      8  O   UNL     1      10.318   2.011  21.795  0.00  0.00    -0.252 OA
ATOM      9  N   UNL     1       9.353   3.352  23.298  0.00  0.00    -0.239 N 
ATOM     10  H   UNL     1      10.112   3.996  23.124  0.00  0.00    +0.159 HD
ATOM     11  C   UNL     1       8.623   3.578  24.420  0.00  0.00    +0.229 C 
ATOM     12  O   UNL     1       8.864   4.530  25.157  0.00  0.00    -0.275 OA
ATOM     13  C   UNL     1       7.563   2.586  24.722  0.00  0.00    +0.192 C 
ATOM     14  C   UNL     1       7.377   1.500  23.706  0.00  0.00    +0.234 C 
ATOM     15  O   UNL     1       6.298   0.903  23.700  0.00  0.00    -0.275 OA
ENDBRANCH   4   6
BRANCH   1  16
ATOM     16  O   UNL     1      10.007  -0.254  24.960  0.00  0.00    -0.386 OA
ATOM     17  H   UNL     1       9.433   0.495  24.717  0.00  0.00    +0.210 HD
ENDBRANCH   1  16
BRANCH   5  18
ATOM     18  O   UNL     1      10.445  -1.724  21.682  0.00  0.00    -0.385 OA
ATOM     19  H   UNL     1       9.649  -1.934  21.161  0.00  0.00    +0.210 HD
ENDBRANCH   5  18
BRANCH   2  20
ATOM     20  C   UNL     1       8.344  -3.295  23.567  0.00  0.00    +0.206 C 
BRANCH  20  21
ATOM     21  O   UNL     1       9.271  -3.967  24.414  0.00  0.00    -0.284 OA
BRANCH  21  22
ATOM     22  P   UNL     1       8.496  -4.990  25.575  0.00  0.00    +0.472 P 
ATOM     23  O   UNL     1       7.801  -5.905  26.613  0.00  0.00    -0.228 OA
BRANCH  22  24
ATOM     24  O   UNL     1       9.000  -3.844  26.625  0.00  0.00    -0.303 OA
ATOM     25  H   UNL     1       9.963  -3.960  26.727  0.00  0.00    +0.222 HD
ENDBRANCH  22  24
BRANCH  22  26
ATOM     26  O   UNL     1       9.891  -5.838  25.542  0.00  0.00    -0.303 OA
ATOM     27  H   UNL     1       9.919  -6.442  24.780  0.00  0.00    +0.222 HD
ENDBRANCH  22  26
ENDBRANCH  21  22
ENDBRANCH  20  21
ENDBRANCH   2  20
TORSDOF 8
ENDMDL
MODEL 4
REMARK VINA RESULT:      -6.3      3.139      6.395
REMARK  Name = 
REMARK  8 active torsions:
REMARK  status: ('A' for Active; 'I' for Inactive)
REMARK    1  A    between atoms: O_1  and  C_2
REMARK    2  A    between atoms: C_4  and  O_6
REMARK    3  A    between atoms: C_7  and  N_18
REMARK    4  A    between atoms: C_10  and  C_12
REMARK    5  A    between atoms: C_12  and  O_13
REMARK    6  A    between atoms: O_13  and  P_14
REMARK    7  A    between atoms: P_14  and  O_15
REMARK    8  A    between atoms: P_14  and  O_16
REMARK                            x       y       z     vdW  Elec       q    Type
REMARK                         _______ _______ _______ _____ _____    ______ ____
ROOT
ATOM      1  C   UNL     1       6.754  -2.326  23.632  0.00  0.00    +0.178 C 
ATOM      2  C   UNL     1       7.615  -3.235  22.748  0.00  0.00    +0.178 C 
ATOM      3  O   UNL     1       8.885  -3.410  23.412  0.00  0.00    -0.347 OA
ATOM      4  C   UNL     1       8.897  -2.615  24.600  0.00  0.00    +0.248 C 
ATOM      5  C   UNL     1       7.410  -2.486  24.995  0.00  0.00    +0.193 C 
ENDROOT
BRANCH   4   6
ATOM      6  N   UNL     1       9.530  -1.303  24.365  0.00  0.00    -0.196 N 
ATOM      7  C   UNL     1       9.497  -0.426  25.432  0.00  0.00    +0.317 C 
ATOM      8  O   UNL     1       9.077  -0.727  26.545  0.00  0.00    -0.252 OA
ATOM      9  N   UNL     1       9.931   0.844  25.205  0.00  0.00    -0.239 N 
ATOM     10  H   UNL     1       9.800   1.487  25.973  0.00  0.00    +0.159 HD
ATOM     11  C   UNL     1      10.146   1.403  23.986  0.00  0.00    +0.229 C 
ATOM     12  O   UNL     1      10.204   2.622  23.846  0.00  0.00    -0.275 OA
ATOM     13  C   UNL     1      10.255   0.464  22.845  0.00  0.00    +0.192 C 
ATOM     14  C   UNL     1      10.193  -0.994  23.191  0.00  0.00    +0.234 C 
ATOM     15  O   UNL     1      10.656  -1.794  22.375  0.00  0.00    -0.275 OA
ENDBRANCH   4   6
BRANCH   1  16
ATOM     16  O   UNL     1       6.842  -0.946  23.249  0.00  0.00    -0.386 OA
ATOM     17  H   UNL     1       6.082  -0.722  22.683  0.00  0.00    +0.210 HD
ENDBRANCH   1  16
BRANCH   5  18
ATOM     18  O   UNL     1       6.924  -3.681  25.619  0.00  0.00    -0.385 OA
ATOM     19  H   UNL     1       7.694  -4.251  25.793  0.00  0.00    +0.210 HD
ENDBRANCH   5  18
BRANCH   2  20
ATOM     20  C   UNL     1       6.995  -4.608  22.525  0.00  0.00    +0.206 C 
BRANCH  20  21
ATOM     21  O   UNL     1       5.622  -4.531  22.899  0.00  0.00    -0.284 OA
BRANCH  21  22
ATOM     22  P   UNL     1       5.029  -6.013  23.568  0.00  0.00    +0.472 P 
ATOM     23  O   UNL     1       4.498  -7.338  24.168  0.00  0.00    -0.228 OA
BRANCH  22  24
ATOM     24  O   UNL     1       5.847  -6.673  22.318  0.00  0.00    -0.303 OA
ATOM     25  H   UNL     1       6.170  -7.543  22.621  0.00  0.00    +0.222 HD
ENDBRANCH  22  24
BRANCH  22  26
ATOM     26  O   UNL     1       3.664  -5.671  22.737  0.00  0.00    -0.303 OA
ATOM     27  H   UNL     1       3.320  -6.460  22.284  0.00  0.00    +0.222 HD
ENDBRANCH  22  26
ENDBRANCH  21  22
ENDBRANCH  20  21
ENDBRANCH   2  20
TORSDOF 8
ENDMDL
MODEL 5
REMARK VINA RESULT:      -6.2      1.987      3.032
REMARK  Name = 
REMARK  8 active torsions:
REMARK  status: ('A' for Active; 'I' for Inactive)
REMARK    1  A    between atoms: O_1  and  C_2
REMARK    2  A    between atoms: C_4  and  O_6
REMARK    3  A    between atoms: C_7  and  N_18
REMARK    4  A    between atoms: C_10  and  C_12
REMARK    5  A    between atoms: C_12  and  O_13
REMARK    6  A    between atoms: O_13  and  P_14
REMARK    7  A    between atoms: P_14  and  O_15
REMARK    8  A    between atoms: P_14  and  O_16
REMARK                            x       y       z     vdW  Elec       q    Type
REMARK                         _______ _______ _______ _____ _____    ______ ____
ROOT
ATOM      1  C   UNL     1       7.775   0.990  22.524  0.00  0.00    +0.178 C 
ATOM      2  C   UNL     1       7.871   1.800  23.821  0.00  0.00    +0.178 C 
ATOM      3  O   UNL     1       9.147   1.500  24.426  0.00  0.00    -0.347 OA
ATOM      4  C   UNL     1       9.810   0.508  23.638  0.00  0.00    +0.248 C 
ATOM      5  C   UNL     1       9.236   0.696  22.217  0.00  0.00    +0.193 C 
ENDROOT
BRANCH   4   6
ATOM      6  N   UNL     1       9.568  -0.850  24.165  0.00  0.00    -0.196 N 
ATOM      7  C   UNL     1      10.020  -1.886  23.370  0.00  0.00    +0.317 C 
ATOM      8  O   UNL     1      10.677  -1.720  22.348  0.00  0.00    -0.252 OA
ATOM      9  N   UNL     1       9.680  -3.149  23.745  0.00  0.00    -0.239 N 
ATOM     10  H   UNL     1       9.936  -3.875  23.092  0.00  0.00    +0.159 HD
ATOM     11  C   UNL     1       8.735  -3.476  24.664  0.00  0.00    +0.229 C 
ATOM     12  O   UNL     1       8.249  -4.604  24.705  0.00  0.00    -0.275 OA
ATOM     13  C   UNL     1       8.296  -2.387  25.570  0.00  0.00    +0.192 C 
ATOM     14  C   UNL     1       9.009  -1.078  25.409  0.00  0.00    +0.234 C 
ATOM     15  O   UNL     1       8.971  -0.289  26.355  0.00  0.00    -0.275 OA
ENDBRANCH   4   6
BRANCH   1  16
ATOM     16  O   UNL     1       7.094  -0.260  22.707  0.00  0.00    -0.386 OA
ATOM     17  H   UNL     1       6.132  -0.104  22.694  0.00  0.00    +0.210 HD
ENDBRANCH   1  16
BRANCH   5  18
ATOM     18  O   UNL     1       9.820   1.826  21.557  0.00  0.00    -0.385 OA
ATOM     19  H   UNL     1      10.034   2.483  22.243  0.00  0.00    +0.210 HD
ENDBRANCH   5  18
BRANCH   2  20
ATOM     20  C   UNL     1       7.790   3.303  23.591  0.00  0.00    +0.206 C 
BRANCH  20  21
ATOM     21  O   UNL     1       8.577   3.940  24.593  0.00  0.00    -0.284 OA
BRANCH  21  22
ATOM     22  P   UNL     1       9.585   5.194  23.955  0.00  0.00    +0.472 P 
ATOM     23  O   UNL     1      10.486   6.316  23.385  0.00  0.00    -0.228 OA
BRANCH  22  24
ATOM     24  O   UNL     1       8.482   5.192  22.750  0.00  0.00    -0.303 OA
ATOM     25  H   UNL     1       7.928   4.398  22.874  0.00  0.00    +0.222 HD
ENDBRANCH  22  24
BRANCH  22  26
ATOM     26  O   UNL     1      10.494   3.967  23.376  0.00  0.00    -0.303 OA
ATOM     27  H   UNL     1      11.018   3.551  24.083  0.00  0.00    +0.222 HD
ENDBRANCH  22  26
ENDBRANCH  21  22
ENDBRANCH  20  21
ENDBRANCH   2  20
TORSDOF 8
ENDMDL
MODEL 6
REMARK VINA RESULT:      -6.1      3.231      6.129
REMARK  Name = 
REMARK  8 active torsions:
REMARK  status: ('A' for Active; 'I' for Inactive)
REMARK    1  A    between atoms: O_1  and  C_2
REMARK    2  A    between atoms: C_4  and  O_6
REMARK    3  A    between atoms: C_7  and  N_18
REMARK    4  A    between atoms: C_10  and  C_12
REMARK    5  A    between atoms: C_12  and  O_13
REMARK    6  A    between atoms: O_13  and  P_14
REMARK    7  A    between atoms: P_14  and  O_15
REMARK    8  A    between atoms: P_14  and  O_16
REMARK                            x       y       z     vdW  Elec       q    Type
REMARK                         _______ _______ _______ _____ _____    ______ ____
ROOT
ATOM      1  C   UNL     1       8.216  -4.603  23.941  0.00  0.00    +0.178 C 
ATOM      2  C   UNL     1       7.023  -4.367  24.874  0.00  0.00    +0.178 C 
ATOM      3  O   UNL     1       6.347  -3.175  24.419  0.00  0.00    -0.347 OA
ATOM      4  C   UNL     1       7.078  -2.619  23.324  0.00  0.00    +0.248 C 
ATOM      5  C   UNL     1       7.815  -3.823  22.698  0.00  0.00    +0.193 C 
ENDROOT
BRANCH   4   6
ATOM      6  N   UNL     1       8.009  -1.566  23.777  0.00  0.00    -0.196 N 
ATOM      7  C   UNL     1       8.911  -1.121  22.829  0.00  0.00    +0.317 C 
ATOM      8  O   UNL     1       8.891  -1.476  21.655  0.00  0.00    -0.252 OA
ATOM      9  N   UNL     1       9.882  -0.266  23.250  0.00  0.00    -0.239 N 
ATOM     10  H   UNL     1      10.584  -0.039  22.560  0.00  0.00    +0.159 HD
ATOM     11  C   UNL     1      10.210  -0.013  24.544  0.00  0.00    +0.229 C 
ATOM     12  O   UNL     1      11.291   0.490  24.840  0.00  0.00    -0.275 OA
ATOM     13  C   UNL     1       9.216  -0.423  25.564  0.00  0.00    +0.192 C 
ATOM     14  C   UNL     1       7.935  -0.995  25.034  0.00  0.00    +0.234 C 
ATOM     15  O   UNL     1       6.954  -0.985  25.781  0.00  0.00    -0.275 OA
ENDBRANCH   4   6
BRANCH   1  16
ATOM     16  O   UNL     1       9.432  -4.039  24.453  0.00  0.00    -0.386 OA
ATOM     17  H   UNL     1       9.824  -4.655  25.097  0.00  0.00    +0.210 HD
ENDBRANCH   1  16
BRANCH   5  18
ATOM     18  O   UNL     1       6.934  -4.622  21.899  0.00  0.00    -0.385 OA
ATOM     19  H   UNL     1       6.263  -4.026  21.521  0.00  0.00    +0.210 HD
ENDBRANCH   5  18
BRANCH   2  20
ATOM     20  C   UNL     1       6.027  -5.518  24.868  0.00  0.00    +0.206 C 
BRANCH  20  21
ATOM     21  O   UNL     1       4.717  -4.959  24.854  0.00  0.00    -0.284 OA
BRANCH  21  22
ATOM     22  P   UNL     1       3.707  -5.654  23.632  0.00  0.00    +0.472 P 
ATOM     23  O   UNL     1       2.802  -6.275  22.540  0.00  0.00    -0.228 OA
BRANCH  22  24
ATOM     24  O   UNL     1       5.018  -6.589  23.361  0.00  0.00    -0.303 OA
ATOM     25  H   UNL     1       4.907  -7.394  23.901  0.00  0.00    +0.222 HD
ENDBRANCH  22  24
BRANCH  22  26
ATOM     26  O   UNL     1       4.190  -4.388  22.719  0.00  0.00    -0.303 OA
ATOM     27  H   UNL     1       3.907  -3.543  23.110  0.00  0.00    +0.222 HD
ENDBRANCH  22  26
ENDBRANCH  21  22
ENDBRANCH  20  21
ENDBRANCH   2  20
TORSDOF 8
ENDMDL
MODEL 7
REMARK VINA RESULT:      -6.0      3.050      6.228
REMARK  Name = 
REMARK  8 active torsions:
REMARK  status: ('A' for Active; 'I' for Inactive)
REMARK    1  A    between atoms: O_1  and  C_2
REMARK    2  A    between atoms: C_4  and  O_6
REMARK    3  A    between atoms: C_7  and  N_18
REMARK    4  A    between atoms: C_10  and  C_12
REMARK    5  A    between atoms: C_12  and  O_13
REMARK    6  A    between atoms: O_13  and  P_14
REMARK    7  A    between atoms: P_14  and  O_15
REMARK    8  A    between atoms: P_14  and  O_16
REMARK                            x       y       z     vdW  Elec       q    Type
REMARK                         _______ _______ _______ _____ _____    ______ ____
ROOT
ATOM      1  C   UNL     1       8.187  -3.483  25.680  0.00  0.00    +0.178 C 
ATOM      2  C   UNL     1       6.767  -3.395  25.111  0.00  0.00    +0.178 C 
ATOM      3  O   UNL     1       6.882  -3.181  23.688  0.00  0.00    -0.347 OA
ATOM      4  C   UNL     1       8.266  -3.054  23.351  0.00  0.00    +0.248 C 
ATOM      5  C   UNL     1       9.006  -3.846  24.450  0.00  0.00    +0.193 C 
ENDROOT
BRANCH   4   6
ATOM      6  N   UNL     1       8.682  -1.638  23.304  0.00  0.00    -0.196 N 
ATOM      7  C   UNL     1      10.028  -1.421  23.084  0.00  0.00    +0.317 C 
ATOM      8  O   UNL     1      10.828  -2.316  22.831  0.00  0.00    -0.252 OA
ATOM      9  N   UNL     1      10.475  -0.140  23.188  0.00  0.00    -0.239 N 
ATOM     10  H   UNL     1      11.476  -0.026  23.122  0.00  0.00    +0.159 HD
ATOM     11  C   UNL     1       9.789   0.898  23.735  0.00  0.00    +0.229 C 
ATOM     12  O   UNL     1      10.364   1.920  24.098  0.00  0.00    -0.275 OA
ATOM     13  C   UNL     1       8.330   0.700  23.908  0.00  0.00    +0.192 C 
ATOM     14  C   UNL     1       7.780  -0.593  23.384  0.00  0.00    +0.234 C 
ATOM     15  O   UNL     1       6.571  -0.644  23.149  0.00  0.00    -0.275 OA
ENDBRANCH   4   6
BRANCH   1  16
ATOM     16  O   UNL     1       8.658  -2.222  26.177  0.00  0.00    -0.386 OA
ATOM     17  H   UNL     1       8.296  -1.506  25.625  0.00  0.00    +0.210 HD
ENDBRANCH   1  16
BRANCH   5  18
ATOM     18  O   UNL     1       8.927  -5.259  24.227  0.00  0.00    -0.385 OA
ATOM     19  H   UNL     1       9.776  -5.540  23.841  0.00  0.00    +0.210 HD
ENDBRANCH   5  18
BRANCH   2  20
ATOM     20  C   UNL     1       5.954  -4.661  25.343  0.00  0.00    +0.206 C 
BRANCH  20  21
ATOM     21  O   UNL     1       5.963  -5.411  24.131  0.00  0.00    -0.284 OA
BRANCH  21  22
ATOM     22  P   UNL     1       4.386  -5.580  23.439  0.00  0.00    +0.472 P 
ATOM     23  O   UNL     1       2.975  -5.731  22.820  0.00  0.00    -0.228 OA
BRANCH  22  24
ATOM     24  O   UNL     1       4.786  -7.164  23.409  0.00  0.00    -0.303 OA
ATOM     25  H   UNL     1       4.023  -7.641  23.031  0.00  0.00    +0.222 HD
ENDBRANCH  22  24
BRANCH  22  26
ATOM     26  O   UNL     1       5.119  -5.177  22.036  0.00  0.00    -0.303 OA
ATOM     27  H   UNL     1       5.765  -4.462  22.168  0.00  0.00    +0.222 HD
ENDBRANCH  22  26
ENDBRANCH  21  22
ENDBRANCH  20  21
ENDBRANCH   2  20
TORSDOF 8
ENDMDL
MODEL 8
REMARK VINA RESULT:      -6.0      3.000      6.818
REMARK  Name = 
REMARK  8 active torsions:
REMARK  status: ('A' for Active; 'I' for Inactive)
REMARK    1  A    between atoms: O_1  and  C_2
REMARK    2  A    between atoms: C_4  and  O_6
REMARK    3  A    between atoms: C_7  and  N_18
REMARK    4  A    between atoms: C_10  and  C_12
REMARK    5  A    between atoms: C_12  and  O_13
REMARK    6  A    between atoms: O_13  and  P_14
REMARK    7  A    between atoms: P_14  and  O_15
REMARK    8  A    between atoms: P_14  and  O_16
REMARK                            x       y       z     vdW  Elec       q    Type
REMARK                         _______ _______ _______ _____ _____    ______ ____
ROOT
ATOM      1  C   UNL     1       8.559  -3.979  26.359  0.00  0.00    +0.178 C 
ATOM      2  C   UNL     1       7.159  -4.472  25.976  0.00  0.00    +0.178 C 
ATOM      3  O   UNL     1       7.113  -4.571  24.537  0.00  0.00    -0.347 OA
ATOM      4  C   UNL     1       8.353  -4.104  24.002  0.00  0.00    +0.248 C 
ATOM      5  C   UNL     1       9.378  -4.347  25.130  0.00  0.00    +0.193 C 
ENDROOT
BRANCH   4   6
ATOM      6  N   UNL     1       8.272  -2.682  23.615  0.00  0.00    -0.196 N 
ATOM      7  C   UNL     1       9.476  -2.081  23.299  0.00  0.00    +0.317 C 
ATOM      8  O   UNL     1      10.539  -2.689  23.228  0.00  0.00    -0.252 OA
ATOM      9  N   UNL     1       9.462  -0.737  23.089  0.00  0.00    -0.239 N 
ATOM     10  H   UNL     1      10.370  -0.312  22.961  0.00  0.00    +0.159 HD
ATOM     11  C   UNL     1       8.447   0.106  23.410  0.00  0.00    +0.229 C 
ATOM     12  O   UNL     1       8.630   1.316  23.507  0.00  0.00    -0.275 OA
ATOM     13  C   UNL     1       7.132  -0.525  23.680  0.00  0.00    +0.192 C 
ATOM     14  C   UNL     1       7.070  -2.011  23.488  0.00  0.00    +0.234 C 
ATOM     15  O   UNL     1       5.959  -2.517  23.318  0.00  0.00    -0.275 OA
ENDBRANCH   4   6
BRANCH   1  16
ATOM     16  O   UNL     1       8.613  -2.555  26.524  0.00  0.00    -0.386 OA
ATOM     17  H   UNL     1       8.742  -2.348  27.467  0.00  0.00    +0.210 HD
ENDBRANCH   1  16
BRANCH   5  18
ATOM     18  O   UNL     1       9.759  -5.726  25.210  0.00  0.00    -0.385 OA
ATOM     19  H   UNL     1      10.362  -5.904  24.465  0.00  0.00    +0.210 HD
ENDBRANCH   5  18
BRANCH   2  20
ATOM     20  C   UNL     1       6.828  -5.837  26.564  0.00  0.00    +0.206 C 
BRANCH  20  21
ATOM     21  O   UNL     1       6.999  -5.755  27.976  0.00  0.00    -0.284 OA
BRANCH  21  22
ATOM     22  P   UNL     1       5.692  -6.479  28.850  0.00  0.00    +0.472 P 
ATOM     23  O   UNL     1       4.522  -7.127  29.631  0.00  0.00    -0.228 OA
BRANCH  22  24
ATOM     24  O   UNL     1       6.138  -5.414  30.006  0.00  0.00    -0.303 OA
ATOM     25  H   UNL     1       6.504  -5.937  30.745  0.00  0.00    +0.222 HD
ENDBRANCH  22  24
BRANCH  22  26
ATOM     26  O   UNL     1       6.781  -7.635  29.232  0.00  0.00    -0.303 OA
ATOM     27  H   UNL     1       6.567  -8.053  30.084  0.00  0.00    +0.222 HD
ENDBRANCH  22  26
ENDBRANCH  21  22
ENDBRANCH  20  21
ENDBRANCH   2  20
TORSDOF 8
ENDMDL
MODEL 9
REMARK VINA RESULT:      -5.9      3.088      6.381
REMARK  Name = 
REMARK  8 active torsions:
REMARK  status: ('A' for Active; 'I' for Inactive)
REMARK    1  A    between atoms: O_1  and  C_2
REMARK    2  A    between atoms: C_4  and  O_6
REMARK    3  A    between atoms: C_7  and  N_18
REMARK    4  A    between atoms: C_10  and  C_12
REMARK    5  A    between atoms: C_12  and  O_13
REMARK    6  A    between atoms: O_13  and  P_14
REMARK    7  A    between atoms: P_14  and  O_15
REMARK    8  A    between atoms: P_14  and  O_16
REMARK                            x       y       z     vdW  Elec       q    Type
REMARK                         _______ _______ _______ _____ _____    ______ ____
ROOT
ATOM      1  C   UNL     1       7.999  -4.705  24.966  0.00  0.00    +0.178 C 
ATOM      2  C   UNL     1       6.636  -4.217  25.470  0.00  0.00    +0.178 C 
ATOM      3  O   UNL     1       6.160  -3.222  24.538  0.00  0.00    -0.347 OA
ATOM      4  C   UNL     1       7.163  -3.007  23.542  0.00  0.00    +0.248 C 
ATOM      5  C   UNL     1       7.951  -4.333  23.492  0.00  0.00    +0.193 C 
ENDROOT
BRANCH   4   6
ATOM      6  N   UNL     1       8.023  -1.856  23.882  0.00  0.00    -0.196 N 
ATOM      7  C   UNL     1       9.104  -1.653  23.047  0.00  0.00    +0.317 C 
ATOM      8  O   UNL     1       9.301  -2.299  22.023  0.00  0.00    -0.252 OA
ATOM      9  N   UNL     1      10.003  -0.701  23.416  0.00  0.00    -0.239 N 
ATOM     10  H   UNL     1      10.833  -0.646  22.842  0.00  0.00    +0.159 HD
ATOM     11  C   UNL     1      10.083  -0.117  24.640  0.00  0.00    +0.229 C 
ATOM     12  O   UNL     1      11.102   0.465  25.003  0.00  0.00    -0.275 OA
ATOM     13  C   UNL     1       8.897  -0.268  25.517  0.00  0.00    +0.192 C 
ATOM     14  C   UNL     1       7.725  -0.981  24.911  0.00  0.00    +0.234 C 
ATOM     15  O   UNL     1       6.619  -0.797  25.424  0.00  0.00    -0.275 OA
ENDBRANCH   4   6
BRANCH   1  16
ATOM     16  O   UNL     1       9.091  -3.999  25.573  0.00  0.00    -0.386 OA
ATOM     17  H   UNL     1       9.543  -4.590  26.202  0.00  0.00    +0.210 HD
ENDBRANCH   1  16
BRANCH   5  18
ATOM     18  O   UNL     1       7.238  -5.344  22.770  0.00  0.00    -0.385 OA
ATOM     19  H   UNL     1       6.654  -5.796  23.405  0.00  0.00    +0.210 HD
ENDBRANCH   5  18
BRANCH   2  20
ATOM     20  C   UNL     1       5.601  -5.330  25.555  0.00  0.00    +0.206 C 
BRANCH  20  21
ATOM     21  O   UNL     1       6.114  -6.336  26.424  0.00  0.00    -0.284 OA
BRANCH  21  22
ATOM     22  P   UNL     1       6.025  -5.885  28.093  0.00  0.00    +0.472 P 
ATOM     23  O   UNL     1       5.944  -5.481  29.586  0.00  0.00    -0.228 OA
BRANCH  22  24
ATOM     24  O   UNL     1       7.615  -6.258  28.073  0.00  0.00    -0.303 OA
ATOM     25  H   UNL     1       7.724  -7.058  28.622  0.00  0.00    +0.222 HD
ENDBRANCH  22  24
BRANCH  22  26
ATOM     26  O   UNL     1       5.480  -7.408  28.324  0.00  0.00    -0.303 OA
ATOM     27  H   UNL     1       4.507  -7.438  28.329  0.00  0.00    +0.222 HD
ENDBRANCH  22  26
ENDBRANCH  21  22
ENDBRANCH  20  21
ENDBRANCH   2  20
TORSDOF 8
ENDMDL
