MODEL 1
REMARK VINA RESULT:      -6.6      0.000      0.000
REMARK  Name = 
REMARK  11 active torsions:
REMARK  status: ('A' for Active; 'I' for Inactive)
REMARK    1  A    between atoms: CA_2  and  N_3
REMARK    2  A    between atoms: CA_2  and  C_12
REMARK    3  A    between atoms: CA_2  and  C_14
REMARK    4  A    between atoms: C_4  and  C_6
REMARK    5  A    between atoms: C_6  and  C_7
REMARK    6  A    between atoms: CA_17  and  C_18
REMARK    7  A    between atoms: C_18  and  O_19
REMARK    8  A    between atoms: C_21  and  C_22
REMARK    9  A    between atoms: C_22  and  C_23
REMARK   10  A    between atoms: C_23  and  O_25
REMARK   11  A    between atoms: O_25  and  C_26
REMARK                            x       y       z     vdW  Elec       q    Type
REMARK                         _______ _______ _______ _____ _____    ______ ____
ROOT
ATOM      1  C   UNL     1       6.656  -2.565  24.922  0.00  0.00    +0.156 C 
ATOM      2  S   UNL     1       4.877  -2.351  25.230  0.00  0.00    -0.132 S 
ATOM      3  C   UNL     1       4.373  -4.087  25.210  0.00  0.00    +0.104 C 
ATOM      4  C   UNL     1       5.273  -5.011  25.983  0.00  0.00    -0.021 C 
ATOM      5  CA  UNL     1       6.539  -4.682  26.317  0.00  0.00    +0.114 C 
ATOM      6  N   UNL     1       7.187  -3.509  25.906  0.00  0.00    -0.325 N 
ATOM      7  H   UNL     1       7.555  -3.024  26.729  0.00  0.00    +0.147 HD
ENDROOT
BRANCH   5   8
ATOM      8  C   UNL     1       7.372  -5.601  27.191  0.00  0.00    +0.351 C 
ATOM      9  OXT UNL     1       7.109  -5.959  28.324  0.00  0.00    -0.244 OA
BRANCH   8  10
ATOM     10  O   UNL     1       8.506  -5.935  26.528  0.00  0.00    -0.476 OA
ATOM     11  H   UNL     1       8.326  -5.838  25.564  0.00  0.00    +0.295 HD
ENDBRANCH   8  10
ENDBRANCH   5   8
BRANCH   1  12
ATOM     12  CA  UNL     1       7.038  -2.952  23.464  0.00  0.00    +0.166 C 
BRANCH  12  13
ATOM     13  N   UNL     1       8.190  -2.196  22.927  0.00  0.00    -0.303 N 
ATOM     14  H   UNL     1       7.999  -1.549  22.163  0.00  0.00    +0.149 HD
ATOM     15  C   UNL     1       9.492  -2.472  23.268  0.00  0.00    +0.218 C 
ATOM     16  O   UNL     1       9.788  -3.337  24.088  0.00  0.00    -0.275 OA
BRANCH  15  17
ATOM     17  C   UNL     1      10.534  -1.576  22.616  0.00  0.00    +0.138 C 
BRANCH  17  18
ATOM     18  C   UNL     1      10.271  -0.125  22.887  0.00  0.00    -0.001 A 
ATOM     19  S   UNL     1      10.567   0.529  24.446  0.00  0.00    -0.101 S 
ATOM     20  C   UNL     1      10.157   2.109  23.934  0.00  0.00    +0.045 A 
ATOM     21  C   UNL     1       9.794   2.144  22.607  0.00  0.00    +0.008 A 
ATOM     22  C   UNL     1       9.858   0.853  22.003  0.00  0.00    +0.011 A 
ENDBRANCH  17  18
ENDBRANCH  15  17
ENDBRANCH  12  13
BRANCH  12  23
ATOM     23  C   UNL     1       5.882  -2.617  22.531  0.00  0.00    +0.248 C 
ATOM     24  O   UNL     1       5.356  -3.443  21.785  0.00  0.00    -0.299 OA
ENDBRANCH  12  23
ENDBRANCH   1  12
BRANCH   4  25
ATOM     25  C   UNL     1       4.608  -6.335  26.333  0.00  0.00    +0.154 C 
BRANCH  25  26
ATOM     26  C   UNL     1       4.181  -7.142  25.113  0.00  0.00    +0.311 C 
ATOM     27  O   UNL     1       4.810  -7.247  24.069  0.00  0.00    -0.251 OA
BRANCH  26  28
ATOM     28  O   UNL     1       3.016  -7.797  25.398  0.00  0.00    -0.468 OA
ATOM     29  C   UNL     1       1.947  -6.953  25.830  0.00  0.00    +0.280 C 
ENDBRANCH  26  28
ENDBRANCH  25  26
ENDBRANCH   4  25
TORSDOF 10
ENDMDL
MODEL 2
REMARK VINA RESULT:      -6.4      2.557      3.458
REMARK  Name = 
REMARK  11 active torsions:
REMARK  status: ('A' for Active; 'I' for Inactive)
REMARK    1  A    between atoms: CA_2  and  N_3
REMARK    2  A    between atoms: CA_2  and  C_12
REMARK    3  A    between atoms: CA_2  and  C_14
REMARK    4  A    between atoms: C_4  and  C_6
REMARK    5  A    between atoms: C_6  and  C_7
REMARK    6  A    between atoms: CA_17  and  C_18
REMARK    7  A    between atoms: C_18  and  O_19
REMARK    8  A    between atoms: C_21  and  C_22
REMARK    9  A    between atoms: C_22  and  C_23
REMARK   10  A    between atoms: C_23  and  O_25
REMARK   11  A    between atoms: O_25  and  C_26
REMARK                            x       y       z     vdW  Elec       q    Type
REMARK                         _______ _______ _______ _____ _____    ______ ____
ROOT
ATOM      1  C   UNL     1       8.606  -4.070  24.746  0.00  0.00    +0.156 C 
ATOM      2  S   UNL     1       8.183  -5.133  26.158  0.00  0.00    -0.132 S 
ATOM      3  C   UNL     1       6.387  -5.173  25.958  0.00  0.00    +0.104 C 
ATOM      4  C   UNL     1       5.917  -5.393  24.546  0.00  0.00    -0.021 C 
ATOM      5  CA  UNL     1       6.709  -5.178  23.475  0.00  0.00    +0.114 C 
ATOM      6  N   UNL     1       8.001  -4.638  23.540  0.00  0.00    -0.325 N 
ATOM      7  H   UNL     1       8.649  -5.262  23.054  0.00  0.00    +0.147 HD
ENDROOT
BRANCH   5   8
ATOM      8  C   UNL     1       6.228  -5.519  22.076  0.00  0.00    +0.351 C 
ATOM      9  OXT UNL     1       5.712  -4.756  21.281  0.00  0.00    -0.244 OA
BRANCH   8  10
ATOM     10  O   UNL     1       6.416  -6.842  21.854  0.00  0.00    -0.476 OA
ATOM     11  H   UNL     1       6.746  -6.946  20.931  0.00  0.00    +0.295 HD
ENDBRANCH   8  10
ENDBRANCH   5   8
BRANCH   1  12
ATOM     12  CA  UNL     1       8.270  -2.561  24.923  0.00  0.00    +0.166 C 
BRANCH  12  13
ATOM     13  N   UNL     1       9.146  -1.658  24.147  0.00  0.00    -0.303 N 
ATOM     14  H   UNL     1       9.839  -1.127  24.673  0.00  0.00    +0.149 HD
ATOM     15  C   UNL     1       8.935  -1.365  22.821  0.00  0.00    +0.218 C 
ATOM     16  O   UNL     1       8.028  -1.879  22.171  0.00  0.00    -0.275 OA
BRANCH  15  17
ATOM     17  C   UNL     1       9.953  -0.422  22.198  0.00  0.00    +0.138 C 
BRANCH  17  18
ATOM     18  C   UNL     1       9.741   0.996  22.637  0.00  0.00    -0.001 A 
ATOM     19  S   UNL     1       8.440   1.913  21.996  0.00  0.00    -0.101 S 
ATOM     20  C   UNL     1       8.803   3.251  22.996  0.00  0.00    +0.045 A 
ATOM     21  C   UNL     1       9.896   3.015  23.799  0.00  0.00    +0.008 A 
ATOM     22  C   UNL     1      10.439   1.713  23.590  0.00  0.00    +0.011 A 
ENDBRANCH  17  18
ENDBRANCH  15  17
ENDBRANCH  12  13
BRANCH  12  23
ATOM     23  C   UNL     1       8.486  -2.162  26.376  0.00  0.00    +0.248 C 
ATOM     24  O   UNL     1       8.619  -0.994  26.743  0.00  0.00    -0.299 OA
ENDBRANCH  12  23
ENDBRANCH   1  12
BRANCH   4  25
ATOM     25  C   UNL     1       4.474  -5.873  24.467  0.00  0.00    +0.154 C 
BRANCH  25  26
ATOM     26  C   UNL     1       3.484  -4.766  24.124  0.00  0.00    +0.311 C 
ATOM     27  O   UNL     1       3.365  -3.703  24.718  0.00  0.00    -0.251 OA
BRANCH  26  28
ATOM     28  O   UNL     1       2.801  -5.116  22.994  0.00  0.00    -0.468 OA
ATOM     29  C   UNL     1       2.377  -6.480  22.950  0.00  0.00    +0.280 C 
ENDBRANCH  26  28
ENDBRANCH  25  26
ENDBRANCH   4  25
TORSDOF 10
ENDMDL
MODEL 3
REMARK VINA RESULT:      -6.4      2.303      3.443
REMARK  Name = 
REMARK  11 active torsions:
REMARK  status: ('A' for Active; 'I' for Inactive)
REMARK    1  A    between atoms: CA_2  and  N_3
REMARK    2  A    between atoms: CA_2  and  C_12
REMARK    3  A    between atoms: CA_2  and  C_14
REMARK    4  A    between atoms: C_4  and  C_6
REMARK    5  A    between atoms: C_6  and  C_7
REMARK    6  A    between atoms: CA_17  and  C_18
REMARK    7  A    between atoms: C_18  and  O_19
REMARK    8  A    between atoms: C_21  and  C_22
REMARK    9  A    between atoms: C_22  and  C_23
REMARK   10  A    between atoms: C_23  and  O_25
REMARK   11  A    between atoms: O_25  and  C_26
REMARK                            x       y       z     vdW  Elec       q    Type
REMARK                         _______ _______ _______ _____ _____    ______ ____
ROOT
ATOM      1  C   UNL     1       5.262  -4.322  22.712  0.00  0.00    +0.156 C 
ATOM      2  S   UNL     1       4.325  -5.733  23.372  0.00  0.00    -0.132 S 
ATOM      3  C   UNL     1       5.048  -5.806  25.027  0.00  0.00    +0.104 C 
ATOM      4  C   UNL     1       5.188  -4.473  25.710  0.00  0.00    -0.021 C 
ATOM      5  CA  UNL     1       5.170  -3.304  25.035  0.00  0.00    +0.114 C 
ATOM      6  N   UNL     1       5.122  -3.198  23.638  0.00  0.00    -0.325 N 
ATOM      7  H   UNL     1       4.341  -2.591  23.376  0.00  0.00    +0.147 HD
ENDROOT
BRANCH   5   8
ATOM      8  C   UNL     1       5.205  -1.981  25.777  0.00  0.00    +0.351 C 
ATOM      9  OXT UNL     1       4.245  -1.307  26.103  0.00  0.00    -0.244 OA
BRANCH   8  10
ATOM     10  O   UNL     1       6.495  -1.625  25.988  0.00  0.00    -0.476 OA
ATOM     11  H   UNL     1       6.761  -1.975  26.871  0.00  0.00    +0.295 HD
ENDBRANCH   8  10
ENDBRANCH   5   8
BRANCH   1  12
ATOM     12  CA  UNL     1       6.748  -4.616  22.357  0.00  0.00    +0.166 C 
BRANCH  12  13
ATOM     13  N   UNL     1       7.489  -3.436  21.863  0.00  0.00    -0.303 N 
ATOM     14  H   UNL     1       7.530  -3.308  20.853  0.00  0.00    +0.149 HD
ATOM     15  C   UNL     1       8.270  -2.647  22.674  0.00  0.00    +0.218 C 
ATOM     16  O   UNL     1       8.363  -2.839  23.884  0.00  0.00    -0.275 OA
BRANCH  15  17
ATOM     17  C   UNL     1       8.945  -1.475  21.979  0.00  0.00    +0.138 C 
BRANCH  17  18
ATOM     18  C   UNL     1       9.278  -0.373  22.940  0.00  0.00    -0.001 A 
ATOM     19  S   UNL     1       8.047   0.682  23.503  0.00  0.00    -0.101 S 
ATOM     20  C   UNL     1       9.131   1.499  24.543  0.00  0.00    +0.045 A 
ATOM     21  C   UNL     1      10.407   0.989  24.463  0.00  0.00    +0.008 A 
ATOM     22  C   UNL     1      10.492  -0.091  23.535  0.00  0.00    +0.011 A 
ENDBRANCH  17  18
ENDBRANCH  15  17
ENDBRANCH  12  13
BRANCH  12  23
ATOM     23  C   UNL     1       6.807  -5.620  21.214  0.00  0.00    +0.248 C 
ATOM     24  O   UNL     1       6.062  -5.574  20.235  0.00  0.00    -0.299 OA
ENDBRANCH  12  23
ENDBRANCH   1  12
BRANCH   4  25
ATOM     25  C   UNL     1       5.355  -4.591  27.219  0.00  0.00    +0.154 C 
BRANCH  25  26
ATOM     26  C   UNL     1       6.738  -5.074  27.641  0.00  0.00    +0.311 C 
ATOM     27  O   UNL     1       6.980  -6.103  28.256  0.00  0.00    -0.251 OA
BRANCH  26  28
ATOM     28  O   UNL     1       7.678  -4.210  27.154  0.00  0.00    -0.468 OA
ATOM     29  C   UNL     1       8.784  -4.837  26.502  0.00  0.00    +0.280 C 
ENDBRANCH  26  28
ENDBRANCH  25  26
ENDBRANCH   4  25
TORSDOF 10
ENDMDL
MODEL 4
REMARK VINA RESULT:      -6.2      1.970      2.809
REMARK  Name = 
REMARK  11 active torsions:
REMARK  status: ('A' for Active; 'I' for Inactive)
REMARK    1  A    between atoms: CA_2  and  N_3
REMARK    2  A    between atoms: CA_2  and  C_12
REMARK    3  A    between atoms: CA_2  and  C_14
REMARK    4  A    between atoms: C_4  and  C_6
REMARK    5  A    between atoms: C_6  and  C_7
REMARK    6  A    between atoms: CA_17  and  C_18
REMARK    7  A    between atoms: C_18  and  O_19
REMARK    8  A    between atoms: C_21  and  C_22
REMARK    9  A    between atoms: C_22  and  C_23
REMARK   10  A    between atoms: C_23  and  O_25
REMARK   11  A    between atoms: O_25  and  C_26
REMARK                            x       y       z     vdW  Elec       q    Type
REMARK                         _______ _______ _______ _____ _____    ______ ____
ROOT
ATOM      1  C   UNL     1       8.388  -1.731  25.932  0.00  0.00    +0.156 C 
ATOM      2  S   UNL     1       6.779  -0.989  25.527  0.00  0.00    -0.132 S 
ATOM      3  C   UNL     1       6.001  -2.412  24.728  0.00  0.00    +0.104 C 
ATOM      4  C   UNL     1       6.186  -3.717  25.452  0.00  0.00    -0.021 C 
ATOM      5  CA  UNL     1       7.158  -3.909  26.369  0.00  0.00    +0.114 C 
ATOM      6  N   UNL     1       8.153  -2.970  26.676  0.00  0.00    -0.325 N 
ATOM      7  H   UNL     1       8.159  -2.807  27.686  0.00  0.00    +0.147 HD
ENDROOT
BRANCH   5   8
ATOM      8  C   UNL     1       7.238  -5.206  27.153  0.00  0.00    +0.351 C 
ATOM      9  OXT UNL     1       6.610  -5.486  28.157  0.00  0.00    -0.244 OA
BRANCH   8  10
ATOM     10  O   UNL     1       8.171  -6.009  26.585  0.00  0.00    -0.476 OA
ATOM     11  H   UNL     1       8.069  -5.939  25.607  0.00  0.00    +0.295 HD
ENDBRANCH   8  10
ENDBRANCH   5   8
BRANCH   1  12
ATOM     12  CA  UNL     1       9.349  -1.938  24.726  0.00  0.00    +0.166 C 
BRANCH  12  13
ATOM     13  N   UNL     1       9.078  -1.039  23.584  0.00  0.00    -0.303 N 
ATOM     14  H   UNL     1       8.201  -0.521  23.606  0.00  0.00    +0.149 HD
ATOM     15  C   UNL     1       9.838  -1.032  22.439  0.00  0.00    +0.218 C 
ATOM     16  O   UNL     1      10.834  -1.738  22.307  0.00  0.00    -0.275 OA
BRANCH  15  17
ATOM     17  C   UNL     1       9.403  -0.029  21.382  0.00  0.00    +0.138 C 
BRANCH  17  18
ATOM     18  C   UNL     1       9.163   1.331  21.968  0.00  0.00    -0.001 A 
ATOM     19  S   UNL     1       7.600   2.036  21.900  0.00  0.00    -0.101 S 
ATOM     20  C   UNL     1       8.105   3.401  22.798  0.00  0.00    +0.045 A 
ATOM     21  C   UNL     1       9.437   3.332  23.139  0.00  0.00    +0.008 A 
ATOM     22  C   UNL     1      10.048   2.137  22.657  0.00  0.00    +0.011 A 
ENDBRANCH  17  18
ENDBRANCH  15  17
ENDBRANCH  12  13
BRANCH  12  23
ATOM     23  C   UNL     1       9.169  -3.343  24.169  0.00  0.00    +0.248 C 
ATOM     24  O   UNL     1       9.847  -4.305  24.531  0.00  0.00    -0.299 OA
ENDBRANCH  12  23
ENDBRANCH   1  12
BRANCH   4  25
ATOM     25  C   UNL     1       5.175  -4.778  25.037  0.00  0.00    +0.154 C 
BRANCH  25  26
ATOM     26  C   UNL     1       5.273  -5.168  23.567  0.00  0.00    +0.311 C 
ATOM     27  O   UNL     1       4.402  -5.005  22.724  0.00  0.00    -0.251 OA
BRANCH  26  28
ATOM     28  O   UNL     1       6.523  -5.659  23.320  0.00  0.00    -0.468 OA
ATOM     29  C   UNL     1       6.952  -5.546  21.962  0.00  0.00    +0.280 C 
ENDBRANCH  26  28
ENDBRANCH  25  26
ENDBRANCH   4  25
TORSDOF 10
ENDMDL
MODEL 5
REMARK VINA RESULT:      -6.1      1.971      3.144
REMARK  Name = 
REMARK  11 active torsions:
REMARK  status: ('A' for Active; 'I' for Inactive)
REMARK    1  A    between atoms: CA_2  and  N_3
REMARK    2  A    between atoms: CA_2  and  C_12
REMARK    3  A    between atoms: CA_2  and  C_14
REMARK    4  A    between atoms: C_4  and  C_6
REMARK    5  A    between atoms: C_6  and  C_7
REMARK    6  A    between atoms: CA_17  and  C_18
REMARK    7  A    between atoms: C_18  and  O_19
REMARK    8  A    between atoms: C_21  and  C_22
REMARK    9  A    between atoms: C_22  and  C_23
REMARK   10  A    between atoms: C_23  and  O_25
REMARK   11  A    between atoms: O_25  and  C_26
REMARK                            x       y       z     vdW  Elec       q    Type
REMARK                         _______ _______ _______ _____ _____    ______ ____
ROOT
ATOM      1  C   UNL     1       7.820  -4.787  23.179  0.00  0.00    +0.156 C 
ATOM      2  S   UNL     1       8.749  -5.084  24.713  0.00  0.00    -0.132 S 
ATOM      3  C   UNL     1       7.495  -4.571  25.910  0.00  0.00    +0.104 C 
ATOM      4  C   UNL     1       6.111  -5.089  25.631  0.00  0.00    -0.021 C 
ATOM      5  CA  UNL     1       5.736  -5.542  24.416  0.00  0.00    +0.114 C 
ATOM      6  N   UNL     1       6.540  -5.492  23.268  0.00  0.00    -0.325 N 
ATOM      7  H   UNL     1       6.598  -6.428  22.859  0.00  0.00    +0.147 HD
ENDROOT
BRANCH   5   8
ATOM      8  C   UNL     1       4.364  -6.158  24.210  0.00  0.00    +0.351 C 
ATOM      9  OXT UNL     1       3.306  -5.561  24.131  0.00  0.00    -0.244 OA
BRANCH   8  10
ATOM     10  O   UNL     1       4.485  -7.507  24.174  0.00  0.00    -0.476 OA
ATOM     11  H   UNL     1       3.865  -7.879  24.844  0.00  0.00    +0.295 HD
ENDBRANCH   8  10
ENDBRANCH   5   8
BRANCH   1  12
ATOM     12  CA  UNL     1       7.647  -3.293  22.782  0.00  0.00    +0.166 C 
BRANCH  12  13
ATOM     13  N   UNL     1       8.123  -2.343  23.810  0.00  0.00    -0.303 N 
ATOM     14  H   UNL     1       7.442  -2.037  24.503  0.00  0.00    +0.149 HD
ATOM     15  C   UNL     1       9.346  -1.720  23.746  0.00  0.00    +0.218 C 
ATOM     16  O   UNL     1      10.157  -1.953  22.853  0.00  0.00    -0.275 OA
BRANCH  15  17
ATOM     17  C   UNL     1       9.655  -0.784  24.904  0.00  0.00    +0.138 C 
BRANCH  17  18
ATOM     18  C   UNL     1       9.683   0.651  24.470  0.00  0.00    -0.001 A 
ATOM     19  S   UNL     1       8.317   1.658  24.728  0.00  0.00    -0.101 S 
ATOM     20  C   UNL     1       9.128   3.030  24.109  0.00  0.00    +0.045 A 
ATOM     21  C   UNL     1      10.411   2.734  23.705  0.00  0.00    +0.008 A 
ATOM     22  C   UNL     1      10.730   1.359  23.912  0.00  0.00    +0.011 A 
ENDBRANCH  17  18
ENDBRANCH  15  17
ENDBRANCH  12  13
BRANCH  12  23
ATOM     23  C   UNL     1       6.166  -2.981  22.616  0.00  0.00    +0.248 C 
ATOM     24  O   UNL     1       5.508  -3.330  21.637  0.00  0.00    -0.299 OA
ENDBRANCH  12  23
ENDBRANCH   1  12
BRANCH   4  25
ATOM     25  C   UNL     1       5.200  -5.040  26.850  0.00  0.00    +0.154 C 
BRANCH  25  26
ATOM     26  C   UNL     1       5.587  -6.034  27.938  0.00  0.00    +0.311 C 
ATOM     27  O   UNL     1       5.536  -7.252  27.845  0.00  0.00    -0.251 OA
BRANCH  26  28
ATOM     28  O   UNL     1       6.077  -5.347  29.013  0.00  0.00    -0.468 OA
ATOM     29  C   UNL     1       5.613  -5.814  30.281  0.00  0.00    +0.280 C 
ENDBRANCH  26  28
ENDBRANCH  25  26
ENDBRANCH   4  25
TORSDOF 10
ENDMDL
MODEL 6
REMARK VINA RESULT:      -6.0      2.309      3.277
REMARK  Name = 
REMARK  11 active torsions:
REMARK  status: ('A' for Active; 'I' for Inactive)
REMARK    1  A    between atoms: CA_2  and  N_3
REMARK    2  A    between atoms: CA_2  and  C_12
REMARK    3  A    between atoms: CA_2  and  C_14
REMARK    4  A    between atoms: C_4  and  C_6
REMARK    5  A    between atoms: C_6  and  C_7
REMARK    6  A    between atoms: CA_17  and  C_18
REMARK    7  A    between atoms: C_18  and  O_19
REMARK    8  A    between atoms: C_21  and  C_22
REMARK    9  A    between atoms: C_22  and  C_23
REMARK   10  A    between atoms: C_23  and  O_25
REMARK   11  A    between atoms: O_25  and  C_26
REMARK                            x       y       z     vdW  Elec       q    Type
REMARK                         _______ _______ _______ _____ _____    ______ ____
ROOT
ATOM      1  C   UNL     1       8.374  -1.496  25.297  0.00  0.00    +0.156 C 
ATOM      2  S   UNL     1       6.819  -1.314  24.374  0.00  0.00    -0.132 S 
ATOM      3  C   UNL     1       6.957  -2.759  23.296  0.00  0.00    +0.104 C 
ATOM      4  C   UNL     1       7.403  -4.018  23.987  0.00  0.00    -0.021 C 
ATOM      5  CA  UNL     1       8.031  -4.008  25.182  0.00  0.00    +0.114 C 
ATOM      6  N   UNL     1       8.424  -2.846  25.861  0.00  0.00    -0.325 N 
ATOM      7  H   UNL     1       8.048  -2.870  26.812  0.00  0.00    +0.147 HD
ENDROOT
BRANCH   5   8
ATOM      8  C   UNL     1       8.363  -5.308  25.892  0.00  0.00    +0.351 C 
ATOM      9  OXT UNL     1       7.639  -5.925  26.650  0.00  0.00    -0.244 OA
BRANCH   8  10
ATOM     10  O   UNL     1       9.635  -5.664  25.589  0.00  0.00    -0.476 OA
ATOM     11  H   UNL     1       9.946  -6.282  26.292  0.00  0.00    +0.295 HD
ENDBRANCH   8  10
ENDBRANCH   5   8
BRANCH   1  12
ATOM     12  CA  UNL     1       9.665  -1.135  24.508  0.00  0.00    +0.166 C 
BRANCH  12  13
ATOM     13  N   UNL     1       9.456  -0.122  23.451  0.00  0.00    -0.303 N 
ATOM     14  H   UNL     1       8.845  -0.383  22.679  0.00  0.00    +0.149 HD
ATOM     15  C   UNL     1      10.188   1.038  23.370  0.00  0.00    +0.218 C 
ATOM     16  O   UNL     1      11.036   1.341  24.206  0.00  0.00    -0.275 OA
BRANCH  15  17
ATOM     17  C   UNL     1       9.817   1.957  22.216  0.00  0.00    +0.138 C 
BRANCH  17  18
ATOM     18  C   UNL     1       8.498   2.634  22.444  0.00  0.00    -0.001 A 
ATOM     19  S   UNL     1       8.399   4.004  23.472  0.00  0.00    -0.101 S 
ATOM     20  C   UNL     1       6.735   4.218  23.136  0.00  0.00    +0.045 A 
ATOM     21  C   UNL     1       6.258   3.265  22.265  0.00  0.00    +0.008 A 
ATOM     22  C   UNL     1       7.276   2.349  21.867  0.00  0.00    +0.011 A 
ENDBRANCH  17  18
ENDBRANCH  15  17
ENDBRANCH  12  13
BRANCH  12  23
ATOM     23  C   UNL     1      10.170  -2.368  23.772  0.00  0.00    +0.248 C 
ATOM     24  O   UNL     1      10.516  -2.355  22.591  0.00  0.00    -0.299 OA
ENDBRANCH  12  23
ENDBRANCH   1  12
BRANCH   4  25
ATOM     25  C   UNL     1       7.077  -5.279  23.197  0.00  0.00    +0.154 C 
BRANCH  25  26
ATOM     26  C   UNL     1       5.582  -5.542  23.065  0.00  0.00    +0.311 C 
ATOM     27  O   UNL     1       4.973  -5.695  22.015  0.00  0.00    -0.251 OA
BRANCH  26  28
ATOM     28  O   UNL     1       5.039  -5.661  24.313  0.00  0.00    -0.468 OA
ATOM     29  C   UNL     1       4.494  -6.948  24.607  0.00  0.00    +0.280 C 
ENDBRANCH  26  28
ENDBRANCH  25  26
ENDBRANCH   4  25
TORSDOF 10
ENDMDL
MODEL 7
REMARK VINA RESULT:      -6.0      2.341      3.519
REMARK  Name = 
REMARK  11 active torsions:
REMARK  status: ('A' for Active; 'I' for Inactive)
REMARK    1  A    between atoms: CA_2  and  N_3
REMARK    2  A    between atoms: CA_2  and  C_12
REMARK    3  A    between atoms: CA_2  and  C_14
REMARK    4  A    between atoms: C_4  and  C_6
REMARK    5  A    between atoms: C_6  and  C_7
REMARK    6  A    between atoms: CA_17  and  C_18
REMARK    7  A    between atoms: C_18  and  O_19
REMARK    8  A    between atoms: C_21  and  C_22
REMARK    9  A    between atoms: C_22  and  C_23
REMARK   10  A    between atoms: C_23  and  O_25
REMARK   11  A    between atoms: O_25  and  C_26
REMARK                            x       y       z     vdW  Elec       q    Type
REMARK                         _______ _______ _______ _____ _____    ______ ____
ROOT
ATOM      1  C   UNL     1       8.832  -3.785  24.266  0.00  0.00    +0.156 C 
ATOM      2  S   UNL     1       9.102  -4.893  25.681  0.00  0.00    -0.132 S 
ATOM      3  C   UNL     1       7.380  -5.167  26.161  0.00  0.00    +0.104 C 
ATOM      4  C   UNL     1       6.447  -5.449  25.016  0.00  0.00    -0.021 C 
ATOM      5  CA  UNL     1       6.746  -5.132  23.739  0.00  0.00    +0.114 C 
ATOM      6  N   UNL     1       7.893  -4.428  23.345  0.00  0.00    -0.325 N 
ATOM      7  H   UNL     1       8.383  -4.963  22.623  0.00  0.00    +0.147 HD
ENDROOT
BRANCH   5   8
ATOM      8  C   UNL     1       5.822  -5.535  22.605  0.00  0.00    +0.351 C 
ATOM      9  OXT UNL     1       4.856  -4.914  22.202  0.00  0.00    -0.244 OA
BRANCH   8  10
ATOM     10  O   UNL     1       6.209  -6.742  22.125  0.00  0.00    -0.476 OA
ATOM     11  H   UNL     1       7.186  -6.807  22.237  0.00  0.00    +0.295 HD
ENDBRANCH   8  10
ENDBRANCH   5   8
BRANCH   1  12
ATOM     12  CA  UNL     1       8.406  -2.333  24.627  0.00  0.00    +0.166 C 
BRANCH  12  13
ATOM     13  N   UNL     1       9.187  -1.290  23.929  0.00  0.00    -0.303 N 
ATOM     14  H   UNL     1       9.715  -0.643  24.514  0.00  0.00    +0.149 HD
ATOM     15  C   UNL     1       9.069  -1.040  22.583  0.00  0.00    +0.218 C 
ATOM     16  O   UNL     1       8.341  -1.707  21.852  0.00  0.00    -0.275 OA
BRANCH  15  17
ATOM     17  C   UNL     1       9.965   0.068  22.051  0.00  0.00    +0.138 C 
BRANCH  17  18
ATOM     18  C   UNL     1       9.499   1.423  22.494  0.00  0.00    -0.001 A 
ATOM     19  S   UNL     1       8.001   2.046  21.933  0.00  0.00    -0.101 S 
ATOM     20  C   UNL     1       8.149   3.450  22.899  0.00  0.00    +0.045 A 
ATOM     21  C   UNL     1       9.316   3.455  23.629  0.00  0.00    +0.008 A 
ATOM     22  C   UNL     1      10.096   2.284  23.393  0.00  0.00    +0.011 A 
ENDBRANCH  17  18
ENDBRANCH  15  17
ENDBRANCH  12  13
BRANCH  12  23
ATOM     23  C   UNL     1       8.659  -2.085  26.109  0.00  0.00    +0.248 C 
ATOM     24  O   UNL     1       8.961  -0.983  26.566  0.00  0.00    -0.299 OA
ENDBRANCH  12  23
ENDBRANCH   1  12
BRANCH   4  25
ATOM     25  C   UNL     1       5.148  -6.113  25.456  0.00  0.00    +0.154 C 
BRANCH  25  26
ATOM     26  C   UNL     1       5.001  -6.216  26.969  0.00  0.00    +0.311 C 
ATOM     27  O   UNL     1       5.374  -7.153  27.662  0.00  0.00    -0.251 OA
BRANCH  26  28
ATOM     28  O   UNL     1       4.455  -5.057  27.443  0.00  0.00    -0.468 OA
ATOM     29  C   UNL     1       4.461  -4.932  28.867  0.00  0.00    +0.280 C 
ENDBRANCH  26  28
ENDBRANCH  25  26
ENDBRANCH   4  25
TORSDOF 10
ENDMDL
MODEL 8
REMARK VINA RESULT:      -5.9      2.455      3.616
REMARK  Name = 
REMARK  11 active torsions:
REMARK  status: ('A' for Active; 'I' for Inactive)
REMARK    1  A    between atoms: CA_2  and  N_3
REMARK    2  A    between atoms: CA_2  and  C_12
REMARK    3  A    between atoms: CA_2  and  C_14
REMARK    4  A    between atoms: C_4  and  C_6
REMARK    5  A    between atoms: C_6  and  C_7
REMARK    6  A    between atoms: CA_17  and  C_18
REMARK    7  A    between atoms: C_18  and  O_19
REMARK    8  A    between atoms: C_21  and  C_22
REMARK    9  A    between atoms: C_22  and  C_23
REMARK   10  A    between atoms: C_23  and  O_25
REMARK   11  A    between atoms: O_25  and  C_26
REMARK                            x       y       z     vdW  Elec       q    Type
REMARK                         _______ _______ _______ _____ _____    ______ ____
ROOT
ATOM      1  C   UNL     1       6.979  -2.720  22.617  0.00  0.00    +0.156 C 
ATOM      2  S   UNL     1       7.174  -4.479  22.203  0.00  0.00    -0.132 S 
ATOM      3  C   UNL     1       7.350  -5.148  23.873  0.00  0.00    +0.104 C 
ATOM      4  C   UNL     1       6.367  -4.605  24.874  0.00  0.00    -0.021 C 
ATOM      5  CA  UNL     1       5.692  -3.452  24.678  0.00  0.00    +0.114 C 
ATOM      6  N   UNL     1       5.896  -2.590  23.592  0.00  0.00    -0.325 N 
ATOM      7  H   UNL     1       4.998  -2.412  23.133  0.00  0.00    +0.147 HD
ENDROOT
BRANCH   5   8
ATOM      8  C   UNL     1       4.631  -3.001  25.664  0.00  0.00    +0.351 C 
ATOM      9  OXT UNL     1       4.822  -2.495  26.754  0.00  0.00    -0.244 OA
BRANCH   8  10
ATOM     10  O   UNL     1       3.407  -3.295  25.162  0.00  0.00    -0.476 OA
ATOM     11  H   UNL     1       3.072  -4.090  25.638  0.00  0.00    +0.295 HD
ENDBRANCH   8  10
ENDBRANCH   5   8
BRANCH   1  12
ATOM     12  CA  UNL     1       8.278  -1.996  23.074  0.00  0.00    +0.166 C 
BRANCH  12  13
ATOM     13  N   UNL     1       8.040  -0.670  23.683  0.00  0.00    -0.303 N 
ATOM     14  H   UNL     1       7.546   0.016  23.114  0.00  0.00    +0.149 HD
ATOM     15  C   UNL     1       8.617  -0.273  24.866  0.00  0.00    +0.218 C 
ATOM     16  O   UNL     1       9.334  -1.019  25.529  0.00  0.00    -0.275 OA
BRANCH  15  17
ATOM     17  C   UNL     1       8.241   1.124  25.332  0.00  0.00    +0.138 C 
BRANCH  17  18
ATOM     18  C   UNL     1       9.075   2.178  24.667  0.00  0.00    -0.001 A 
ATOM     19  S   UNL     1      10.563   1.758  23.921  0.00  0.00    -0.101 S 
ATOM     20  C   UNL     1      10.808   3.355  23.360  0.00  0.00    +0.045 A 
ATOM     21  C   UNL     1       9.787   4.197  23.736  0.00  0.00    +0.008 A 
ATOM     22  C   UNL     1       8.787   3.518  24.493  0.00  0.00    +0.011 A 
ENDBRANCH  17  18
ENDBRANCH  15  17
ENDBRANCH  12  13
BRANCH  12  23
ATOM     23  C   UNL     1       9.156  -1.716  21.861  0.00  0.00    +0.248 C 
ATOM     24  O   UNL     1      10.383  -1.814  21.880  0.00  0.00    -0.299 OA
ENDBRANCH  12  23
ENDBRANCH   1  12
BRANCH   4  25
ATOM     25  C   UNL     1       6.228  -5.484  26.110  0.00  0.00    +0.154 C 
BRANCH  25  26
ATOM     26  C   UNL     1       7.333  -5.267  27.136  0.00  0.00    +0.311 C 
ATOM     27  O   UNL     1       8.171  -4.376  27.109  0.00  0.00    -0.251 OA
BRANCH  26  28
ATOM     28  O   UNL     1       7.192  -6.182  28.141  0.00  0.00    -0.468 OA
ATOM     29  C   UNL     1       5.904  -6.197  28.760  0.00  0.00    +0.280 C 
ENDBRANCH  26  28
ENDBRANCH  25  26
ENDBRANCH   4  25
TORSDOF 10
ENDMDL
MODEL 9
REMARK VINA RESULT:      -5.8      2.910      4.449
REMARK  Name = 
REMARK  11 active torsions:
REMARK  status: ('A' for Active; 'I' for Inactive)
REMARK    1  A    between atoms: CA_2  and  N_3
REMARK    2  A    between atoms: CA_2  and  C_12
REMARK    3  A    between atoms: CA_2  and  C_14
REMARK    4  A    between atoms: C_4  and  C_6
REMARK    5  A    between atoms: C_6  and  C_7
REMARK    6  A    between atoms: CA_17  and  C_18
REMARK    7  A    between atoms: C_18  and  O_19
REMARK    8  A    between atoms: C_21  and  C_22
REMARK    9  A    between atoms: C_22  and  C_23
REMARK   10  A    between atoms: C_23  and  O_25
REMARK   11  A    between atoms: O_25  and  C_26
REMARK                            x       y       z     vdW  Elec       q    Type
REMARK                         _______ _______ _______ _____ _____    ______ ____
ROOT
ATOM      1  C   UNL     1       7.412  -0.756  26.444  0.00  0.00    +0.156 C 
ATOM      2  S   UNL     1       5.810  -1.590  26.239  0.00  0.00    -0.132 S 
ATOM      3  C   UNL     1       5.832  -1.811  24.445  0.00  0.00    +0.104 C 
ATOM      4  C   UNL     1       7.137  -2.311  23.890  0.00  0.00    -0.021 C 
ATOM      5  CA  UNL     1       8.299  -2.219  24.570  0.00  0.00    +0.114 C 
ATOM      6  N   UNL     1       8.445  -1.572  25.805  0.00  0.00    -0.325 N 
ATOM      7  H   UNL     1       8.881  -2.216  26.471  0.00  0.00    +0.147 HD
ENDROOT
BRANCH   5   8
ATOM      8  C   UNL     1       9.570  -2.836  24.016  0.00  0.00    +0.351 C 
ATOM      9  OXT UNL     1      10.385  -2.292  23.293  0.00  0.00    -0.244 OA
BRANCH   8  10
ATOM     10  O   UNL     1       9.644  -4.130  24.413  0.00  0.00    -0.476 OA
ATOM     11  H   UNL     1      10.024  -4.650  23.666  0.00  0.00    +0.295 HD
ENDBRANCH   8  10
ENDBRANCH   5   8
BRANCH   1  12
ATOM     12  CA  UNL     1       7.456   0.728  25.979  0.00  0.00    +0.166 C 
BRANCH  12  13
ATOM     13  N   UNL     1       8.764   1.143  25.427  0.00  0.00    -0.303 N 
ATOM     14  H   UNL     1       9.497   1.362  26.100  0.00  0.00    +0.149 HD
ATOM     15  C   UNL     1       8.959   1.432  24.098  0.00  0.00    +0.218 C 
ATOM     16  O   UNL     1       8.067   1.314  23.262  0.00  0.00    -0.275 OA
BRANCH  15  17
ATOM     17  C   UNL     1      10.378   1.833  23.726  0.00  0.00    +0.138 C 
BRANCH  17  18
ATOM     18  C   UNL     1      10.545   3.322  23.684  0.00  0.00    -0.001 A 
ATOM     19  S   UNL     1       9.269   4.349  24.196  0.00  0.00    -0.101 S 
ATOM     20  C   UNL     1      10.216   5.753  23.961  0.00  0.00    +0.045 A 
ATOM     21  C   UNL     1      11.476   5.455  23.494  0.00  0.00    +0.008 A 
ATOM     22  C   UNL     1      11.665   4.050  23.333  0.00  0.00    +0.011 A 
ENDBRANCH  17  18
ENDBRANCH  15  17
ENDBRANCH  12  13
BRANCH  12  23
ATOM     23  C   UNL     1       7.229   1.641  27.176  0.00  0.00    +0.248 C 
ATOM     24  O   UNL     1       7.074   2.858  27.076  0.00  0.00    -0.299 OA
ENDBRANCH  12  23
ENDBRANCH   1  12
BRANCH   4  25
ATOM     25  C   UNL     1       7.000  -2.914  22.498  0.00  0.00    +0.154 C 
BRANCH  25  26
ATOM     26  C   UNL     1       6.216  -4.220  22.476  0.00  0.00    +0.311 C 
ATOM     27  O   UNL     1       5.354  -4.524  21.663  0.00  0.00    -0.251 OA
BRANCH  26  28
ATOM     28  O   UNL     1       6.683  -5.035  23.468  0.00  0.00    -0.468 OA
ATOM     29  C   UNL     1       5.672  -5.591  24.311  0.00  0.00    +0.280 C 
ENDBRANCH  26  28
ENDBRANCH  25  26
ENDBRANCH   4  25
TORSDOF 10
ENDMDL
