MODEL 1
REMARK VINA RESULT:      -6.7      0.000      0.000
REMARK  Name = 
REMARK  12 active torsions:
REMARK  status: ('A' for Active; 'I' for Inactive)
REMARK    1  A    between atoms: C_2  and  C_3
REMARK    2  A    between atoms: C_2  and  N_13
REMARK    3  A    between atoms: C_2  and  C_28
REMARK    4  A    between atoms: C_3  and  C_4
REMARK    5  A    between atoms: C_8  and  C_10
REMARK    6  A    between atoms: C_14  and  C_16
REMARK    7  A    between atoms: C_16  and  N_17
REMARK    8  A    between atoms: N_17  and  S_18
REMARK    9  A    between atoms: S_18  and  C_21
REMARK   10  A    between atoms: C_24  and  C_25
REMARK   11  A    between atoms: C_28  and  O_30
REMARK   12  A    between atoms: O_30  and  C_31
REMARK                            x       y       z     vdW  Elec       q    Type
REMARK                         _______ _______ _______ _____ _____    ______ ____
ROOT
ATOM      1  C   UNL     1       8.946   0.061  24.685  0.00  0.00    +0.186 C 
ENDROOT
BRANCH   1   2
ATOM      2  N   UNL     1       8.957  -1.043  23.713  0.00  0.00    -0.301 N 
ATOM      3  H   UNL     1       9.828  -1.556  23.607  0.00  0.00    +0.150 HD
ATOM      4  C   UNL     1       7.857  -1.385  22.958  0.00  0.00    +0.229 C 
ATOM      5  O   UNL     1       6.779  -0.798  23.051  0.00  0.00    -0.274 OA
BRANCH   4   6
ATOM      6  C   UNL     1       8.112  -2.532  21.984  0.00  0.00    +0.201 C 
BRANCH   6   7
ATOM      7  N   UNL     1       6.960  -3.430  21.910  0.00  0.00    -0.181 NA
ATOM      8  H   UNL     1       6.354  -3.365  21.091  0.00  0.00    +0.149 HD
BRANCH   7   9
ATOM      9  S   UNL     1       7.071  -4.939  22.614  0.00  0.00    +0.059 S 
ATOM     10  O   UNL     1       8.249  -4.946  23.455  0.00  0.00    -0.153 OA
ATOM     11  O   UNL     1       6.876  -5.913  21.561  0.00  0.00    -0.153 OA
BRANCH   9  12
ATOM     12  C   UNL     1       5.631  -4.967  23.649  0.00  0.00    +0.105 A 
ATOM     13  C   UNL     1       4.760  -3.876  23.669  0.00  0.00    +0.029 A 
ATOM     14  C   UNL     1       3.586  -3.948  24.420  0.00  0.00    +0.005 A 
ATOM     15  C   UNL     1       3.280  -5.105  25.153  0.00  0.00    -0.050 A 
ATOM     16  C   UNL     1       1.978  -5.195  25.893  0.00  0.00    +0.044 C 
ATOM     17  C   UNL     1       4.192  -6.169  25.170  0.00  0.00    +0.005 A 
ATOM     18  C   UNL     1       5.369  -6.103  24.421  0.00  0.00    +0.029 A 
ENDBRANCH   9  12
ENDBRANCH   7   9
ENDBRANCH   6   7
ENDBRANCH   4   6
ENDBRANCH   1   2
BRANCH   1  19
ATOM     19  C   UNL     1      10.170   0.917  24.361  0.00  0.00    +0.328 C 
ATOM     20  O   UNL     1      11.314   0.612  24.683  0.00  0.00    -0.249 OA
BRANCH  19  21
ATOM     21  O   UNL     1       9.826   1.986  23.592  0.00  0.00    -0.467 OA
ATOM     22  C   UNL     1      10.002   1.788  22.188  0.00  0.00    +0.280 C 
ENDBRANCH  19  21
ENDBRANCH   1  19
BRANCH   1  23
ATOM     23  C   UNL     1       9.016  -0.487  26.120  0.00  0.00    +0.069 C 
BRANCH  23  24
ATOM     24  C   UNL     1       7.978  -1.539  26.432  0.00  0.00    -0.044 A 
ATOM     25  C   UNL     1       8.336  -2.896  26.496  0.00  0.00    +0.019 A 
ATOM     26  C   UNL     1       7.387  -3.868  26.839  0.00  0.00    +0.065 A 
ATOM     27  C   UNL     1       6.063  -3.491  27.076  0.00  0.00    +0.016 A 
ATOM     28  C   UNL     1       5.696  -2.147  26.998  0.00  0.00    +0.001 A 
ATOM     29  C   UNL     1       6.650  -1.175  26.690  0.00  0.00    +0.004 A 
BRANCH  26  30
ATOM     30  C   UNL     1       7.807  -5.292  26.978  0.00  0.00    +0.308 C 
ATOM     31  N   UNL     1       7.314  -6.085  27.875  0.00  0.00    -0.099 NA
ATOM     32  H   UNL     1       6.653  -5.597  28.485  0.00  0.00    +0.363 HD
ATOM     33  N   UNL     1       8.756  -5.822  26.156  0.00  0.00    -0.247 N 
ATOM     34  H   UNL     1       8.800  -6.831  26.267  0.00  0.00    +0.288 HD
ATOM     35  H   UNL     1       8.708  -5.542  25.184  0.00  0.00    +0.288 HD
ENDBRANCH  26  30
ENDBRANCH  23  24
ENDBRANCH   1  23
TORSDOF 10
ENDMDL
MODEL 2
REMARK VINA RESULT:      -6.6      3.803      6.487
REMARK  Name = 
REMARK  12 active torsions:
REMARK  status: ('A' for Active; 'I' for Inactive)
REMARK    1  A    between atoms: C_2  and  C_3
REMARK    2  A    between atoms: C_2  and  N_13
REMARK    3  A    between atoms: C_2  and  C_28
REMARK    4  A    between atoms: C_3  and  C_4
REMARK    5  A    between atoms: C_8  and  C_10
REMARK    6  A    between atoms: C_14  and  C_16
REMARK    7  A    between atoms: C_16  and  N_17
REMARK    8  A    between atoms: N_17  and  S_18
REMARK    9  A    between atoms: S_18  and  C_21
REMARK   10  A    between atoms: C_24  and  C_25
REMARK   11  A    between atoms: C_28  and  O_30
REMARK   12  A    between atoms: O_30  and  C_31
REMARK                            x       y       z     vdW  Elec       q    Type
REMARK                         _______ _______ _______ _____ _____    ______ ____
ROOT
ATOM      1  C   UNL     1       6.000   0.524  24.892  0.00  0.00    +0.186 C 
ENDROOT
BRANCH   1   2
ATOM      2  N   UNL     1       6.316   1.938  24.637  0.00  0.00    -0.301 N 
ATOM      3  H   UNL     1       6.516   2.519  25.447  0.00  0.00    +0.150 HD
ATOM      4  C   UNL     1       6.338   2.482  23.372  0.00  0.00    +0.229 C 
ATOM      5  O   UNL     1       6.105   1.820  22.360  0.00  0.00    -0.274 OA
BRANCH   4   6
ATOM      6  C   UNL     1       6.646   3.977  23.351  0.00  0.00    +0.201 C 
BRANCH   6   7
ATOM      7  N   UNL     1       7.999   4.232  22.858  0.00  0.00    -0.181 NA
ATOM      8  H   UNL     1       8.124   4.964  22.157  0.00  0.00    +0.149 HD
BRANCH   7   9
ATOM      9  S   UNL     1       9.289   3.984  23.888  0.00  0.00    +0.059 S 
ATOM     10  O   UNL     1       8.779   4.001  25.242  0.00  0.00    -0.153 OA
ATOM     11  O   UNL     1      10.350   4.871  23.458  0.00  0.00    -0.153 OA
BRANCH   9  12
ATOM     12  C   UNL     1       9.771   2.327  23.479  0.00  0.00    +0.105 A 
ATOM     13  C   UNL     1      10.328   1.498  24.455  0.00  0.00    +0.029 A 
ATOM     14  C   UNL     1      10.621   0.170  24.141  0.00  0.00    +0.005 A 
ATOM     15  C   UNL     1      10.361  -0.331  22.857  0.00  0.00    -0.050 A 
ATOM     16  C   UNL     1      10.610  -1.782  22.560  0.00  0.00    +0.044 C 
ATOM     17  C   UNL     1       9.856   0.528  21.872  0.00  0.00    +0.005 A 
ATOM     18  C   UNL     1       9.562   1.858  22.179  0.00  0.00    +0.029 A 
ENDBRANCH   9  12
ENDBRANCH   7   9
ENDBRANCH   6   7
ENDBRANCH   4   6
ENDBRANCH   1   2
BRANCH   1  19
ATOM     19  C   UNL     1       4.911   0.525  25.966  0.00  0.00    +0.328 C 
ATOM     20  O   UNL     1       4.152  -0.420  26.161  0.00  0.00    -0.249 OA
BRANCH  19  21
ATOM     21  O   UNL     1       4.975   1.654  26.723  0.00  0.00    -0.467 OA
ATOM     22  C   UNL     1       5.222   1.425  28.112  0.00  0.00    +0.280 C 
ENDBRANCH  19  21
ENDBRANCH   1  19
BRANCH   1  23
ATOM     23  C   UNL     1       7.252  -0.227  25.372  0.00  0.00    +0.069 C 
BRANCH  23  24
ATOM     24  C   UNL     1       7.459  -1.570  24.712  0.00  0.00    -0.044 A 
ATOM     25  C   UNL     1       8.143  -2.597  25.384  0.00  0.00    +0.019 A 
ATOM     26  C   UNL     1       8.287  -3.860  24.795  0.00  0.00    +0.065 A 
ATOM     27  C   UNL     1       7.787  -4.088  23.510  0.00  0.00    +0.016 A 
ATOM     28  C   UNL     1       7.121  -3.068  22.830  0.00  0.00    +0.001 A 
ATOM     29  C   UNL     1       6.947  -1.819  23.432  0.00  0.00    +0.004 A 
BRANCH  26  30
ATOM     30  C   UNL     1       8.948  -4.958  25.558  0.00  0.00    +0.308 C 
ATOM     31  N   UNL     1      10.156  -5.354  25.313  0.00  0.00    -0.099 NA
ATOM     32  H   UNL     1      10.560  -4.856  24.516  0.00  0.00    +0.363 HD
ATOM     33  N   UNL     1       8.287  -5.608  26.556  0.00  0.00    -0.247 N 
ATOM     34  H   UNL     1       8.926  -6.199  27.081  0.00  0.00    +0.288 HD
ATOM     35  H   UNL     1       7.713  -5.031  27.158  0.00  0.00    +0.288 HD
ENDBRANCH  26  30
ENDBRANCH  23  24
ENDBRANCH   1  23
TORSDOF 10
ENDMDL
MODEL 3
REMARK VINA RESULT:      -6.6      2.420      5.520
REMARK  Name = 
REMARK  12 active torsions:
REMARK  status: ('A' for Active; 'I' for Inactive)
REMARK    1  A    between atoms: C_2  and  C_3
REMARK    2  A    between atoms: C_2  and  N_13
REMARK    3  A    between atoms: C_2  and  C_28
REMARK    4  A    between atoms: C_3  and  C_4
REMARK    5  A    between atoms: C_8  and  C_10
REMARK    6  A    between atoms: C_14  and  C_16
REMARK    7  A    between atoms: C_16  and  N_17
REMARK    8  A    between atoms: N_17  and  S_18
REMARK    9  A    between atoms: S_18  and  C_21
REMARK   10  A    between atoms: C_24  and  C_25
REMARK   11  A    between atoms: C_28  and  O_30
REMARK   12  A    between atoms: O_30  and  C_31
REMARK                            x       y       z     vdW  Elec       q    Type
REMARK                         _______ _______ _______ _____ _____    ______ ____
ROOT
ATOM      1  C   UNL     1       7.269  -3.504  22.655  0.00  0.00    +0.186 C 
ENDROOT
BRANCH   1   2
ATOM      2  N   UNL     1       7.783  -2.249  22.084  0.00  0.00    -0.301 N 
ATOM      3  H   UNL     1       7.120  -1.667  21.579  0.00  0.00    +0.150 HD
ATOM      4  C   UNL     1       9.098  -1.858  22.203  0.00  0.00    +0.229 C 
ATOM      5  O   UNL     1       9.938  -2.525  22.806  0.00  0.00    -0.274 OA
BRANCH   4   6
ATOM      6  C   UNL     1       9.415  -0.543  21.494  0.00  0.00    +0.201 C 
BRANCH   6   7
ATOM      7  N   UNL     1      10.174   0.357  22.362  0.00  0.00    -0.181 NA
ATOM      8  H   UNL     1      11.175   0.458  22.188  0.00  0.00    +0.149 HD
BRANCH   7   9
ATOM      9  S   UNL     1       9.407   1.695  22.998  0.00  0.00    +0.059 S 
ATOM     10  O   UNL     1       8.575   2.261  21.957  0.00  0.00    -0.153 OA
ATOM     11  O   UNL     1      10.417   2.477  23.680  0.00  0.00    -0.153 OA
BRANCH   9  12
ATOM     12  C   UNL     1       8.362   0.968  24.232  0.00  0.00    +0.105 A 
ATOM     13  C   UNL     1       6.974   1.000  24.084  0.00  0.00    +0.029 A 
ATOM     14  C   UNL     1       6.169   0.347  25.018  0.00  0.00    +0.005 A 
ATOM     15  C   UNL     1       6.744  -0.336  26.099  0.00  0.00    -0.050 A 
ATOM     16  C   UNL     1       5.868  -1.097  27.050  0.00  0.00    +0.044 C 
ATOM     17  C   UNL     1       8.136  -0.311  26.267  0.00  0.00    +0.005 A 
ATOM     18  C   UNL     1       8.947   0.341  25.336  0.00  0.00    +0.029 A 
ENDBRANCH   9  12
ENDBRANCH   7   9
ENDBRANCH   6   7
ENDBRANCH   4   6
ENDBRANCH   1   2
BRANCH   1  19
ATOM     19  C   UNL     1       6.474  -4.179  21.537  0.00  0.00    +0.328 C 
ATOM     20  O   UNL     1       5.552  -3.634  20.938  0.00  0.00    -0.249 OA
BRANCH  19  21
ATOM     21  O   UNL     1       6.994  -5.400  21.240  0.00  0.00    -0.467 OA
ATOM     22  C   UNL     1       6.562  -6.456  22.101  0.00  0.00    +0.280 C 
ENDBRANCH  19  21
ENDBRANCH   1  19
BRANCH   1  23
ATOM     23  C   UNL     1       6.377  -3.213  23.873  0.00  0.00    +0.069 C 
BRANCH  23  24
ATOM     24  C   UNL     1       6.706  -4.040  25.093  0.00  0.00    -0.044 A 
ATOM     25  C   UNL     1       5.771  -4.952  25.610  0.00  0.00    +0.019 A 
ATOM     26  C   UNL     1       6.095  -5.760  26.708  0.00  0.00    +0.065 A 
ATOM     27  C   UNL     1       7.343  -5.627  27.323  0.00  0.00    +0.016 A 
ATOM     28  C   UNL     1       8.272  -4.711  26.825  0.00  0.00    +0.001 A 
ATOM     29  C   UNL     1       7.960  -3.931  25.709  0.00  0.00    +0.004 A 
BRANCH  26  30
ATOM     30  C   UNL     1       5.116  -6.776  27.190  0.00  0.00    +0.308 C 
ATOM     31  N   UNL     1       4.051  -7.093  26.527  0.00  0.00    -0.099 NA
ATOM     32  H   UNL     1       3.956  -6.532  25.677  0.00  0.00    +0.363 HD
ATOM     33  N   UNL     1       5.302  -7.412  28.380  0.00  0.00    -0.247 N 
ATOM     34  H   UNL     1       4.649  -8.184  28.477  0.00  0.00    +0.288 HD
ATOM     35  H   UNL     1       6.254  -7.683  28.595  0.00  0.00    +0.288 HD
ENDBRANCH  26  30
ENDBRANCH  23  24
ENDBRANCH   1  23
TORSDOF 10
ENDMDL
MODEL 4
REMARK VINA RESULT:      -6.5      2.703      4.212
REMARK  Name = 
REMARK  12 active torsions:
REMARK  status: ('A' for Active; 'I' for Inactive)
REMARK    1  A    between atoms: C_2  and  C_3
REMARK    2  A    between atoms: C_2  and  N_13
REMARK    3  A    between atoms: C_2  and  C_28
REMARK    4  A    between atoms: C_3  and  C_4
REMARK    5  A    between atoms: C_8  and  C_10
REMARK    6  A    between atoms: C_14  and  C_16
REMARK    7  A    between atoms: C_16  and  N_17
REMARK    8  A    between atoms: N_17  and  S_18
REMARK    9  A    between atoms: S_18  and  C_21
REMARK   10  A    between atoms: C_24  and  C_25
REMARK   11  A    between atoms: C_28  and  O_30
REMARK   12  A    between atoms: O_30  and  C_31
REMARK                            x       y       z     vdW  Elec       q    Type
REMARK                         _______ _______ _______ _____ _____    ______ ____
ROOT
ATOM      1  C   UNL     1       8.397  -0.563  23.666  0.00  0.00    +0.186 C 
ENDROOT
BRANCH   1   2
ATOM      2  N   UNL     1       7.643   0.079  24.754  0.00  0.00    -0.301 N 
ATOM      3  H   UNL     1       6.835   0.636  24.489  0.00  0.00    +0.150 HD
ATOM      4  C   UNL     1       7.997  -0.041  26.079  0.00  0.00    +0.229 C 
ATOM      5  O   UNL     1       8.965  -0.705  26.451  0.00  0.00    -0.274 OA
BRANCH   4   6
ATOM      6  C   UNL     1       7.098   0.747  27.029  0.00  0.00    +0.201 C 
BRANCH   6   7
ATOM      7  N   UNL     1       6.102  -0.120  27.657  0.00  0.00    -0.181 NA
ATOM      8  H   UNL     1       6.042  -0.120  28.677  0.00  0.00    +0.149 HD
BRANCH   7   9
ATOM      9  S   UNL     1       4.677  -0.427  26.845  0.00  0.00    +0.059 S 
ATOM     10  O   UNL     1       4.693   0.349  25.623  0.00  0.00    -0.153 OA
ATOM     11  O   UNL     1       3.606  -0.312  27.811  0.00  0.00    -0.153 OA
BRANCH   9  12
ATOM     12  C   UNL     1       4.852  -2.143  26.434  0.00  0.00    +0.105 A 
ATOM     13  C   UNL     1       5.226  -3.065  27.414  0.00  0.00    +0.029 A 
ATOM     14  C   UNL     1       5.274  -4.423  27.097  0.00  0.00    +0.005 A 
ATOM     15  C   UNL     1       4.953  -4.863  25.805  0.00  0.00    -0.050 A 
ATOM     16  C   UNL     1       4.935  -6.333  25.502  0.00  0.00    +0.044 C 
ATOM     17  C   UNL     1       4.636  -3.921  24.816  0.00  0.00    +0.005 A 
ATOM     18  C   UNL     1       4.586  -2.561  25.127  0.00  0.00    +0.029 A 
ENDBRANCH   9  12
ENDBRANCH   7   9
ENDBRANCH   6   7
ENDBRANCH   4   6
ENDBRANCH   1   2
BRANCH   1  19
ATOM     19  C   UNL     1       9.058   0.573  22.886  0.00  0.00    +0.328 C 
ATOM     20  O   UNL     1       8.492   1.204  21.998  0.00  0.00    -0.249 OA
BRANCH  19  21
ATOM     21  O   UNL     1      10.297   0.845  23.379  0.00  0.00    -0.467 OA
ATOM     22  C   UNL     1      10.514   2.218  23.715  0.00  0.00    +0.280 C 
ENDBRANCH  19  21
ENDBRANCH   1  19
BRANCH   1  23
ATOM     23  C   UNL     1       7.452  -1.377  22.767  0.00  0.00    +0.069 C 
BRANCH  23  24
ATOM     24  C   UNL     1       7.579  -2.873  22.930  0.00  0.00    -0.044 A 
ATOM     25  C   UNL     1       8.314  -3.414  23.998  0.00  0.00    +0.019 A 
ATOM     26  C   UNL     1       8.387  -4.801  24.183  0.00  0.00    +0.065 A 
ATOM     27  C   UNL     1       7.760  -5.656  23.272  0.00  0.00    +0.016 A 
ATOM     28  C   UNL     1       7.041  -5.126  22.199  0.00  0.00    +0.001 A 
ATOM     29  C   UNL     1       6.941  -3.743  22.036  0.00  0.00    +0.004 A 
BRANCH  26  30
ATOM     30  C   UNL     1       9.107  -5.351  25.367  0.00  0.00    +0.308 C 
ATOM     31  N   UNL     1      10.396  -5.470  25.411  0.00  0.00    -0.099 NA
ATOM     32  H   UNL     1      10.829  -5.187  24.529  0.00  0.00    +0.363 HD
ATOM     33  N   UNL     1       8.421  -5.770  26.467  0.00  0.00    -0.247 N 
ATOM     34  H   UNL     1       9.059  -5.951  27.237  0.00  0.00    +0.288 HD
ATOM     35  H   UNL     1       7.634  -5.197  26.744  0.00  0.00    +0.288 HD
ENDBRANCH  26  30
ENDBRANCH  23  24
ENDBRANCH   1  23
TORSDOF 10
ENDMDL
MODEL 5
REMARK VINA RESULT:      -6.4      2.501      4.968
REMARK  Name = 
REMARK  12 active torsions:
REMARK  status: ('A' for Active; 'I' for Inactive)
REMARK    1  A    between atoms: C_2  and  C_3
REMARK    2  A    between atoms: C_2  and  N_13
REMARK    3  A    between atoms: C_2  and  C_28
REMARK    4  A    between atoms: C_3  and  C_4
REMARK    5  A    between atoms: C_8  and  C_10
REMARK    6  A    between atoms: C_14  and  C_16
REMARK    7  A    between atoms: C_16  and  N_17
REMARK    8  A    between atoms: N_17  and  S_18
REMARK    9  A    between atoms: S_18  and  C_21
REMARK   10  A    between atoms: C_24  and  C_25
REMARK   11  A    between atoms: C_28  and  O_30
REMARK   12  A    between atoms: O_30  and  C_31
REMARK                            x       y       z     vdW  Elec       q    Type
REMARK                         _______ _______ _______ _____ _____    ______ ____
ROOT
ATOM      1  C   UNL     1       7.843  -2.946  23.034  0.00  0.00    +0.186 C 
ENDROOT
BRANCH   1   2
ATOM      2  N   UNL     1       7.247  -4.260  22.745  0.00  0.00    -0.301 N 
ATOM      3  H   UNL     1       7.611  -5.055  23.262  0.00  0.00    +0.150 HD
ATOM      4  C   UNL     1       6.248  -4.437  21.815  0.00  0.00    +0.229 C 
ATOM      5  O   UNL     1       5.772  -3.507  21.165  0.00  0.00    -0.274 OA
BRANCH   4   6
ATOM      6  C   UNL     1       5.814  -5.891  21.649  0.00  0.00    +0.201 C 
BRANCH   6   7
ATOM      7  N   UNL     1       5.626  -6.539  22.947  0.00  0.00    -0.181 NA
ATOM      8  H   UNL     1       6.435  -6.619  23.564  0.00  0.00    +0.149 HD
BRANCH   7   9
ATOM      9  S   UNL     1       4.144  -6.408  23.703  0.00  0.00    +0.059 S 
ATOM     10  O   UNL     1       3.944  -7.607  24.489  0.00  0.00    -0.153 OA
ATOM     11  O   UNL     1       3.192  -5.984  22.698  0.00  0.00    -0.153 OA
BRANCH   9  12
ATOM     12  C   UNL     1       4.413  -5.043  24.802  0.00  0.00    +0.105 A 
ATOM     13  C   UNL     1       3.599  -3.911  24.728  0.00  0.00    +0.029 A 
ATOM     14  C   UNL     1       3.767  -2.882  25.656  0.00  0.00    +0.005 A 
ATOM     15  C   UNL     1       4.746  -2.980  26.656  0.00  0.00    -0.050 A 
ATOM     16  C   UNL     1       4.861  -1.900  27.693  0.00  0.00    +0.044 C 
ATOM     17  C   UNL     1       5.594  -4.095  26.682  0.00  0.00    +0.005 A 
ATOM     18  C   UNL     1       5.432  -5.127  25.756  0.00  0.00    +0.029 A 
ENDBRANCH   9  12
ENDBRANCH   7   9
ENDBRANCH   6   7
ENDBRANCH   4   6
ENDBRANCH   1   2
BRANCH   1  19
ATOM     19  C   UNL     1       9.067  -3.224  23.908  0.00  0.00    +0.328 C 
ATOM     20  O   UNL     1      10.193  -2.812  23.647  0.00  0.00    -0.249 OA
BRANCH  19  21
ATOM     21  O   UNL     1       8.714  -3.887  25.042  0.00  0.00    -0.467 OA
ATOM     22  C   UNL     1       9.595  -4.952  25.406  0.00  0.00    +0.280 C 
ENDBRANCH  19  21
ENDBRANCH   1  19
BRANCH   1  23
ATOM     23  C   UNL     1       6.832  -2.047  23.765  0.00  0.00    +0.069 C 
BRANCH  23  24
ATOM     24  C   UNL     1       7.370  -0.686  24.137  0.00  0.00    -0.044 A 
ATOM     25  C   UNL     1       7.873   0.177  23.149  0.00  0.00    +0.019 A 
ATOM     26  C   UNL     1       8.321   1.461  23.486  0.00  0.00    +0.065 A 
ATOM     27  C   UNL     1       8.311   1.872  24.821  0.00  0.00    +0.016 A 
ATOM     28  C   UNL     1       7.828   1.013  25.811  0.00  0.00    +0.001 A 
ATOM     29  C   UNL     1       7.349  -0.253  25.470  0.00  0.00    +0.004 A 
BRANCH  26  30
ATOM     30  C   UNL     1       8.777   2.388  22.410  0.00  0.00    +0.308 C 
ATOM     31  N   UNL     1       8.252   3.556  22.222  0.00  0.00    -0.099 NA
ATOM     32  H   UNL     1       7.475   3.727  22.865  0.00  0.00    +0.363 HD
ATOM     33  N   UNL     1       9.776   2.028  21.558  0.00  0.00    -0.247 N 
ATOM     34  H   UNL     1      10.079   2.825  21.005  0.00  0.00    +0.288 HD
ATOM     35  H   UNL     1      10.554   1.528  21.970  0.00  0.00    +0.288 HD
ENDBRANCH  26  30
ENDBRANCH  23  24
ENDBRANCH   1  23
TORSDOF 10
ENDMDL
MODEL 6
REMARK VINA RESULT:      -6.3      4.039      6.452
REMARK  Name = 
REMARK  12 active torsions:
REMARK  status: ('A' for Active; 'I' for Inactive)
REMARK    1  A    between atoms: C_2  and  C_3
REMARK    2  A    between atoms: C_2  and  N_13
REMARK    3  A    between atoms: C_2  and  C_28
REMARK    4  A    between atoms: C_3  and  C_4
REMARK    5  A    between atoms: C_8  and  C_10
REMARK    6  A    between atoms: C_14  and  C_16
REMARK    7  A    between atoms: C_16  and  N_17
REMARK    8  A    between atoms: N_17  and  S_18
REMARK    9  A    between atoms: S_18  and  C_21
REMARK   10  A    between atoms: C_24  and  C_25
REMARK   11  A    between atoms: C_28  and  O_30
REMARK   12  A    between atoms: O_30  and  C_31
REMARK                            x       y       z     vdW  Elec       q    Type
REMARK                         _______ _______ _______ _____ _____    ______ ____
ROOT
ATOM      1  C   UNL     1       7.074   0.760  26.946  0.00  0.00    +0.186 C 
ENDROOT
BRANCH   1   2
ATOM      2  N   UNL     1       7.450   2.114  26.512  0.00  0.00    -0.301 N 
ATOM      3  H   UNL     1       8.372   2.445  26.781  0.00  0.00    +0.150 HD
ATOM      4  C   UNL     1       6.610   2.924  25.780  0.00  0.00    +0.229 C 
ATOM      5  O   UNL     1       5.485   2.569  25.427  0.00  0.00    -0.274 OA
BRANCH   4   6
ATOM      6  C   UNL     1       7.193   4.303  25.481  0.00  0.00    +0.201 C 
BRANCH   6   7
ATOM      7  N   UNL     1       8.636   4.230  25.257  0.00  0.00    -0.181 NA
ATOM      8  H   UNL     1       9.200   3.715  25.934  0.00  0.00    +0.149 HD
BRANCH   7   9
ATOM      9  S   UNL     1       9.207   4.238  23.689  0.00  0.00    +0.059 S 
ATOM     10  O   UNL     1      10.486   4.915  23.690  0.00  0.00    -0.153 OA
ATOM     11  O   UNL     1       8.114   4.667  22.842  0.00  0.00    -0.153 OA
BRANCH   9  12
ATOM     12  C   UNL     1       9.476   2.511  23.389  0.00  0.00    +0.105 A 
ATOM     13  C   UNL     1       8.910   1.896  22.271  0.00  0.00    +0.029 A 
ATOM     14  C   UNL     1       9.202   0.559  22.001  0.00  0.00    +0.005 A 
ATOM     15  C   UNL     1      10.056  -0.167  22.844  0.00  0.00    -0.050 A 
ATOM     16  C   UNL     1      10.421  -1.581  22.496  0.00  0.00    +0.044 C 
ATOM     17  C   UNL     1      10.570   0.446  23.995  0.00  0.00    +0.005 A 
ATOM     18  C   UNL     1      10.282   1.784  24.271  0.00  0.00    +0.029 A 
ENDBRANCH   9  12
ENDBRANCH   7   9
ENDBRANCH   6   7
ENDBRANCH   4   6
ENDBRANCH   1   2
BRANCH   1  19
ATOM     19  C   UNL     1       6.607   0.898  28.395  0.00  0.00    +0.328 C 
ATOM     20  O   UNL     1       7.352   1.208  29.320  0.00  0.00    -0.249 OA
BRANCH  19  21
ATOM     21  O   UNL     1       5.259   0.736  28.490  0.00  0.00    -0.467 OA
ATOM     22  C   UNL     1       4.708  -0.206  27.567  0.00  0.00    +0.280 C 
ENDBRANCH  19  21
ENDBRANCH   1  19
BRANCH   1  23
ATOM     23  C   UNL     1       8.277  -0.192  26.839  0.00  0.00    +0.069 C 
BRANCH  23  24
ATOM     24  C   UNL     1       8.040  -1.392  25.954  0.00  0.00    -0.044 A 
ATOM     25  C   UNL     1       8.546  -2.652  26.311  0.00  0.00    +0.019 A 
ATOM     26  C   UNL     1       8.280  -3.778  25.520  0.00  0.00    +0.065 A 
ATOM     27  C   UNL     1       7.544  -3.639  24.341  0.00  0.00    +0.016 A 
ATOM     28  C   UNL     1       7.051  -2.386  23.970  0.00  0.00    +0.001 A 
ATOM     29  C   UNL     1       7.287  -1.271  24.778  0.00  0.00    +0.004 A 
BRANCH  26  30
ATOM     30  C   UNL     1       8.762  -5.119  25.960  0.00  0.00    +0.308 C 
ATOM     31  N   UNL     1       8.122  -5.847  26.818  0.00  0.00    -0.099 NA
ATOM     32  H   UNL     1       7.293  -5.365  27.175  0.00  0.00    +0.363 HD
ATOM     33  N   UNL     1       9.925  -5.635  25.474  0.00  0.00    -0.247 N 
ATOM     34  H   UNL     1      10.018  -6.612  25.737  0.00  0.00    +0.288 HD
ATOM     35  H   UNL     1      10.101  -5.483  24.489  0.00  0.00    +0.288 HD
ENDBRANCH  26  30
ENDBRANCH  23  24
ENDBRANCH   1  23
TORSDOF 10
ENDMDL
MODEL 7
REMARK VINA RESULT:      -6.3      2.941      5.685
REMARK  Name = 
REMARK  12 active torsions:
REMARK  status: ('A' for Active; 'I' for Inactive)
REMARK    1  A    between atoms: C_2  and  C_3
REMARK    2  A    between atoms: C_2  and  N_13
REMARK    3  A    between atoms: C_2  and  C_28
REMARK    4  A    between atoms: C_3  and  C_4
REMARK    5  A    between atoms: C_8  and  C_10
REMARK    6  A    between atoms: C_14  and  C_16
REMARK    7  A    between atoms: C_16  and  N_17
REMARK    8  A    between atoms: N_17  and  S_18
REMARK    9  A    between atoms: S_18  and  C_21
REMARK   10  A    between atoms: C_24  and  C_25
REMARK   11  A    between atoms: C_28  and  O_30
REMARK   12  A    between atoms: O_30  and  C_31
REMARK                            x       y       z     vdW  Elec       q    Type
REMARK                         _______ _______ _______ _____ _____    ______ ____
ROOT
ATOM      1  C   UNL     1       9.243  -1.141  24.316  0.00  0.00    +0.186 C 
ENDROOT
BRANCH   1   2
ATOM      2  N   UNL     1       8.612  -1.753  25.495  0.00  0.00    -0.301 N 
ATOM      3  H   UNL     1       9.232  -2.137  26.203  0.00  0.00    +0.150 HD
ATOM      4  C   UNL     1       7.246  -1.825  25.658  0.00  0.00    +0.229 C 
ATOM      5  O   UNL     1       6.454  -1.372  24.832  0.00  0.00    -0.274 OA
BRANCH   4   6
ATOM      6  C   UNL     1       6.817  -2.542  26.935  0.00  0.00    +0.201 C 
BRANCH   6   7
ATOM      7  N   UNL     1       6.091  -3.775  26.632  0.00  0.00    -0.181 NA
ATOM      8  H   UNL     1       5.214  -3.700  26.115  0.00  0.00    +0.149 HD
BRANCH   7   9
ATOM      9  S   UNL     1       6.960  -5.180  26.392  0.00  0.00    +0.059 S 
ATOM     10  O   UNL     1       6.313  -6.231  27.148  0.00  0.00    -0.153 OA
ATOM     11  O   UNL     1       8.357  -4.850  26.579  0.00  0.00    -0.153 OA
BRANCH   9  12
ATOM     12  C   UNL     1       6.702  -5.478  24.663  0.00  0.00    +0.105 A 
ATOM     13  C   UNL     1       5.428  -5.798  24.188  0.00  0.00    +0.029 A 
ATOM     14  C   UNL     1       5.224  -5.943  22.816  0.00  0.00    +0.005 A 
ATOM     15  C   UNL     1       6.287  -5.774  21.916  0.00  0.00    -0.050 A 
ATOM     16  C   UNL     1       6.034  -5.858  20.439  0.00  0.00    +0.044 C 
ATOM     17  C   UNL     1       7.572  -5.512  22.412  0.00  0.00    +0.005 A 
ATOM     18  C   UNL     1       7.783  -5.365  23.784  0.00  0.00    +0.029 A 
ENDBRANCH   9  12
ENDBRANCH   7   9
ENDBRANCH   6   7
ENDBRANCH   4   6
ENDBRANCH   1   2
BRANCH   1  19
ATOM     19  C   UNL     1      10.020  -2.263  23.626  0.00  0.00    +0.328 C 
ATOM     20  O   UNL     1      10.181  -3.376  24.117  0.00  0.00    -0.249 OA
BRANCH  19  21
ATOM     21  O   UNL     1      10.405  -1.890  22.375  0.00  0.00    -0.467 OA
ATOM     22  C   UNL     1       9.379  -1.269  21.598  0.00  0.00    +0.280 C 
ENDBRANCH  19  21
ENDBRANCH   1  19
BRANCH   1  23
ATOM     23  C   UNL     1      10.179   0.002  24.741  0.00  0.00    +0.069 C 
BRANCH  23  24
ATOM     24  C   UNL     1       9.598   1.383  24.548  0.00  0.00    -0.044 A 
ATOM     25  C   UNL     1      10.411   2.445  24.119  0.00  0.00    +0.019 A 
ATOM     26  C   UNL     1       9.862   3.713  23.886  0.00  0.00    +0.065 A 
ATOM     27  C   UNL     1       8.503   3.936  24.126  0.00  0.00    +0.016 A 
ATOM     28  C   UNL     1       7.693   2.889  24.569  0.00  0.00    +0.001 A 
ATOM     29  C   UNL     1       8.234   1.617  24.767  0.00  0.00    +0.004 A 
BRANCH  26  30
ATOM     30  C   UNL     1      10.728   4.805  23.356  0.00  0.00    +0.308 C 
ATOM     31  N   UNL     1      10.302   6.016  23.181  0.00  0.00    -0.099 NA
ATOM     32  H   UNL     1       9.308   6.100  23.406  0.00  0.00    +0.363 HD
ATOM     33  N   UNL     1      12.024   4.563  23.016  0.00  0.00    -0.247 N 
ATOM     34  H   UNL     1      12.515   5.435  22.839  0.00  0.00    +0.288 HD
ATOM     35  H   UNL     1      12.539   3.949  23.635  0.00  0.00    +0.288 HD
ENDBRANCH  26  30
ENDBRANCH  23  24
ENDBRANCH   1  23
TORSDOF 10
ENDMDL
MODEL 8
REMARK VINA RESULT:      -6.1      2.867      4.263
REMARK  Name = 
REMARK  12 active torsions:
REMARK  status: ('A' for Active; 'I' for Inactive)
REMARK    1  A    between atoms: C_2  and  C_3
REMARK    2  A    between atoms: C_2  and  N_13
REMARK    3  A    between atoms: C_2  and  C_28
REMARK    4  A    between atoms: C_3  and  C_4
REMARK    5  A    between atoms: C_8  and  C_10
REMARK    6  A    between atoms: C_14  and  C_16
REMARK    7  A    between atoms: C_16  and  N_17
REMARK    8  A    between atoms: N_17  and  S_18
REMARK    9  A    between atoms: S_18  and  C_21
REMARK   10  A    between atoms: C_24  and  C_25
REMARK   11  A    between atoms: C_28  and  O_30
REMARK   12  A    between atoms: O_30  and  C_31
REMARK                            x       y       z     vdW  Elec       q    Type
REMARK                         _______ _______ _______ _____ _____    ______ ____
ROOT
ATOM      1  C   UNL     1       9.403  -0.814  24.194  0.00  0.00    +0.186 C 
ENDROOT
BRANCH   1   2
ATOM      2  N   UNL     1       8.397  -0.085  24.982  0.00  0.00    -0.301 N 
ATOM      3  H   UNL     1       7.803   0.570  24.479  0.00  0.00    +0.150 HD
ATOM      4  C   UNL     1       8.248  -0.252  26.341  0.00  0.00    +0.229 C 
ATOM      5  O   UNL     1       8.939  -1.033  26.994  0.00  0.00    -0.274 OA
BRANCH   4   6
ATOM      6  C   UNL     1       7.172   0.641  26.955  0.00  0.00    +0.201 C 
BRANCH   6   7
ATOM      7  N   UNL     1       5.999  -0.139  27.350  0.00  0.00    -0.181 NA
ATOM      8  H   UNL     1       5.654  -0.034  28.305  0.00  0.00    +0.149 HD
BRANCH   7   9
ATOM      9  S   UNL     1       4.848  -0.498  26.196  0.00  0.00    +0.059 S 
ATOM     10  O   UNL     1       5.358  -0.058  24.915  0.00  0.00    -0.153 OA
ATOM     11  O   UNL     1       3.575  -0.041  26.711  0.00  0.00    -0.153 OA
BRANCH   9  12
ATOM     12  C   UNL     1       4.839  -2.271  26.228  0.00  0.00    +0.105 A 
ATOM     13  C   UNL     1       3.978  -2.984  25.391  0.00  0.00    +0.029 A 
ATOM     14  C   UNL     1       4.044  -4.377  25.364  0.00  0.00    +0.005 A 
ATOM     15  C   UNL     1       4.966  -5.061  26.170  0.00  0.00    -0.050 A 
ATOM     16  C   UNL     1       5.077  -6.555  26.072  0.00  0.00    +0.044 C 
ATOM     17  C   UNL     1       5.783  -4.336  27.048  0.00  0.00    +0.005 A 
ATOM     18  C   UNL     1       5.721  -2.942  27.080  0.00  0.00    +0.029 A 
ENDBRANCH   9  12
ENDBRANCH   7   9
ENDBRANCH   6   7
ENDBRANCH   4   6
ENDBRANCH   1   2
BRANCH   1  19
ATOM     19  C   UNL     1      10.407   0.237  23.721  0.00  0.00    +0.328 C 
ATOM     20  O   UNL     1      11.255   0.740  24.451  0.00  0.00    -0.249 OA
BRANCH  19  21
ATOM     21  O   UNL     1      10.295   0.448  22.381  0.00  0.00    -0.467 OA
ATOM     22  C   UNL     1       9.874   1.766  22.021  0.00  0.00    +0.280 C 
ENDBRANCH  19  21
ENDBRANCH   1  19
BRANCH   1  23
ATOM     23  C   UNL     1       8.740  -1.525  23.003  0.00  0.00    +0.069 C 
BRANCH  23  24
ATOM     24  C   UNL     1       8.306  -2.943  23.292  0.00  0.00    -0.044 A 
ATOM     25  C   UNL     1       7.306  -3.554  22.518  0.00  0.00    +0.019 A 
ATOM     26  C   UNL     1       6.942  -4.887  22.748  0.00  0.00    +0.065 A 
ATOM     27  C   UNL     1       7.546  -5.602  23.786  0.00  0.00    +0.016 A 
ATOM     28  C   UNL     1       8.529  -4.996  24.570  0.00  0.00    +0.001 A 
ATOM     29  C   UNL     1       8.916  -3.678  24.317  0.00  0.00    +0.004 A 
BRANCH  26  30
ATOM     30  C   UNL     1       5.934  -5.539  21.863  0.00  0.00    +0.308 C 
ATOM     31  N   UNL     1       4.785  -5.952  22.295  0.00  0.00    -0.099 NA
ATOM     32  H   UNL     1       4.691  -5.815  23.304  0.00  0.00    +0.363 HD
ATOM     33  N   UNL     1       6.195  -5.741  20.542  0.00  0.00    -0.247 N 
ATOM     34  H   UNL     1       5.353  -6.034  20.053  0.00  0.00    +0.288 HD
ATOM     35  H   UNL     1       6.677  -4.990  20.064  0.00  0.00    +0.288 HD
ENDBRANCH  26  30
ENDBRANCH  23  24
ENDBRANCH   1  23
TORSDOF 10
ENDMDL
MODEL 9
REMARK VINA RESULT:      -6.0      3.205      5.959
REMARK  Name = 
REMARK  12 active torsions:
REMARK  status: ('A' for Active; 'I' for Inactive)
REMARK    1  A    between atoms: C_2  and  C_3
REMARK    2  A    between atoms: C_2  and  N_13
REMARK    3  A    between atoms: C_2  and  C_28
REMARK    4  A    between atoms: C_3  and  C_4
REMARK    5  A    between atoms: C_8  and  C_10
REMARK    6  A    between atoms: C_14  and  C_16
REMARK    7  A    between atoms: C_16  and  N_17
REMARK    8  A    between atoms: N_17  and  S_18
REMARK    9  A    between atoms: S_18  and  C_21
REMARK   10  A    between atoms: C_24  and  C_25
REMARK   11  A    between atoms: C_28  and  O_30
REMARK   12  A    between atoms: O_30  and  C_31
REMARK                            x       y       z     vdW  Elec       q    Type
REMARK                         _______ _______ _______ _____ _____    ______ ____
ROOT
ATOM      1  C   UNL     1       9.668  -0.393  23.792  0.00  0.00    +0.186 C 
ENDROOT
BRANCH   1   2
ATOM      2  N   UNL     1       9.482  -1.328  24.912  0.00  0.00    -0.301 N 
ATOM      3  H   UNL     1      10.292  -1.514  25.497  0.00  0.00    +0.150 HD
ATOM      4  C   UNL     1       8.280  -1.945  25.178  0.00  0.00    +0.229 C 
ATOM      5  O   UNL     1       7.269  -1.751  24.503  0.00  0.00    -0.274 OA
BRANCH   4   6
ATOM      6  C   UNL     1       8.332  -2.908  26.362  0.00  0.00    +0.201 C 
BRANCH   6   7
ATOM      7  N   UNL     1       6.989  -3.331  26.760  0.00  0.00    -0.181 NA
ATOM      8  H   UNL     1       6.193  -2.831  26.364  0.00  0.00    +0.149 HD
BRANCH   7   9
ATOM      9  S   UNL     1       6.730  -4.938  27.126  0.00  0.00    +0.059 S 
ATOM     10  O   UNL     1       6.121  -4.997  28.438  0.00  0.00    -0.153 OA
ATOM     11  O   UNL     1       7.955  -5.646  26.819  0.00  0.00    -0.153 OA
BRANCH   9  12
ATOM     12  C   UNL     1       5.521  -5.400  25.915  0.00  0.00    +0.105 A 
ATOM     13  C   UNL     1       4.960  -6.679  25.935  0.00  0.00    +0.029 A 
ATOM     14  C   UNL     1       3.947  -6.998  25.030  0.00  0.00    +0.005 A 
ATOM     15  C   UNL     1       3.494  -6.047  24.104  0.00  0.00    -0.050 A 
ATOM     16  C   UNL     1       2.351  -6.382  23.191  0.00  0.00    +0.044 C 
ATOM     17  C   UNL     1       4.107  -4.787  24.057  0.00  0.00    +0.005 A 
ATOM     18  C   UNL     1       5.121  -4.461  24.959  0.00  0.00    +0.029 A 
ENDBRANCH   9  12
ENDBRANCH   7   9
ENDBRANCH   6   7
ENDBRANCH   4   6
ENDBRANCH   1   2
BRANCH   1  19
ATOM     19  C   UNL     1       9.912  -1.261  22.557  0.00  0.00    +0.328 C 
ATOM     20  O   UNL     1      10.753  -2.153  22.513  0.00  0.00    -0.249 OA
BRANCH  19  21
ATOM     21  O   UNL     1       9.011  -0.979  21.578  0.00  0.00    -0.467 OA
ATOM     22  C   UNL     1       9.015   0.383  21.142  0.00  0.00    +0.280 C 
ENDBRANCH  19  21
ENDBRANCH   1  19
BRANCH   1  23
ATOM     23  C   UNL     1      10.861   0.537  24.061  0.00  0.00    +0.069 C 
BRANCH  23  24
ATOM     24  C   UNL     1      10.524   2.008  24.008  0.00  0.00    -0.044 A 
ATOM     25  C   UNL     1      11.517   2.957  23.711  0.00  0.00    +0.019 A 
ATOM     26  C   UNL     1      11.194   4.317  23.607  0.00  0.00    +0.065 A 
ATOM     27  C   UNL     1       9.884   4.739  23.846  0.00  0.00    +0.016 A 
ATOM     28  C   UNL     1       8.896   3.804  24.158  0.00  0.00    +0.001 A 
ATOM     29  C   UNL     1       9.211   2.445  24.227  0.00  0.00    +0.004 A 
BRANCH  26  30
ATOM     30  C   UNL     1      12.248   5.296  23.213  0.00  0.00    +0.308 C 
ATOM     31  N   UNL     1      12.831   6.078  24.064  0.00  0.00    -0.099 NA
ATOM     32  H   UNL     1      12.445   5.965  25.004  0.00  0.00    +0.363 HD
ATOM     33  N   UNL     1      12.636   5.416  21.913  0.00  0.00    -0.247 N 
ATOM     34  H   UNL     1      13.469   5.994  21.841  0.00  0.00    +0.288 HD
ATOM     35  H   UNL     1      12.719   4.552  21.393  0.00  0.00    +0.288 HD
ENDBRANCH  26  30
ENDBRANCH  23  24
ENDBRANCH   1  23
TORSDOF 10
ENDMDL
