MODEL 1
REMARK VINA RESULT:      -6.0      0.000      0.000
REMARK  Name = 
REMARK  5 active torsions:
REMARK  status: ('A' for Active; 'I' for Inactive)
REMARK    1  A    between atoms: O_1  and  C_2
REMARK    2  A    between atoms: C_2  and  C_4
REMARK    3  A    between atoms: C_4  and  S_5
REMARK    4  A    between atoms: S_5  and  C_6
REMARK    5  A    between atoms: C_8  and  C_11
REMARK                            x       y       z     vdW  Elec       q    Type
REMARK                         _______ _______ _______ _____ _____    ______ ____
ROOT
ATOM      1  C   UNL     1       8.141  -3.721  24.179  0.00  0.00    +0.287 A 
ATOM      2  O   UNL     1       9.480  -3.984  24.176  0.00  0.00    -0.326 OA
ATOM      3  N   UNL     1      10.123  -2.784  23.875  0.00  0.00    -0.055 NA
ATOM      4  C   UNL     1       9.114  -1.910  23.726  0.00  0.00    +0.203 A 
ATOM      5  N   UNL     1       7.868  -2.464  23.925  0.00  0.00    -0.182 NA
ENDROOT
BRANCH   4   6
ATOM      6  C   UNL     1       9.287  -0.503  23.374  0.00  0.00    +0.024 A 
ATOM      7  C   UNL     1       8.877   0.501  24.262  0.00  0.00    +0.031 A 
ATOM      8  C   UNL     1       9.033   1.846  23.926  0.00  0.00    +0.042 A 
ATOM      9 CL   UNL     1       8.526   3.065  25.030  0.00  0.00    -0.084 Cl
ATOM     10  C   UNL     1       9.593   2.213  22.705  0.00  0.00    +0.020 A 
ATOM     11  C   UNL     1      10.004   1.224  21.811  0.00  0.00    +0.002 A 
ATOM     12  C   UNL     1       9.852  -0.126  22.144  0.00  0.00    +0.012 A 
ENDBRANCH   4   6
BRANCH   1  13
ATOM     13  S   UNL     1       6.912  -4.922  24.423  0.00  0.00    -0.054 S 
BRANCH  13  14
ATOM     14  C   UNL     1       6.571  -4.679  26.189  0.00  0.00    +0.199 C 
BRANCH  14  15
ATOM     15  C   UNL     1       7.477  -5.532  27.053  0.00  0.00    +0.315 C 
ATOM     16  O   UNL     1       7.161  -5.911  28.174  0.00  0.00    -0.250 OA
BRANCH  15  17
ATOM     17  O   UNL     1       8.634  -5.926  26.474  0.00  0.00    -0.480 OA
ATOM     18  H   UNL     1       8.681  -5.684  25.527  0.00  0.00    +0.295 HD
ENDBRANCH  15  17
ENDBRANCH  14  15
ENDBRANCH  13  14
ENDBRANCH   1  13
TORSDOF 5
ENDMDL
MODEL 2
REMARK VINA RESULT:      -5.9      2.462      3.359
REMARK  Name = 
REMARK  5 active torsions:
REMARK  status: ('A' for Active; 'I' for Inactive)
REMARK    1  A    between atoms: O_1  and  C_2
REMARK    2  A    between atoms: C_2  and  C_4
REMARK    3  A    between atoms: C_4  and  S_5
REMARK    4  A    between atoms: S_5  and  C_6
REMARK    5  A    between atoms: C_8  and  C_11
REMARK                            x       y       z     vdW  Elec       q    Type
REMARK                         _______ _______ _______ _____ _____    ______ ____
ROOT
ATOM      1  C   UNL     1       7.877  -4.139  24.045  0.00  0.00    +0.287 A 
ATOM      2  O   UNL     1       9.181  -4.489  24.239  0.00  0.00    -0.326 OA
ATOM      3  N   UNL     1       9.923  -3.309  24.198  0.00  0.00    -0.055 NA
ATOM      4  C   UNL     1       8.998  -2.359  23.984  0.00  0.00    +0.203 A 
ATOM      5  N   UNL     1       7.712  -2.846  23.900  0.00  0.00    -0.182 NA
ENDROOT
BRANCH   4   6
ATOM      6  C   UNL     1       9.297  -0.937  23.837  0.00  0.00    +0.024 A 
ATOM      7  C   UNL     1       8.630  -0.174  22.867  0.00  0.00    +0.031 A 
ATOM      8  C   UNL     1       8.919   1.184  22.718  0.00  0.00    +0.042 A 
ATOM      9 CL   UNL     1       8.090   2.105  21.523  0.00  0.00    -0.084 Cl
ATOM     10  C   UNL     1       9.873   1.800  23.523  0.00  0.00    +0.020 A 
ATOM     11  C   UNL     1      10.544   1.052  24.491  0.00  0.00    +0.002 A 
ATOM     12  C   UNL     1      10.257  -0.308  24.646  0.00  0.00    +0.012 A 
ENDBRANCH   4   6
BRANCH   1  13
ATOM     13  S   UNL     1       6.569  -5.274  23.931  0.00  0.00    -0.054 S 
BRANCH  13  14
ATOM     14  C   UNL     1       6.874  -5.951  22.274  0.00  0.00    +0.199 C 
BRANCH  14  15
ATOM     15  C   UNL     1       6.142  -5.163  21.208  0.00  0.00    +0.315 C 
ATOM     16  O   UNL     1       5.962  -5.589  20.074  0.00  0.00    -0.250 OA
BRANCH  15  17
ATOM     17  O   UNL     1       5.620  -3.983  21.611  0.00  0.00    -0.480 OA
ATOM     18  H   UNL     1       4.654  -3.928  21.463  0.00  0.00    +0.295 HD
ENDBRANCH  15  17
ENDBRANCH  14  15
ENDBRANCH  13  14
ENDBRANCH   1  13
TORSDOF 5
ENDMDL
MODEL 3
REMARK VINA RESULT:      -5.9      4.054      6.942
REMARK  Name = 
REMARK  5 active torsions:
REMARK  status: ('A' for Active; 'I' for Inactive)
REMARK    1  A    between atoms: O_1  and  C_2
REMARK    2  A    between atoms: C_2  and  C_4
REMARK    3  A    between atoms: C_4  and  S_5
REMARK    4  A    between atoms: S_5  and  C_6
REMARK    5  A    between atoms: C_8  and  C_11
REMARK                            x       y       z     vdW  Elec       q    Type
REMARK                         _______ _______ _______ _____ _____    ______ ____
ROOT
ATOM      1  C   UNL     1       9.350  -2.013  22.719  0.00  0.00    +0.287 A 
ATOM      2  O   UNL     1      10.144  -2.649  23.628  0.00  0.00    -0.326 OA
ATOM      3  N   UNL     1       9.407  -3.726  24.120  0.00  0.00    -0.055 NA
ATOM      4  C   UNL     1       8.238  -3.638  23.463  0.00  0.00    +0.203 A 
ATOM      5  N   UNL     1       8.181  -2.589  22.572  0.00  0.00    -0.182 NA
ENDROOT
BRANCH   4   6
ATOM      6  C   UNL     1       7.112  -4.546  23.661  0.00  0.00    +0.024 A 
ATOM      7  C   UNL     1       6.778  -4.983  24.951  0.00  0.00    +0.031 A 
ATOM      8  C   UNL     1       5.707  -5.857  25.144  0.00  0.00    +0.042 A 
ATOM      9 CL   UNL     1       5.311  -6.382  26.735  0.00  0.00    -0.084 Cl
ATOM     10  C   UNL     1       4.957  -6.311  24.062  0.00  0.00    +0.020 A 
ATOM     11  C   UNL     1       5.280  -5.886  22.774  0.00  0.00    +0.002 A 
ATOM     12  C   UNL     1       6.350  -5.008  22.575  0.00  0.00    +0.012 A 
ENDBRANCH   4   6
BRANCH   1  13
ATOM     13  S   UNL     1       9.794  -0.556  21.887  0.00  0.00    -0.054 S 
BRANCH  13  14
ATOM     14  C   UNL     1      10.128   0.533  23.301  0.00  0.00    +0.199 C 
BRANCH  14  15
ATOM     15  C   UNL     1      10.295   1.974  22.866  0.00  0.00    +0.315 C 
ATOM     16  O   UNL     1      10.699   2.852  23.618  0.00  0.00    -0.250 OA
BRANCH  15  17
ATOM     17  O   UNL     1      10.048   2.221  21.559  0.00  0.00    -0.480 OA
ATOM     18  H   UNL     1      10.362   1.502  20.975  0.00  0.00    +0.295 HD
ENDBRANCH  15  17
ENDBRANCH  14  15
ENDBRANCH  13  14
ENDBRANCH   1  13
TORSDOF 5
ENDMDL
MODEL 4
REMARK VINA RESULT:      -5.8      3.902      6.986
REMARK  Name = 
REMARK  5 active torsions:
REMARK  status: ('A' for Active; 'I' for Inactive)
REMARK    1  A    between atoms: O_1  and  C_2
REMARK    2  A    between atoms: C_2  and  C_4
REMARK    3  A    between atoms: C_4  and  S_5
REMARK    4  A    between atoms: S_5  and  C_6
REMARK    5  A    between atoms: C_8  and  C_11
REMARK                            x       y       z     vdW  Elec       q    Type
REMARK                         _______ _______ _______ _____ _____    ______ ____
ROOT
ATOM      1  C   UNL     1       9.409  -2.132  22.969  0.00  0.00    +0.287 A 
ATOM      2  O   UNL     1      10.349  -2.803  23.696  0.00  0.00    -0.326 OA
ATOM      3  N   UNL     1       9.679  -3.824  24.370  0.00  0.00    -0.055 NA
ATOM      4  C   UNL     1       8.400  -3.674  23.987  0.00  0.00    +0.203 A 
ATOM      5  N   UNL     1       8.206  -2.636  23.101  0.00  0.00    -0.182 NA
ENDROOT
BRANCH   4   6
ATOM      6  C   UNL     1       7.296  -4.506  24.457  0.00  0.00    +0.024 A 
ATOM      7  C   UNL     1       6.233  -4.816  23.597  0.00  0.00    +0.031 A 
ATOM      8  C   UNL     1       5.171  -5.604  24.045  0.00  0.00    +0.042 A 
ATOM      9 CL   UNL     1       3.875  -5.976  22.975  0.00  0.00    -0.084 Cl
ATOM     10  C   UNL     1       5.149  -6.091  25.349  0.00  0.00    +0.020 A 
ATOM     11  C   UNL     1       6.200  -5.788  26.215  0.00  0.00    +0.002 A 
ATOM     12  C   UNL     1       7.267  -5.001  25.771  0.00  0.00    +0.012 A 
ENDBRANCH   4   6
BRANCH   1  13
ATOM     13  S   UNL     1       9.740  -0.719  22.017  0.00  0.00    -0.054 S 
BRANCH  13  14
ATOM     14  C   UNL     1       9.695   0.556  23.309  0.00  0.00    +0.199 C 
BRANCH  14  15
ATOM     15  C   UNL     1      10.166   1.897  22.784  0.00  0.00    +0.315 C 
ATOM     16  O   UNL     1      10.754   2.713  23.481  0.00  0.00    -0.250 OA
BRANCH  15  17
ATOM     17  O   UNL     1       9.970   2.106  21.462  0.00  0.00    -0.480 OA
ATOM     18  H   UNL     1       9.908   1.272  20.954  0.00  0.00    +0.295 HD
ENDBRANCH  15  17
ENDBRANCH  14  15
ENDBRANCH  13  14
ENDBRANCH   1  13
TORSDOF 5
ENDMDL
MODEL 5
REMARK VINA RESULT:      -5.8      4.125      6.781
REMARK  Name = 
REMARK  5 active torsions:
REMARK  status: ('A' for Active; 'I' for Inactive)
REMARK    1  A    between atoms: O_1  and  C_2
REMARK    2  A    between atoms: C_2  and  C_4
REMARK    3  A    between atoms: C_4  and  S_5
REMARK    4  A    between atoms: S_5  and  C_6
REMARK    5  A    between atoms: C_8  and  C_11
REMARK                            x       y       z     vdW  Elec       q    Type
REMARK                         _______ _______ _______ _____ _____    ______ ____
ROOT
ATOM      1  C   UNL     1       9.705  -0.700  23.675  0.00  0.00    +0.287 A 
ATOM      2  O   UNL     1       9.807  -0.768  22.316  0.00  0.00    -0.326 OA
ATOM      3  N   UNL     1       9.024  -1.848  21.909  0.00  0.00    -0.055 NA
ATOM      4  C   UNL     1       8.524  -2.330  23.058  0.00  0.00    +0.203 A 
ATOM      5  N   UNL     1       8.919  -1.624  24.173  0.00  0.00    -0.182 NA
ENDROOT
BRANCH   4   6
ATOM      6  C   UNL     1       7.651  -3.498  23.152  0.00  0.00    +0.024 A 
ATOM      7  C   UNL     1       7.333  -4.040  24.405  0.00  0.00    +0.031 A 
ATOM      8  C   UNL     1       6.506  -5.161  24.499  0.00  0.00    +0.042 A 
ATOM      9 CL   UNL     1       6.124  -5.812  26.045  0.00  0.00    -0.084 Cl
ATOM     10  C   UNL     1       5.989  -5.759  23.352  0.00  0.00    +0.020 A 
ATOM     11  C   UNL     1       6.299  -5.230  22.100  0.00  0.00    +0.002 A 
ATOM     12  C   UNL     1       7.125  -4.106  22.001  0.00  0.00    +0.012 A 
ENDBRANCH   4   6
BRANCH   1  13
ATOM     13  S   UNL     1      10.568   0.437  24.662  0.00  0.00    -0.054 S 
BRANCH  13  14
ATOM     14  C   UNL     1       9.742   1.978  24.175  0.00  0.00    +0.199 C 
BRANCH  14  15
ATOM     15  C   UNL     1      10.505   2.697  23.081  0.00  0.00    +0.315 C 
ATOM     16  O   UNL     1      11.338   3.564  23.312  0.00  0.00    -0.250 OA
BRANCH  15  17
ATOM     17  O   UNL     1      10.271   2.258  21.823  0.00  0.00    -0.480 OA
ATOM     18  H   UNL     1      10.884   1.545  21.553  0.00  0.00    +0.295 HD
ENDBRANCH  15  17
ENDBRANCH  14  15
ENDBRANCH  13  14
ENDBRANCH   1  13
TORSDOF 5
ENDMDL
MODEL 6
REMARK VINA RESULT:      -5.7      3.949      6.739
REMARK  Name = 
REMARK  5 active torsions:
REMARK  status: ('A' for Active; 'I' for Inactive)
REMARK    1  A    between atoms: O_1  and  C_2
REMARK    2  A    between atoms: C_2  and  C_4
REMARK    3  A    between atoms: C_4  and  S_5
REMARK    4  A    between atoms: S_5  and  C_6
REMARK    5  A    between atoms: C_8  and  C_11
REMARK                            x       y       z     vdW  Elec       q    Type
REMARK                         _______ _______ _______ _____ _____    ______ ____
ROOT
ATOM      1  C   UNL     1      10.173  -0.594  24.025  0.00  0.00    +0.287 A 
ATOM      2  O   UNL     1      10.561  -1.370  22.972  0.00  0.00    -0.326 OA
ATOM      3  N   UNL     1       9.950  -2.613  23.144  0.00  0.00    -0.055 NA
ATOM      4  C   UNL     1       9.252  -2.469  24.282  0.00  0.00    +0.203 A 
ATOM      5  N   UNL     1       9.360  -1.216  24.844  0.00  0.00    -0.182 NA
ENDROOT
BRANCH   4   6
ATOM      6  C   UNL     1       8.454  -3.526  24.899  0.00  0.00    +0.024 A 
ATOM      7  C   UNL     1       7.441  -4.161  24.167  0.00  0.00    +0.031 A 
ATOM      8  C   UNL     1       6.671  -5.166  24.755  0.00  0.00    +0.042 A 
ATOM      9 CL   UNL     1       5.432  -5.936  23.841  0.00  0.00    -0.084 Cl
ATOM     10  C   UNL     1       6.894  -5.551  26.074  0.00  0.00    +0.020 A 
ATOM     11  C   UNL     1       7.898  -4.927  26.814  0.00  0.00    +0.002 A 
ATOM     12  C   UNL     1       8.674  -3.921  26.229  0.00  0.00    +0.012 A 
ENDBRANCH   4   6
BRANCH   1  13
ATOM     13  S   UNL     1      10.738   1.023  24.303  0.00  0.00    -0.054 S 
BRANCH  13  14
ATOM     14  C   UNL     1       9.300   1.970  23.727  0.00  0.00    +0.199 C 
BRANCH  14  15
ATOM     15  C   UNL     1       9.129   1.863  22.225  0.00  0.00    +0.315 C 
ATOM     16  O   UNL     1       8.083   1.504  21.700  0.00  0.00    -0.250 OA
BRANCH  15  17
ATOM     17  O   UNL     1      10.185   2.275  21.488  0.00  0.00    -0.480 OA
ATOM     18  H   UNL     1       9.970   2.362  20.538  0.00  0.00    +0.295 HD
ENDBRANCH  15  17
ENDBRANCH  14  15
ENDBRANCH  13  14
ENDBRANCH   1  13
TORSDOF 5
ENDMDL
MODEL 7
REMARK VINA RESULT:      -5.7      2.533      3.190
REMARK  Name = 
REMARK  5 active torsions:
REMARK  status: ('A' for Active; 'I' for Inactive)
REMARK    1  A    between atoms: O_1  and  C_2
REMARK    2  A    between atoms: C_2  and  C_4
REMARK    3  A    between atoms: C_4  and  S_5
REMARK    4  A    between atoms: S_5  and  C_6
REMARK    5  A    between atoms: C_8  and  C_11
REMARK                            x       y       z     vdW  Elec       q    Type
REMARK                         _______ _______ _______ _____ _____    ______ ____
ROOT
ATOM      1  C   UNL     1       6.957  -4.680  24.749  0.00  0.00    +0.287 A 
ATOM      2  O   UNL     1       8.149  -5.343  24.783  0.00  0.00    -0.326 OA
ATOM      3  N   UNL     1       9.108  -4.469  24.271  0.00  0.00    -0.055 NA
ATOM      4  C   UNL     1       8.405  -3.362  23.977  0.00  0.00    +0.203 A 
ATOM      5  N   UNL     1       7.065  -3.461  24.279  0.00  0.00    -0.182 NA
ENDROOT
BRANCH   4   6
ATOM      6  C   UNL     1       8.977  -2.158  23.380  0.00  0.00    +0.024 A 
ATOM      7  C   UNL     1       9.750  -1.285  24.159  0.00  0.00    +0.031 A 
ATOM      8  C   UNL     1      10.291  -0.129  23.595  0.00  0.00    +0.042 A 
ATOM      9 CL   UNL     1      11.239   0.930  24.566  0.00  0.00    -0.084 Cl
ATOM     10  C   UNL     1      10.070   0.178  22.255  0.00  0.00    +0.020 A 
ATOM     11  C   UNL     1       9.302  -0.681  21.470  0.00  0.00    +0.002 A 
ATOM     12  C   UNL     1       8.760  -1.842  22.029  0.00  0.00    +0.012 A 
ENDBRANCH   4   6
BRANCH   1  13
ATOM     13  S   UNL     1       5.438  -5.382  25.210  0.00  0.00    -0.054 S 
BRANCH  13  14
ATOM     14  C   UNL     1       5.083  -6.379  23.735  0.00  0.00    +0.199 C 
BRANCH  14  15
ATOM     15  C   UNL     1       5.312  -5.591  22.462  0.00  0.00    +0.315 C 
ATOM     16  O   UNL     1       6.016  -5.998  21.547  0.00  0.00    -0.250 OA
BRANCH  15  17
ATOM     17  O   UNL     1       4.617  -4.435  22.360  0.00  0.00    -0.480 OA
ATOM     18  H   UNL     1       3.794  -4.442  22.889  0.00  0.00    +0.295 HD
ENDBRANCH  15  17
ENDBRANCH  14  15
ENDBRANCH  13  14
ENDBRANCH   1  13
TORSDOF 5
ENDMDL
MODEL 8
REMARK VINA RESULT:      -5.6      1.884      2.252
REMARK  Name = 
REMARK  5 active torsions:
REMARK  status: ('A' for Active; 'I' for Inactive)
REMARK    1  A    between atoms: O_1  and  C_2
REMARK    2  A    between atoms: C_2  and  C_4
REMARK    3  A    between atoms: C_4  and  S_5
REMARK    4  A    between atoms: S_5  and  C_6
REMARK    5  A    between atoms: C_8  and  C_11
REMARK                            x       y       z     vdW  Elec       q    Type
REMARK                         _______ _______ _______ _____ _____    ______ ____
ROOT
ATOM      1  C   UNL     1       7.658  -2.629  25.819  0.00  0.00    +0.287 A 
ATOM      2  O   UNL     1       8.348  -1.967  26.792  0.00  0.00    -0.326 OA
ATOM      3  N   UNL     1       8.991  -0.897  26.170  0.00  0.00    -0.055 NA
ATOM      4  C   UNL     1       8.629  -1.014  24.881  0.00  0.00    +0.203 A 
ATOM      5  N   UNL     1       7.786  -2.076  24.638  0.00  0.00    -0.182 NA
ENDROOT
BRANCH   4   6
ATOM      6  C   UNL     1       9.080  -0.125  23.815  0.00  0.00    +0.024 A 
ATOM      7  C   UNL     1       9.773   1.054  24.126  0.00  0.00    +0.031 A 
ATOM      8  C   UNL     1      10.198   1.911  23.110  0.00  0.00    +0.042 A 
ATOM      9 CL   UNL     1      11.048   3.353  23.512  0.00  0.00    -0.084 Cl
ATOM     10  C   UNL     1       9.939   1.613  21.775  0.00  0.00    +0.020 A 
ATOM     11  C   UNL     1       9.250   0.445  21.451  0.00  0.00    +0.002 A 
ATOM     12  C   UNL     1       8.824  -0.419  22.466  0.00  0.00    +0.012 A 
ENDBRANCH   4   6
BRANCH   1  13
ATOM     13  S   UNL     1       6.757  -4.089  26.085  0.00  0.00    -0.054 S 
BRANCH  13  14
ATOM     14  C   UNL     1       8.114  -5.293  26.171  0.00  0.00    +0.199 C 
BRANCH  14  15
ATOM     15  C   UNL     1       9.059  -5.150  24.997  0.00  0.00    +0.315 C 
ATOM     16  O   UNL     1      10.271  -5.032  25.130  0.00  0.00    -0.250 OA
BRANCH  15  17
ATOM     17  O   UNL     1       8.489  -5.247  23.774  0.00  0.00    -0.480 OA
ATOM     18  H   UNL     1       8.272  -4.374  23.390  0.00  0.00    +0.295 HD
ENDBRANCH  15  17
ENDBRANCH  14  15
ENDBRANCH  13  14
ENDBRANCH   1  13
TORSDOF 5
ENDMDL
MODEL 9
REMARK VINA RESULT:      -5.4      4.010      6.752
REMARK  Name = 
REMARK  5 active torsions:
REMARK  status: ('A' for Active; 'I' for Inactive)
REMARK    1  A    between atoms: O_1  and  C_2
REMARK    2  A    between atoms: C_2  and  C_4
REMARK    3  A    between atoms: C_4  and  S_5
REMARK    4  A    between atoms: S_5  and  C_6
REMARK    5  A    between atoms: C_8  and  C_11
REMARK                            x       y       z     vdW  Elec       q    Type
REMARK                         _______ _______ _______ _____ _____    ______ ____
ROOT
ATOM      1  C   UNL     1       9.158  -0.895  24.488  0.00  0.00    +0.287 A 
ATOM      2  O   UNL     1      10.253  -1.650  24.184  0.00  0.00    -0.326 OA
ATOM      3  N   UNL     1       9.781  -2.909  23.813  0.00  0.00    -0.055 NA
ATOM      4  C   UNL     1       8.447  -2.796  23.928  0.00  0.00    +0.203 A 
ATOM      5  N   UNL     1       8.031  -1.546  24.331  0.00  0.00    -0.182 NA
ENDROOT
BRANCH   4   6
ATOM      6  C   UNL     1       7.502  -3.879  23.668  0.00  0.00    +0.024 A 
ATOM      7  C   UNL     1       7.277  -4.318  22.356  0.00  0.00    +0.031 A 
ATOM      8  C   UNL     1       6.369  -5.347  22.103  0.00  0.00    +0.042 A 
ATOM      9 CL   UNL     1       6.106  -5.874  20.486  0.00  0.00    -0.084 Cl
ATOM     10  C   UNL     1       5.672  -5.951  23.146  0.00  0.00    +0.020 A 
ATOM     11  C   UNL     1       5.886  -5.523  24.456  0.00  0.00    +0.002 A 
ATOM     12  C   UNL     1       6.796  -4.494  24.715  0.00  0.00    +0.012 A 
ENDBRANCH   4   6
BRANCH   1  13
ATOM     13  S   UNL     1       9.232   0.733  25.085  0.00  0.00    -0.054 S 
BRANCH  13  14
ATOM     14  C   UNL     1      10.160   1.526  23.741  0.00  0.00    +0.199 C 
BRANCH  14  15
ATOM     15  C   UNL     1       9.264   1.855  22.565  0.00  0.00    +0.315 C 
ATOM     16  O   UNL     1       8.060   2.045  22.680  0.00  0.00    -0.250 OA
BRANCH  15  17
ATOM     17  O   UNL     1       9.894   2.011  21.378  0.00  0.00    -0.480 OA
ATOM     18  H   UNL     1       9.276   2.219  20.649  0.00  0.00    +0.295 HD
ENDBRANCH  15  17
ENDBRANCH  14  15
ENDBRANCH  13  14
ENDBRANCH   1  13
TORSDOF 5
ENDMDL
