MODEL 1
REMARK VINA RESULT:      -7.8      0.000      0.000
REMARK  Name = 
REMARK  6 active torsions:
REMARK  status: ('A' for Active; 'I' for Inactive)
REMARK    1  A    between atoms: C_5  and  N_28
REMARK    2  A    between atoms: C_8  and  C_10
REMARK    3  A    between atoms: N_12  and  C_13
REMARK    4  A    between atoms: C_18  and  C_19
REMARK    5  A    between atoms: C_19  and  O_20
REMARK    6  A    between atoms: O_20  and  C_21
REMARK                            x       y       z     vdW  Elec       q    Type
REMARK                         _______ _______ _______ _____ _____    ______ ____
ROOT
ATOM      1  C   UNL     1       8.954  -2.748  24.476  0.00  0.00    +0.244 C 
ATOM      2  N   UNL     1       8.462  -1.460  24.556  0.00  0.00    -0.282 N 
ATOM      3  H   UNL     1       7.495  -1.339  24.820  0.00  0.00    +0.155 HD
ATOM      4  O   UNL     1      10.054  -3.060  24.026  0.00  0.00    -0.270 OA
ENDROOT
BRANCH   1   8
ATOM      5  C   UNL     1       6.317  -4.406  26.729  0.00  0.00    +0.191 C 
ATOM      6  F   UNL     1       6.733  -4.792  27.970  0.00  0.00    -0.241 F 
ATOM      7  C   UNL     1       7.367  -3.539  26.119  0.00  0.00    +0.018 C 
ATOM      8  C   UNL     1       8.056  -3.836  25.002  0.00  0.00    +0.015 C 
ATOM      9  C   UNL     1       7.810  -5.126  24.286  0.00  0.00    +0.059 C 
ATOM     10  C   UNL     1       6.377  -5.706  24.466  0.00  0.00    +0.064 C 
ATOM     11  C   UNL     1       5.947  -5.667  25.951  0.00  0.00    +0.060 C 
BRANCH  10  12
ATOM     12  N   UNL     1       5.294  -5.319  23.540  0.00  0.00    -0.295 NA
ATOM     13  C   UNL     1       5.312  -5.963  22.215  0.00  0.00    +0.113 C 
ATOM     14  C   UNL     1       6.103  -5.198  21.139  0.00  0.00    +0.175 C 
ATOM     15  O   UNL     1       5.702  -3.828  21.049  0.00  0.00    -0.377 OA
ATOM     16  C   UNL     1       5.746  -3.162  22.317  0.00  0.00    +0.175 C 
ATOM     17  C   UNL     1       4.932  -3.907  23.382  0.00  0.00    +0.113 C 
ENDBRANCH  10  12
ENDBRANCH   1   8
BRANCH   2  18
ATOM     18  C   UNL     1       9.177  -0.273  24.234  0.00  0.00    +0.034 A 
ATOM     19  C   UNL     1       8.527   0.710  23.464  0.00  0.00    +0.031 A 
ATOM     20  C   UNL     1       9.151   1.943  23.156  0.00  0.00    +0.010 A 
ATOM     21  C   UNL     1      10.461   2.161  23.602  0.00  0.00    +0.047 A 
ATOM     22 CL   UNL     1      11.309   3.636  23.293  0.00  0.00    -0.083 Cl
ATOM     23  C   UNL     1      11.117   1.187  24.351  0.00  0.00    +0.022 A 
ATOM     24  C   UNL     1      10.479  -0.011  24.669  0.00  0.00    +0.025 A 
BRANCH  20  25
ATOM     25  C   UNL     1       8.385   2.994  22.386  0.00  0.00    +0.266 C 
BRANCH  25  26
ATOM     26  O   UNL     1       7.510   3.717  23.257  0.00  0.00    -0.486 OA
BRANCH  26  27
ATOM     27  C   UNL     1       8.041   4.835  23.841  0.00  0.00    +0.139 A 
ATOM     28  C   UNL     1       8.271   4.761  25.214  0.00  0.00    +0.049 A 
ATOM     29  C   UNL     1       8.813   5.852  25.892  0.00  0.00    +0.023 A 
ATOM     30  C   UNL     1       9.113   6.995  25.167  0.00  0.00    +0.111 A 
ATOM     31  N   UNL     1       8.910   7.108  23.838  0.00  0.00    -0.260 NA
ATOM     32  C   UNL     1       8.378   6.029  23.210  0.00  0.00    +0.156 A 
ENDBRANCH  26  27
ENDBRANCH  25  26
ENDBRANCH  20  25
ENDBRANCH   2  18
TORSDOF 6
ENDMDL
MODEL 2
REMARK VINA RESULT:      -7.7      1.844      2.071
REMARK  Name = 
REMARK  6 active torsions:
REMARK  status: ('A' for Active; 'I' for Inactive)
REMARK    1  A    between atoms: C_5  and  N_28
REMARK    2  A    between atoms: C_8  and  C_10
REMARK    3  A    between atoms: N_12  and  C_13
REMARK    4  A    between atoms: C_18  and  C_19
REMARK    5  A    between atoms: C_19  and  O_20
REMARK    6  A    between atoms: O_20  and  C_21
REMARK                            x       y       z     vdW  Elec       q    Type
REMARK                         _______ _______ _______ _____ _____    ______ ____
ROOT
ATOM      1  C   UNL     1       7.957  -2.173  25.833  0.00  0.00    +0.244 C 
ATOM      2  N   UNL     1       8.646  -1.924  24.662  0.00  0.00    -0.282 N 
ATOM      3  H   UNL     1       8.790  -2.695  24.026  0.00  0.00    +0.155 HD
ATOM      4  O   UNL     1       7.836  -1.383  26.766  0.00  0.00    -0.270 OA
ENDROOT
BRANCH   1   8
ATOM      5  C   UNL     1       5.572  -4.869  27.181  0.00  0.00    +0.191 C 
ATOM      6  F   UNL     1       5.927  -5.464  28.356  0.00  0.00    -0.241 F 
ATOM      7  C   UNL     1       6.439  -3.674  26.966  0.00  0.00    +0.018 C 
ATOM      8  C   UNL     1       7.300  -3.524  25.943  0.00  0.00    +0.015 C 
ATOM      9  C   UNL     1       7.460  -4.609  24.926  0.00  0.00    +0.059 C 
ATOM     10  C   UNL     1       6.202  -5.504  24.728  0.00  0.00    +0.064 C 
ATOM     11  C   UNL     1       5.612  -5.938  26.090  0.00  0.00    +0.060 C 
BRANCH  10  12
ATOM     12  N   UNL     1       5.169  -5.129  23.743  0.00  0.00    -0.295 NA
ATOM     13  C   UNL     1       5.226  -5.826  22.445  0.00  0.00    +0.113 C 
ATOM     14  C   UNL     1       6.079  -5.122  21.375  0.00  0.00    +0.175 C 
ATOM     15  O   UNL     1       5.716  -3.748  21.215  0.00  0.00    -0.377 OA
ATOM     16  C   UNL     1       5.723  -3.034  22.458  0.00  0.00    +0.175 C 
ATOM     17  C   UNL     1       4.847  -3.717  23.515  0.00  0.00    +0.113 C 
ENDBRANCH  10  12
ENDBRANCH   1   8
BRANCH   2  18
ATOM     18  C   UNL     1       9.238  -0.686  24.291  0.00  0.00    +0.034 A 
ATOM     19  C   UNL     1       8.651   0.048  23.242  0.00  0.00    +0.031 A 
ATOM     20  C   UNL     1       9.145   1.317  22.857  0.00  0.00    +0.010 A 
ATOM     21  C   UNL     1      10.270   1.826  23.519  0.00  0.00    +0.047 A 
ATOM     22 CL   UNL     1      10.946   3.371  23.136  0.00  0.00    -0.083 Cl
ATOM     23  C   UNL     1      10.867   1.100  24.546  0.00  0.00    +0.022 A 
ATOM     24  C   UNL     1      10.352  -0.136  24.932  0.00  0.00    +0.025 A 
BRANCH  20  25
ATOM     25  C   UNL     1       8.436   2.096  21.773  0.00  0.00    +0.266 C 
BRANCH  25  26
ATOM     26  O   UNL     1       7.020   2.039  21.958  0.00  0.00    -0.486 OA
BRANCH  26  27
ATOM     27  C   UNL     1       6.411   3.224  22.269  0.00  0.00    +0.139 A 
ATOM     28  C   UNL     1       7.213   4.362  22.210  0.00  0.00    +0.049 A 
ATOM     29  C   UNL     1       6.675   5.614  22.508  0.00  0.00    +0.023 A 
ATOM     30  C   UNL     1       5.336   5.688  22.857  0.00  0.00    +0.111 A 
ATOM     31  N   UNL     1       4.523   4.614  22.923  0.00  0.00    -0.260 NA
ATOM     32  C   UNL     1       5.079   3.411  22.631  0.00  0.00    +0.156 A 
ENDBRANCH  26  27
ENDBRANCH  25  26
ENDBRANCH  20  25
ENDBRANCH   2  18
TORSDOF 6
ENDMDL
MODEL 3
REMARK VINA RESULT:      -7.7      3.654      9.304
REMARK  Name = 
REMARK  6 active torsions:
REMARK  status: ('A' for Active; 'I' for Inactive)
REMARK    1  A    between atoms: C_5  and  N_28
REMARK    2  A    between atoms: C_8  and  C_10
REMARK    3  A    between atoms: N_12  and  C_13
REMARK    4  A    between atoms: C_18  and  C_19
REMARK    5  A    between atoms: C_19  and  O_20
REMARK    6  A    between atoms: O_20  and  C_21
REMARK                            x       y       z     vdW  Elec       q    Type
REMARK                         _______ _______ _______ _____ _____    ______ ____
ROOT
ATOM      1  C   UNL     1      10.151   1.485  24.081  0.00  0.00    +0.244 C 
ATOM      2  N   UNL     1       8.930   0.848  23.980  0.00  0.00    -0.282 N 
ATOM      3  H   UNL     1       8.096   1.409  24.074  0.00  0.00    +0.155 HD
ATOM      4  O   UNL     1      11.242   0.921  24.141  0.00  0.00    -0.270 OA
ENDROOT
BRANCH   1   8
ATOM      5  C   UNL     1      11.291   5.082  23.348  0.00  0.00    +0.191 C 
ATOM      6  F   UNL     1      12.325   5.558  24.100  0.00  0.00    -0.241 F 
ATOM      7  C   UNL     1      11.180   3.610  23.562  0.00  0.00    +0.018 C 
ATOM      8  C   UNL     1      10.116   2.990  24.106  0.00  0.00    +0.015 C 
ATOM      9  C   UNL     1       8.937   3.784  24.570  0.00  0.00    +0.059 C 
ATOM     10  C   UNL     1       8.723   5.129  23.816  0.00  0.00    +0.064 C 
ATOM     11  C   UNL     1      10.052   5.908  23.687  0.00  0.00    +0.060 C 
BRANCH  10  12
ATOM     12  N   UNL     1       7.905   5.173  22.587  0.00  0.00    -0.295 NA
ATOM     13  C   UNL     1       7.227   6.451  22.305  0.00  0.00    +0.113 C 
ATOM     14  C   UNL     1       5.811   6.571  22.895  0.00  0.00    +0.175 C 
ATOM     15  O   UNL     1       4.987   5.454  22.550  0.00  0.00    -0.377 OA
ATOM     16  C   UNL     1       5.599   4.201  22.883  0.00  0.00    +0.175 C 
ATOM     17  C   UNL     1       6.998   4.067  22.268  0.00  0.00    +0.113 C 
ENDBRANCH  10  12
ENDBRANCH   1   8
BRANCH   2  18
ATOM     18  C   UNL     1       8.730  -0.551  23.820  0.00  0.00    +0.034 A 
ATOM     19  C   UNL     1       8.796  -1.370  24.964  0.00  0.00    +0.031 A 
ATOM     20  C   UNL     1       8.547  -2.762  24.894  0.00  0.00    +0.010 A 
ATOM     21  C   UNL     1       8.266  -3.330  23.645  0.00  0.00    +0.047 A 
ATOM     22 CL   UNL     1       7.933  -5.016  23.451  0.00  0.00    -0.083 Cl
ATOM     23  C   UNL     1       8.214  -2.529  22.506  0.00  0.00    +0.022 A 
ATOM     24  C   UNL     1       8.435  -1.156  22.595  0.00  0.00    +0.025 A 
BRANCH  20  25
ATOM     25  C   UNL     1       8.561  -3.586  26.161  0.00  0.00    +0.266 C 
BRANCH  25  26
ATOM     26  O   UNL     1       7.324  -3.446  26.865  0.00  0.00    -0.486 OA
BRANCH  26  27
ATOM     27  C   UNL     1       6.544  -4.568  26.927  0.00  0.00    +0.139 A 
ATOM     28  C   UNL     1       5.530  -4.667  25.975  0.00  0.00    +0.049 A 
ATOM     29  C   UNL     1       4.688  -5.778  25.963  0.00  0.00    +0.023 A 
ATOM     30  C   UNL     1       4.890  -6.768  26.911  0.00  0.00    +0.111 A 
ATOM     31  N   UNL     1       5.860  -6.715  27.847  0.00  0.00    -0.260 NA
ATOM     32  C   UNL     1       6.659  -5.619  27.834  0.00  0.00    +0.156 A 
ENDBRANCH  26  27
ENDBRANCH  25  26
ENDBRANCH  20  25
ENDBRANCH   2  18
TORSDOF 6
ENDMDL
MODEL 4
REMARK VINA RESULT:      -7.7      2.206      3.354
REMARK  Name = 
REMARK  6 active torsions:
REMARK  status: ('A' for Active; 'I' for Inactive)
REMARK    1  A    between atoms: C_5  and  N_28
REMARK    2  A    between atoms: C_8  and  C_10
REMARK    3  A    between atoms: N_12  and  C_13
REMARK    4  A    between atoms: C_18  and  C_19
REMARK    5  A    between atoms: C_19  and  O_20
REMARK    6  A    between atoms: O_20  and  C_21
REMARK                            x       y       z     vdW  Elec       q    Type
REMARK                         _______ _______ _______ _____ _____    ______ ____
ROOT
ATOM      1  C   UNL     1       8.032  -2.621  23.095  0.00  0.00    +0.244 C 
ATOM      2  N   UNL     1       7.625  -1.379  22.648  0.00  0.00    -0.282 N 
ATOM      3  H   UNL     1       6.729  -1.313  22.189  0.00  0.00    +0.155 HD
ATOM      4  O   UNL     1       9.149  -2.887  23.532  0.00  0.00    -0.270 OA
ENDROOT
BRANCH   1   8
ATOM      5  C   UNL     1       6.444  -5.967  22.065  0.00  0.00    +0.191 C 
ATOM      6  F   UNL     1       5.880  -6.017  20.823  0.00  0.00    -0.241 F 
ATOM      7  C   UNL     1       7.249  -4.716  22.177  0.00  0.00    +0.018 C 
ATOM      8  C   UNL     1       7.000  -3.717  23.043  0.00  0.00    +0.015 C 
ATOM      9  C   UNL     1       5.831  -3.800  23.974  0.00  0.00    +0.059 C 
ATOM     10  C   UNL     1       5.399  -5.248  24.347  0.00  0.00    +0.064 C 
ATOM     11  C   UNL     1       5.325  -6.144  23.089  0.00  0.00    +0.060 C 
BRANCH  10  12
ATOM     12  N   UNL     1       6.004  -5.931  25.508  0.00  0.00    -0.295 NA
ATOM     13  C   UNL     1       5.087  -6.273  26.610  0.00  0.00    +0.113 C 
ATOM     14  C   UNL     1       4.952  -5.189  27.693  0.00  0.00    +0.175 C 
ATOM     15  O   UNL     1       6.223  -4.759  28.187  0.00  0.00    -0.377 OA
ATOM     16  C   UNL     1       7.108  -4.353  27.134  0.00  0.00    +0.175 C 
ATOM     17  C   UNL     1       7.268  -5.445  26.069  0.00  0.00    +0.113 C 
ENDBRANCH  10  12
ENDBRANCH   1   8
BRANCH   2  18
ATOM     18  C   UNL     1       8.385  -0.179  22.716  0.00  0.00    +0.034 A 
ATOM     19  C   UNL     1       8.112   0.726  23.759  0.00  0.00    +0.031 A 
ATOM     20  C   UNL     1       8.868   1.911  23.929  0.00  0.00    +0.010 A 
ATOM     21  C   UNL     1       9.884   2.196  23.006  0.00  0.00    +0.047 A 
ATOM     22 CL   UNL     1      10.874   3.608  23.129  0.00  0.00    -0.083 Cl
ATOM     23  C   UNL     1      10.149   1.313  21.962  0.00  0.00    +0.022 A 
ATOM     24  C   UNL     1       9.414   0.137  21.824  0.00  0.00    +0.025 A 
BRANCH  20  25
ATOM     25  C   UNL     1       8.583   2.816  25.106  0.00  0.00    +0.266 C 
BRANCH  25  26
ATOM     26  O   UNL     1       7.346   3.509  24.917  0.00  0.00    -0.486 OA
BRANCH  26  27
ATOM     27  C   UNL     1       7.386   4.578  24.063  0.00  0.00    +0.139 A 
ATOM     28  C   UNL     1       8.275   5.598  24.396  0.00  0.00    +0.049 A 
ATOM     29  C   UNL     1       8.384   6.724  23.580  0.00  0.00    +0.023 A 
ATOM     30  C   UNL     1       7.593   6.794  22.445  0.00  0.00    +0.111 A 
ATOM     31  N   UNL     1       6.723   5.828  22.084  0.00  0.00    -0.260 NA
ATOM     32  C   UNL     1       6.638   4.748  22.901  0.00  0.00    +0.156 A 
ENDBRANCH  26  27
ENDBRANCH  25  26
ENDBRANCH  20  25
ENDBRANCH   2  18
TORSDOF 6
ENDMDL
MODEL 5
REMARK VINA RESULT:      -7.5      3.339      8.860
REMARK  Name = 
REMARK  6 active torsions:
REMARK  status: ('A' for Active; 'I' for Inactive)
REMARK    1  A    between atoms: C_5  and  N_28
REMARK    2  A    between atoms: C_8  and  C_10
REMARK    3  A    between atoms: N_12  and  C_13
REMARK    4  A    between atoms: C_18  and  C_19
REMARK    5  A    between atoms: C_19  and  O_20
REMARK    6  A    between atoms: O_20  and  C_21
REMARK                            x       y       z     vdW  Elec       q    Type
REMARK                         _______ _______ _______ _____ _____    ______ ____
ROOT
ATOM      1  C   UNL     1       9.617   2.238  24.428  0.00  0.00    +0.244 C 
ATOM      2  N   UNL     1       8.758   1.513  25.230  0.00  0.00    -0.282 N 
ATOM      3  H   UNL     1       8.189   2.020  25.891  0.00  0.00    +0.155 HD
ATOM      4  O   UNL     1      10.474   1.758  23.690  0.00  0.00    -0.270 OA
ENDROOT
BRANCH   1   8
ATOM      5  C   UNL     1      10.304   5.913  23.533  0.00  0.00    +0.191 C 
ATOM      6  F   UNL     1      11.408   6.481  24.098  0.00  0.00    -0.241 F 
ATOM      7  C   UNL     1      10.356   4.438  23.753  0.00  0.00    +0.018 C 
ATOM      8  C   UNL     1       9.460   3.735  24.469  0.00  0.00    +0.015 C 
ATOM      9  C   UNL     1       8.315   4.431  25.135  0.00  0.00    +0.059 C 
ATOM     10  C   UNL     1       7.861   5.747  24.440  0.00  0.00    +0.064 C 
ATOM     11  C   UNL     1       9.077   6.635  24.088  0.00  0.00    +0.060 C 
BRANCH  10  12
ATOM     12  N   UNL     1       6.842   5.712  23.372  0.00  0.00    -0.295 NA
ATOM     13  C   UNL     1       5.466   5.399  23.798  0.00  0.00    +0.113 C 
ATOM     14  C   UNL     1       5.112   3.902  23.776  0.00  0.00    +0.175 C 
ATOM     15  O   UNL     1       5.422   3.293  22.519  0.00  0.00    -0.377 OA
ATOM     16  C   UNL     1       6.778   3.527  22.119  0.00  0.00    +0.175 C 
ATOM     17  C   UNL     1       7.123   5.021  22.110  0.00  0.00    +0.113 C 
ENDBRANCH  10  12
ENDBRANCH   1   8
BRANCH   2  18
ATOM     18  C   UNL     1       8.645   0.096  25.262  0.00  0.00    +0.034 A 
ATOM     19  C   UNL     1       8.657  -0.603  24.040  0.00  0.00    +0.031 A 
ATOM     20  C   UNL     1       8.611  -2.017  23.993  0.00  0.00    +0.010 A 
ATOM     21  C   UNL     1       8.512  -2.724  25.199  0.00  0.00    +0.047 A 
ATOM     22 CL   UNL     1       8.463  -4.451  25.256  0.00  0.00    -0.083 Cl
ATOM     23  C   UNL     1       8.484  -2.039  26.412  0.00  0.00    +0.022 A 
ATOM     24  C   UNL     1       8.557  -0.648  26.443  0.00  0.00    +0.025 A 
BRANCH  20  25
ATOM     25  C   UNL     1       8.698  -2.723  22.660  0.00  0.00    +0.266 C 
BRANCH  25  26
ATOM     26  O   UNL     1       7.456  -2.622  21.957  0.00  0.00    -0.486 OA
BRANCH  26  27
ATOM     27  C   UNL     1       6.554  -3.624  22.194  0.00  0.00    +0.139 A 
ATOM     28  C   UNL     1       6.998  -4.922  21.950  0.00  0.00    +0.049 A 
ATOM     29  C   UNL     1       6.146  -6.005  22.168  0.00  0.00    +0.023 A 
ATOM     30  C   UNL     1       4.864  -5.751  22.630  0.00  0.00    +0.111 A 
ATOM     31  N   UNL     1       4.396  -4.512  22.883  0.00  0.00    -0.260 NA
ATOM     32  C   UNL     1       5.248  -3.481  22.657  0.00  0.00    +0.156 A 
ENDBRANCH  26  27
ENDBRANCH  25  26
ENDBRANCH  20  25
ENDBRANCH   2  18
TORSDOF 6
ENDMDL
MODEL 6
REMARK VINA RESULT:      -7.3      1.957      3.115
REMARK  Name = 
REMARK  6 active torsions:
REMARK  status: ('A' for Active; 'I' for Inactive)
REMARK    1  A    between atoms: C_5  and  N_28
REMARK    2  A    between atoms: C_8  and  C_10
REMARK    3  A    between atoms: N_12  and  C_13
REMARK    4  A    between atoms: C_18  and  C_19
REMARK    5  A    between atoms: C_19  and  O_20
REMARK    6  A    between atoms: O_20  and  C_21
REMARK                            x       y       z     vdW  Elec       q    Type
REMARK                         _______ _______ _______ _____ _____    ______ ____
ROOT
ATOM      1  C   UNL     1       7.994  -1.940  22.708  0.00  0.00    +0.244 C 
ATOM      2  N   UNL     1       7.778  -0.826  23.495  0.00  0.00    -0.282 N 
ATOM      3  H   UNL     1       6.968  -0.823  24.097  0.00  0.00    +0.155 HD
ATOM      4  O   UNL     1       8.840  -2.029  21.821  0.00  0.00    -0.270 OA
ENDROOT
BRANCH   1   8
ATOM      5  C   UNL     1       7.023  -5.646  23.020  0.00  0.00    +0.191 C 
ATOM      6  F   UNL     1       6.745  -6.303  21.857  0.00  0.00    -0.241 F 
ATOM      7  C   UNL     1       7.650  -4.332  22.692  0.00  0.00    +0.018 C 
ATOM      8  C   UNL     1       7.119  -3.132  22.989  0.00  0.00    +0.015 C 
ATOM      9  C   UNL     1       5.794  -3.044  23.679  0.00  0.00    +0.059 C 
ATOM     10  C   UNL     1       5.447  -4.266  24.578  0.00  0.00    +0.064 C 
ATOM     11  C   UNL     1       5.737  -5.594  23.842  0.00  0.00    +0.060 C 
BRANCH  10  12
ATOM     12  N   UNL     1       5.859  -4.289  25.995  0.00  0.00    -0.295 NA
ATOM     13  C   UNL     1       6.460  -3.047  26.516  0.00  0.00    +0.113 C 
ATOM     14  C   UNL     1       7.991  -2.968  26.380  0.00  0.00    +0.175 C 
ATOM     15  O   UNL     1       8.639  -4.126  26.913  0.00  0.00    -0.377 OA
ATOM     16  C   UNL     1       8.118  -5.344  26.365  0.00  0.00    +0.175 C 
ATOM     17  C   UNL     1       6.596  -5.438  26.529  0.00  0.00    +0.113 C 
ENDBRANCH  10  12
ENDBRANCH   1   8
BRANCH   2  18
ATOM     18  C   UNL     1       8.559   0.363  23.489  0.00  0.00    +0.034 A 
ATOM     19  C   UNL     1       7.973   1.544  22.995  0.00  0.00    +0.031 A 
ATOM     20  C   UNL     1       8.666   2.779  23.014  0.00  0.00    +0.010 A 
ATOM     21  C   UNL     1       9.978   2.804  23.505  0.00  0.00    +0.047 A 
ATOM     22 CL   UNL     1      10.907   4.260  23.586  0.00  0.00    -0.083 Cl
ATOM     23  C   UNL     1      10.570   1.636  23.980  0.00  0.00    +0.022 A 
ATOM     24  C   UNL     1       9.866   0.433  23.980  0.00  0.00    +0.025 A 
BRANCH  20  25
ATOM     25  C   UNL     1       7.968   4.033  22.538  0.00  0.00    +0.266 C 
BRANCH  25  26
ATOM     26  O   UNL     1       7.029   4.487  23.515  0.00  0.00    -0.486 OA
BRANCH  26  27
ATOM     27  C   UNL     1       7.560   5.137  24.596  0.00  0.00    +0.139 A 
ATOM     28  C   UNL     1       8.151   6.373  24.341  0.00  0.00    +0.049 A 
ATOM     29  C   UNL     1       8.715   7.107  25.384  0.00  0.00    +0.023 A 
ATOM     30  C   UNL     1       8.667   6.577  26.663  0.00  0.00    +0.111 A 
ATOM     31  N   UNL     1       8.103   5.387  26.955  0.00  0.00    -0.260 NA
ATOM     32  C   UNL     1       7.567   4.697  25.917  0.00  0.00    +0.156 A 
ENDBRANCH  26  27
ENDBRANCH  25  26
ENDBRANCH  20  25
ENDBRANCH   2  18
TORSDOF 6
ENDMDL
MODEL 7
REMARK VINA RESULT:      -7.2      2.785      4.000
REMARK  Name = 
REMARK  6 active torsions:
REMARK  status: ('A' for Active; 'I' for Inactive)
REMARK    1  A    between atoms: C_5  and  N_28
REMARK    2  A    between atoms: C_8  and  C_10
REMARK    3  A    between atoms: N_12  and  C_13
REMARK    4  A    between atoms: C_18  and  C_19
REMARK    5  A    between atoms: C_19  and  O_20
REMARK    6  A    between atoms: O_20  and  C_21
REMARK                            x       y       z     vdW  Elec       q    Type
REMARK                         _______ _______ _______ _____ _____    ______ ____
ROOT
ATOM      1  C   UNL     1       7.826  -2.327  23.114  0.00  0.00    +0.244 C 
ATOM      2  N   UNL     1       7.554  -1.102  22.538  0.00  0.00    -0.282 N 
ATOM      3  H   UNL     1       6.763  -1.039  21.914  0.00  0.00    +0.155 HD
ATOM      4  O   UNL     1       8.832  -2.596  23.767  0.00  0.00    -0.270 OA
ENDROOT
BRANCH   1   8
ATOM      5  C   UNL     1       6.414  -5.825  22.374  0.00  0.00    +0.191 C 
ATOM      6  F   UNL     1       6.364  -6.196  21.062  0.00  0.00    -0.241 F 
ATOM      7  C   UNL     1       7.240  -4.588  22.492  0.00  0.00    +0.018 C 
ATOM      8  C   UNL     1       6.785  -3.398  22.924  0.00  0.00    +0.015 C 
ATOM      9  C   UNL     1       5.348  -3.234  23.307  0.00  0.00    +0.059 C 
ATOM     10  C   UNL     1       4.659  -4.535  23.814  0.00  0.00    +0.064 C 
ATOM     11  C   UNL     1       4.977  -5.728  22.883  0.00  0.00    +0.060 C 
BRANCH  10  12
ATOM     12  N   UNL     1       4.702  -4.892  25.246  0.00  0.00    -0.295 NA
ATOM     13  C   UNL     1       4.709  -3.764  26.195  0.00  0.00    +0.113 C 
ATOM     14  C   UNL     1       6.110  -3.260  26.584  0.00  0.00    +0.175 C 
ATOM     15  O   UNL     1       6.961  -4.321  27.026  0.00  0.00    -0.377 OA
ATOM     16  C   UNL     1       7.025  -5.398  26.083  0.00  0.00    +0.175 C 
ATOM     17  C   UNL     1       5.630  -5.923  25.719  0.00  0.00    +0.113 C 
ENDBRANCH  10  12
ENDBRANCH   1   8
BRANCH   2  18
ATOM     18  C   UNL     1       8.330   0.081  22.688  0.00  0.00    +0.034 A 
ATOM     19  C   UNL     1       7.979   0.984  23.709  0.00  0.00    +0.031 A 
ATOM     20  C   UNL     1       8.740   2.151  23.960  0.00  0.00    +0.010 A 
ATOM     21  C   UNL     1       9.844   2.420  23.140  0.00  0.00    +0.047 A 
ATOM     22 CL   UNL     1      10.849   3.809  23.369  0.00  0.00    -0.083 Cl
ATOM     23  C   UNL     1      10.189   1.539  22.118  0.00  0.00    +0.022 A 
ATOM     24  C   UNL     1       9.446   0.380  21.901  0.00  0.00    +0.025 A 
BRANCH  20  25
ATOM     25  C   UNL     1       8.364   3.054  25.113  0.00  0.00    +0.266 C 
BRANCH  25  26
ATOM     26  O   UNL     1       7.059   2.728  25.600  0.00  0.00    -0.486 OA
BRANCH  26  27
ATOM     27  C   UNL     1       6.973   2.455  26.938  0.00  0.00    +0.139 A 
ATOM     28  C   UNL     1       6.865   3.557  27.785  0.00  0.00    +0.049 A 
ATOM     29  C   UNL     1       6.769   3.372  29.164  0.00  0.00    +0.023 A 
ATOM     30  C   UNL     1       6.782   2.077  29.657  0.00  0.00    +0.111 A 
ATOM     31  N   UNL     1       6.881   0.983  28.874  0.00  0.00    -0.260 NA
ATOM     32  C   UNL     1       6.977   1.198  27.538  0.00  0.00    +0.156 A 
ENDBRANCH  26  27
ENDBRANCH  25  26
ENDBRANCH  20  25
ENDBRANCH   2  18
TORSDOF 6
ENDMDL
MODEL 8
REMARK VINA RESULT:      -7.2      3.823      8.476
REMARK  Name = 
REMARK  6 active torsions:
REMARK  status: ('A' for Active; 'I' for Inactive)
REMARK    1  A    between atoms: C_5  and  N_28
REMARK    2  A    between atoms: C_8  and  C_10
REMARK    3  A    between atoms: N_12  and  C_13
REMARK    4  A    between atoms: C_18  and  C_19
REMARK    5  A    between atoms: C_19  and  O_20
REMARK    6  A    between atoms: O_20  and  C_21
REMARK                            x       y       z     vdW  Elec       q    Type
REMARK                         _______ _______ _______ _____ _____    ______ ____
ROOT
ATOM      1  C   UNL     1       6.042   0.869  24.537  0.00  0.00    +0.244 C 
ATOM      2  N   UNL     1       6.325  -0.377  25.063  0.00  0.00    -0.282 N 
ATOM      3  H   UNL     1       7.242  -0.763  24.893  0.00  0.00    +0.155 HD
ATOM      4  O   UNL     1       4.933   1.399  24.528  0.00  0.00    -0.270 OA
ENDROOT
BRANCH   1   8
ATOM      5  C   UNL     1       9.264   2.964  24.476  0.00  0.00    +0.191 C 
ATOM      6  F   UNL     1       9.127   4.299  24.720  0.00  0.00    -0.241 F 
ATOM      7  C   UNL     1       7.985   2.278  24.821  0.00  0.00    +0.018 C 
ATOM      8  C   UNL     1       7.204   1.620  23.945  0.00  0.00    +0.015 C 
ATOM      9  C   UNL     1       7.584   1.555  22.499  0.00  0.00    +0.059 C 
ATOM     10  C   UNL     1       9.113   1.652  22.224  0.00  0.00    +0.064 C 
ATOM     11  C   UNL     1       9.749   2.803  23.037  0.00  0.00    +0.060 C 
BRANCH  10  12
ATOM     12  N   UNL     1       9.945   0.432  22.200  0.00  0.00    -0.295 NA
ATOM     13  C   UNL     1       9.376  -0.727  21.489  0.00  0.00    +0.113 C 
ATOM     14  C   UNL     1       8.539  -1.672  22.368  0.00  0.00    +0.175 C 
ATOM     15  O   UNL     1       9.242  -2.076  23.547  0.00  0.00    -0.377 OA
ATOM     16  C   UNL     1       9.743  -0.958  24.292  0.00  0.00    +0.175 C 
ATOM     17  C   UNL     1      10.604  -0.032  23.424  0.00  0.00    +0.113 C 
ENDBRANCH  10  12
ENDBRANCH   1   8
BRANCH   2  18
ATOM     18  C   UNL     1       5.417  -1.207  25.775  0.00  0.00    +0.034 A 
ATOM     19  C   UNL     1       4.885  -2.333  25.117  0.00  0.00    +0.031 A 
ATOM     20  C   UNL     1       4.024  -3.241  25.778  0.00  0.00    +0.010 A 
ATOM     21  C   UNL     1       3.669  -2.979  27.109  0.00  0.00    +0.047 A 
ATOM     22 CL   UNL     1       2.636  -4.030  28.013  0.00  0.00    -0.083 Cl
ATOM     23  C   UNL     1       4.178  -1.859  27.762  0.00  0.00    +0.022 A 
ATOM     24  C   UNL     1       5.047  -0.989  27.105  0.00  0.00    +0.025 A 
BRANCH  20  25
ATOM     25  C   UNL     1       3.536  -4.472  25.050  0.00  0.00    +0.266 C 
BRANCH  25  26
ATOM     26  O   UNL     1       4.559  -5.470  25.010  0.00  0.00    -0.486 OA
BRANCH  26  27
ATOM     27  C   UNL     1       5.310  -5.508  23.866  0.00  0.00    +0.139 A 
ATOM     28  C   UNL     1       6.683  -5.323  24.025  0.00  0.00    +0.049 A 
ATOM     29  C   UNL     1       7.525  -5.350  22.914  0.00  0.00    +0.023 A 
ATOM     30  C   UNL     1       6.962  -5.566  21.666  0.00  0.00    +0.111 A 
ATOM     31  N   UNL     1       5.641  -5.754  21.468  0.00  0.00    -0.260 NA
ATOM     32  C   UNL     1       4.849  -5.717  22.569  0.00  0.00    +0.156 A 
ENDBRANCH  26  27
ENDBRANCH  25  26
ENDBRANCH  20  25
ENDBRANCH   2  18
TORSDOF 6
ENDMDL
MODEL 9
REMARK VINA RESULT:      -7.1      2.771      3.879
REMARK  Name = 
REMARK  6 active torsions:
REMARK  status: ('A' for Active; 'I' for Inactive)
REMARK    1  A    between atoms: C_5  and  N_28
REMARK    2  A    between atoms: C_8  and  C_10
REMARK    3  A    between atoms: N_12  and  C_13
REMARK    4  A    between atoms: C_18  and  C_19
REMARK    5  A    between atoms: C_19  and  O_20
REMARK    6  A    between atoms: O_20  and  C_21
REMARK                            x       y       z     vdW  Elec       q    Type
REMARK                         _______ _______ _______ _____ _____    ______ ____
ROOT
ATOM      1  C   UNL     1       7.910  -1.777  22.686  0.00  0.00    +0.244 C 
ATOM      2  N   UNL     1       7.597  -0.698  23.489  0.00  0.00    -0.282 N 
ATOM      3  H   UNL     1       6.776  -0.766  24.072  0.00  0.00    +0.155 HD
ATOM      4  O   UNL     1       8.780  -1.786  21.818  0.00  0.00    -0.270 OA
ENDROOT
BRANCH   1   8
ATOM      5  C   UNL     1       7.190  -5.549  22.866  0.00  0.00    +0.191 C 
ATOM      6  F   UNL     1       6.957  -6.181  21.680  0.00  0.00    -0.241 F 
ATOM      7  C   UNL     1       7.727  -4.185  22.586  0.00  0.00    +0.018 C 
ATOM      8  C   UNL     1       7.116  -3.034  22.922  0.00  0.00    +0.015 C 
ATOM      9  C   UNL     1       5.788  -3.059  23.611  0.00  0.00    +0.059 C 
ATOM     10  C   UNL     1       5.523  -4.332  24.466  0.00  0.00    +0.064 C 
ATOM     11  C   UNL     1       5.902  -5.612  23.685  0.00  0.00    +0.060 C 
BRANCH  10  12
ATOM     12  N   UNL     1       5.936  -4.377  25.883  0.00  0.00    -0.295 NA
ATOM     13  C   UNL     1       6.410  -3.107  26.461  0.00  0.00    +0.113 C 
ATOM     14  C   UNL     1       7.925  -2.870  26.336  0.00  0.00    +0.175 C 
ATOM     15  O   UNL     1       8.685  -3.980  26.820  0.00  0.00    -0.377 OA
ATOM     16  C   UNL     1       8.287  -5.218  26.216  0.00  0.00    +0.175 C 
ATOM     17  C   UNL     1       6.782  -5.470  26.369  0.00  0.00    +0.113 C 
ENDBRANCH  10  12
ENDBRANCH   1   8
BRANCH   2  18
ATOM     18  C   UNL     1       8.291   0.543  23.525  0.00  0.00    +0.034 A 
ATOM     19  C   UNL     1       7.657   1.678  22.984  0.00  0.00    +0.031 A 
ATOM     20  C   UNL     1       8.258   2.959  23.039  0.00  0.00    +0.010 A 
ATOM     21  C   UNL     1       9.530   3.079  23.615  0.00  0.00    +0.047 A 
ATOM     22 CL   UNL     1      10.346   4.597  23.745  0.00  0.00    -0.083 Cl
ATOM     23  C   UNL     1      10.169   1.958  24.139  0.00  0.00    +0.022 A 
ATOM     24  C   UNL     1       9.554   0.708  24.101  0.00  0.00    +0.025 A 
BRANCH  20  25
ATOM     25  C   UNL     1       7.507   4.158  22.507  0.00  0.00    +0.266 C 
BRANCH  25  26
ATOM     26  O   UNL     1       6.494   4.566  23.430  0.00  0.00    -0.486 OA
BRANCH  26  27
ATOM     27  C   UNL     1       5.241   4.734  22.904  0.00  0.00    +0.139 A 
ATOM     28  C   UNL     1       4.533   3.569  22.615  0.00  0.00    +0.049 A 
ATOM     29  C   UNL     1       3.248   3.647  22.080  0.00  0.00    +0.023 A 
ATOM     30  C   UNL     1       2.705   4.900  21.851  0.00  0.00    +0.111 A 
ATOM     31  N   UNL     1       3.352   6.053  22.119  0.00  0.00    -0.260 NA
ATOM     32  C   UNL     1       4.603   5.942  22.635  0.00  0.00    +0.156 A 
ENDBRANCH  26  27
ENDBRANCH  25  26
ENDBRANCH  20  25
ENDBRANCH   2  18
TORSDOF 6
ENDMDL
