MODEL 1
REMARK VINA RESULT:      -7.6      0.000      0.000
REMARK  Name = 
REMARK  6 active torsions:
REMARK  status: ('A' for Active; 'I' for Inactive)
REMARK    1  A    between atoms: C_2  and  C_3
REMARK    2  A    between atoms: C_2  and  N_4
REMARK    3  A    between atoms: C_2  and  C_25
REMARK    4  A    between atoms: C_7  and  N_9
REMARK    5  A    between atoms: N_9  and  S_10
REMARK    6  A    between atoms: S_10  and  C_13
REMARK                            x       y       z     vdW  Elec       q    Type
REMARK                         _______ _______ _______ _____ _____    ______ ____
ROOT
ATOM      1  N   UNL     1       8.680  -3.045  25.407  0.00  0.00    -0.289 N 
ATOM      2  C   UNL     1       8.729  -1.903  24.617  0.00  0.00    +0.235 C 
ATOM      3  O   UNL     1       9.201  -1.823  23.495  0.00  0.00    -0.274 OA
ATOM      4  C   UNL     1       8.070  -0.754  25.383  0.00  0.00    +0.164 C 
ATOM      5  C   UNL     1       7.366  -1.479  26.528  0.00  0.00    +0.049 C 
ATOM      6  C   UNL     1       8.112  -2.781  26.699  0.00  0.00    +0.110 C 
ENDROOT
BRANCH   1   7
ATOM      7  C   UNL     1       8.823  -4.415  24.886  0.00  0.00    +0.159 C 
ATOM      8  C   UNL     1       9.985  -5.156  25.547  0.00  0.00    +0.038 C 
BRANCH   7   9
ATOM      9  C   UNL     1       7.506  -5.225  24.951  0.00  0.00    +0.236 C 
ATOM     10  N   UNL     1       6.709  -5.251  23.814  0.00  0.00    -0.296 N 
ATOM     11  C   UNL     1       6.940  -4.517  22.570  0.00  0.00    +0.136 C 
ATOM     12  C   UNL     1       5.802  -3.521  22.345  0.00  0.00    +0.179 C 
ATOM     13  O   UNL     1       4.539  -4.207  22.307  0.00  0.00    -0.377 OA
ATOM     14  C   UNL     1       4.296  -4.896  23.549  0.00  0.00    +0.179 C 
ATOM     15  C   UNL     1       5.405  -5.907  23.858  0.00  0.00    +0.136 C 
ATOM     16  O   UNL     1       7.211  -5.875  25.958  0.00  0.00    -0.274 OA
ENDBRANCH   7   9
ENDBRANCH   1   7
BRANCH   4  17
ATOM     17  N   UNL     1       7.109  -0.102  24.477  0.00  0.00    -0.178 NA
ATOM     18  H   UNL     1       6.346  -0.690  24.139  0.00  0.00    +0.149 HD
BRANCH  17  19
ATOM     19  S   UNL     1       6.612   1.464  24.767  0.00  0.00    +0.065 S 
ATOM     20  O   UNL     1       6.364   1.609  26.185  0.00  0.00    -0.153 OA
ATOM     21  O   UNL     1       5.604   1.758  23.776  0.00  0.00    -0.153 OA
BRANCH  19  22
ATOM     22  C   UNL     1       7.969   2.529  24.398  0.00  0.00    +0.144 A 
ATOM     23  S   UNL     1       7.743   4.167  24.804  0.00  0.00    -0.069 S 
ATOM     24  C   UNL     1       9.331   4.589  24.302  0.00  0.00    +0.021 A 
ATOM     25  C   UNL     1       9.925   5.861  24.385  0.00  0.00    +0.017 A 
ATOM     26  C   UNL     1      11.236   6.019  23.933  0.00  0.00    +0.021 A 
ATOM     27  C   UNL     1      11.930   4.942  23.403  0.00  0.00    +0.042 A 
ATOM     28  C   UNL     1      11.335   3.679  23.313  0.00  0.00    +0.029 A 
ATOM     29 CL   UNL     1      13.550   5.155  22.861  0.00  0.00    -0.084 Cl
ATOM     30  C   UNL     1      10.013   3.489  23.776  0.00  0.00    -0.008 A 
ATOM     31  C   UNL     1       9.202   2.308  23.821  0.00  0.00    +0.045 A 
ENDBRANCH  19  22
ENDBRANCH  17  19
ENDBRANCH   4  17
TORSDOF 5
ENDMDL
MODEL 2
REMARK VINA RESULT:      -7.5      3.808      5.678
REMARK  Name = 
REMARK  6 active torsions:
REMARK  status: ('A' for Active; 'I' for Inactive)
REMARK    1  A    between atoms: C_2  and  C_3
REMARK    2  A    between atoms: C_2  and  N_4
REMARK    3  A    between atoms: C_2  and  C_25
REMARK    4  A    between atoms: C_7  and  N_9
REMARK    5  A    between atoms: N_9  and  S_10
REMARK    6  A    between atoms: S_10  and  C_13
REMARK                            x       y       z     vdW  Elec       q    Type
REMARK                         _______ _______ _______ _____ _____    ______ ____
ROOT
ATOM      1  N   UNL     1       4.632  -5.138  23.439  0.00  0.00    -0.289 N 
ATOM      2  C   UNL     1       5.615  -4.482  24.167  0.00  0.00    +0.235 C 
ATOM      3  O   UNL     1       5.449  -3.857  25.202  0.00  0.00    -0.274 OA
ATOM      4  C   UNL     1       6.959  -4.686  23.465  0.00  0.00    +0.164 C 
ATOM      5  C   UNL     1       6.645  -5.799  22.467  0.00  0.00    +0.049 C 
ATOM      6  C   UNL     1       5.155  -5.725  22.237  0.00  0.00    +0.110 C 
ENDROOT
BRANCH   1   7
ATOM      7  C   UNL     1       3.320  -5.525  23.986  0.00  0.00    +0.159 C 
ATOM      8  C   UNL     1       2.395  -6.082  22.904  0.00  0.00    +0.038 C 
BRANCH   7   9
ATOM      9  C   UNL     1       3.431  -6.477  25.200  0.00  0.00    +0.236 C 
ATOM     10  N   UNL     1       2.867  -6.060  26.400  0.00  0.00    -0.296 N 
ATOM     11  C   UNL     1       2.243  -4.765  26.666  0.00  0.00    +0.136 C 
ATOM     12  C   UNL     1       3.046  -4.021  27.733  0.00  0.00    +0.179 C 
ATOM     13  O   UNL     1       3.126  -4.807  28.935  0.00  0.00    -0.377 OA
ATOM     14  C   UNL     1       3.776  -6.066  28.678  0.00  0.00    +0.179 C 
ATOM     15  C   UNL     1       3.040  -6.871  27.602  0.00  0.00    +0.136 C 
ATOM     16  O   UNL     1       3.946  -7.593  25.087  0.00  0.00    -0.274 OA
ENDBRANCH   7   9
ENDBRANCH   1   7
BRANCH   4  17
ATOM     17  N   UNL     1       7.935  -5.120  24.478  0.00  0.00    -0.178 NA
ATOM     18  H   UNL     1       8.338  -6.048  24.339  0.00  0.00    +0.149 HD
BRANCH  17  19
ATOM     19  S   UNL     1       9.049  -4.039  25.088  0.00  0.00    +0.065 S 
ATOM     20  O   UNL     1      10.373  -4.488  24.717  0.00  0.00    -0.153 OA
ATOM     21  O   UNL     1       8.673  -3.804  26.463  0.00  0.00    -0.153 OA
BRANCH  19  22
ATOM     22  C   UNL     1       8.806  -2.500  24.259  0.00  0.00    +0.144 A 
ATOM     23  S   UNL     1       9.944  -2.136  23.047  0.00  0.00    -0.069 S 
ATOM     24  C   UNL     1       9.143  -0.675  22.628  0.00  0.00    +0.021 A 
ATOM     25  C   UNL     1       9.506   0.214  21.600  0.00  0.00    +0.017 A 
ATOM     26  C   UNL     1       8.729   1.356  21.396  0.00  0.00    +0.021 A 
ATOM     27  C   UNL     1       7.631   1.610  22.204  0.00  0.00    +0.042 A 
ATOM     28  C   UNL     1       7.276   0.730  23.232  0.00  0.00    +0.029 A 
ATOM     29 CL   UNL     1       6.679   3.018  21.929  0.00  0.00    -0.084 Cl
ATOM     30  C   UNL     1       8.037  -0.441  23.450  0.00  0.00    -0.008 A 
ATOM     31  C   UNL     1       7.868  -1.499  24.402  0.00  0.00    +0.045 A 
ENDBRANCH  19  22
ENDBRANCH  17  19
ENDBRANCH   4  17
TORSDOF 5
ENDMDL
MODEL 3
REMARK VINA RESULT:      -7.5      2.478      4.378
REMARK  Name = 
REMARK  6 active torsions:
REMARK  status: ('A' for Active; 'I' for Inactive)
REMARK    1  A    between atoms: C_2  and  C_3
REMARK    2  A    between atoms: C_2  and  N_4
REMARK    3  A    between atoms: C_2  and  C_25
REMARK    4  A    between atoms: C_7  and  N_9
REMARK    5  A    between atoms: N_9  and  S_10
REMARK    6  A    between atoms: S_10  and  C_13
REMARK                            x       y       z     vdW  Elec       q    Type
REMARK                         _______ _______ _______ _____ _____    ______ ____
ROOT
ATOM      1  N   UNL     1       4.985  -4.745  23.060  0.00  0.00    -0.289 N 
ATOM      2  C   UNL     1       5.487  -3.456  23.181  0.00  0.00    +0.235 C 
ATOM      3  O   UNL     1       4.936  -2.517  23.732  0.00  0.00    -0.274 OA
ATOM      4  C   UNL     1       6.867  -3.408  22.523  0.00  0.00    +0.164 C 
ATOM      5  C   UNL     1       7.194  -4.888  22.329  0.00  0.00    +0.049 C 
ATOM      6  C   UNL     1       5.860  -5.594  22.301  0.00  0.00    +0.110 C 
ENDROOT
BRANCH   1   7
ATOM      7  C   UNL     1       3.907  -5.293  23.900  0.00  0.00    +0.159 C 
ATOM      8  C   UNL     1       2.789  -5.911  23.061  0.00  0.00    +0.038 C 
BRANCH   7   9
ATOM      9  C   UNL     1       4.426  -6.269  24.984  0.00  0.00    +0.236 C 
ATOM     10  N   UNL     1       4.661  -5.756  26.253  0.00  0.00    -0.296 N 
ATOM     11  C   UNL     1       4.550  -4.357  26.662  0.00  0.00    +0.136 C 
ATOM     12  C   UNL     1       5.923  -3.840  27.095  0.00  0.00    +0.179 C 
ATOM     13  O   UNL     1       6.444  -4.647  28.166  0.00  0.00    -0.377 OA
ATOM     14  C   UNL     1       6.589  -6.018  27.747  0.00  0.00    +0.179 C 
ATOM     15  C   UNL     1       5.255  -6.608  27.280  0.00  0.00    +0.136 C 
ATOM     16  O   UNL     1       4.562  -7.471  24.742  0.00  0.00    -0.274 OA
ENDBRANCH   7   9
ENDBRANCH   1   7
BRANCH   4  17
ATOM     17  N   UNL     1       7.795  -2.763  23.467  0.00  0.00    -0.178 NA
ATOM     18  H   UNL     1       7.883  -3.211  24.381  0.00  0.00    +0.149 HD
BRANCH  17  19
ATOM     19  S   UNL     1       9.249  -2.149  22.928  0.00  0.00    +0.065 S 
ATOM     20  O   UNL     1       9.288  -2.267  21.486  0.00  0.00    -0.153 OA
ATOM     21  O   UNL     1      10.268  -2.721  23.775  0.00  0.00    -0.153 OA
BRANCH  19  22
ATOM     22  C   UNL     1       9.257  -0.419  23.275  0.00  0.00    +0.144 A 
ATOM     23  S   UNL     1       7.995   0.131  24.276  0.00  0.00    -0.069 S 
ATOM     24  C   UNL     1       8.596   1.741  24.277  0.00  0.00    +0.021 A 
ATOM     25  C   UNL     1       8.060   2.834  24.981  0.00  0.00    +0.017 A 
ATOM     26  C   UNL     1       8.689   4.076  24.870  0.00  0.00    +0.021 A 
ATOM     27  C   UNL     1       9.813   4.224  24.071  0.00  0.00    +0.042 A 
ATOM     28  C   UNL     1      10.340   3.138  23.365  0.00  0.00    +0.029 A 
ATOM     29 CL   UNL     1      10.580   5.761  23.957  0.00  0.00    -0.084 Cl
ATOM     30  C   UNL     1       9.731   1.866  23.471  0.00  0.00    -0.008 A 
ATOM     31  C   UNL     1      10.088   0.610  22.881  0.00  0.00    +0.045 A 
ENDBRANCH  19  22
ENDBRANCH  17  19
ENDBRANCH   4  17
TORSDOF 5
ENDMDL
MODEL 4
REMARK VINA RESULT:      -7.5      3.372      5.030
REMARK  Name = 
REMARK  6 active torsions:
REMARK  status: ('A' for Active; 'I' for Inactive)
REMARK    1  A    between atoms: C_2  and  C_3
REMARK    2  A    between atoms: C_2  and  N_4
REMARK    3  A    between atoms: C_2  and  C_25
REMARK    4  A    between atoms: C_7  and  N_9
REMARK    5  A    between atoms: N_9  and  S_10
REMARK    6  A    between atoms: S_10  and  C_13
REMARK                            x       y       z     vdW  Elec       q    Type
REMARK                         _______ _______ _______ _____ _____    ______ ____
ROOT
ATOM      1  N   UNL     1       4.505  -5.261  27.443  0.00  0.00    -0.289 N 
ATOM      2  C   UNL     1       5.809  -5.315  26.967  0.00  0.00    +0.235 C 
ATOM      3  O   UNL     1       6.492  -6.319  26.851  0.00  0.00    -0.274 OA
ATOM      4  C   UNL     1       6.247  -3.899  26.588  0.00  0.00    +0.164 C 
ATOM      5  C   UNL     1       4.927  -3.129  26.599  0.00  0.00    +0.049 C 
ATOM      6  C   UNL     1       4.011  -3.914  27.507  0.00  0.00    +0.110 C 
ENDROOT
BRANCH   1   7
ATOM      7  C   UNL     1       3.604  -6.423  27.512  0.00  0.00    +0.159 C 
ATOM      8  C   UNL     1       3.243  -6.778  28.954  0.00  0.00    +0.038 C 
BRANCH   7   9
ATOM      9  C   UNL     1       2.347  -6.265  26.622  0.00  0.00    +0.236 C 
ATOM     10  N   UNL     1       2.459  -6.617  25.283  0.00  0.00    -0.296 N 
ATOM     11  C   UNL     1       3.674  -7.047  24.592  0.00  0.00    +0.136 C 
ATOM     12  C   UNL     1       4.032  -6.032  23.506  0.00  0.00    +0.179 C 
ATOM     13  O   UNL     1       2.941  -5.887  22.580  0.00  0.00    -0.377 OA
ATOM     14  C   UNL     1       1.756  -5.425  23.257  0.00  0.00    +0.179 C 
ATOM     15  C   UNL     1       1.337  -6.382  24.377  0.00  0.00    +0.136 C 
ATOM     16  O   UNL     1       1.271  -5.901  27.103  0.00  0.00    -0.274 OA
ENDBRANCH   7   9
ENDBRANCH   1   7
BRANCH   4  17
ATOM     17  N   UNL     1       6.835  -3.954  25.240  0.00  0.00    -0.178 NA
ATOM     18  H   UNL     1       6.376  -3.382  24.529  0.00  0.00    +0.149 HD
BRANCH  17  19
ATOM     19  S   UNL     1       8.492  -3.981  25.048  0.00  0.00    +0.065 S 
ATOM     20  O   UNL     1       8.819  -4.955  24.029  0.00  0.00    -0.153 OA
ATOM     21  O   UNL     1       9.052  -4.042  26.378  0.00  0.00    -0.153 OA
BRANCH  19  22
ATOM     22  C   UNL     1       8.978  -2.414  24.398  0.00  0.00    +0.144 A 
ATOM     23  S   UNL     1       8.704  -2.198  22.732  0.00  0.00    -0.069 S 
ATOM     24  C   UNL     1       9.274  -0.577  22.771  0.00  0.00    +0.021 A 
ATOM     25  C   UNL     1       9.310   0.324  21.692  0.00  0.00    +0.017 A 
ATOM     26  C   UNL     1       9.802   1.612  21.912  0.00  0.00    +0.021 A 
ATOM     27  C   UNL     1      10.256   1.985  23.168  0.00  0.00    +0.042 A 
ATOM     28  C   UNL     1      10.229   1.085  24.238  0.00  0.00    +0.029 A 
ATOM     29 CL   UNL     1      10.849   3.581  23.420  0.00  0.00    -0.084 Cl
ATOM     30  C   UNL     1       9.722  -0.221  24.046  0.00  0.00    -0.008 A 
ATOM     31  C   UNL     1       9.561  -1.304  24.972  0.00  0.00    +0.045 A 
ENDBRANCH  19  22
ENDBRANCH  17  19
ENDBRANCH   4  17
TORSDOF 5
ENDMDL
MODEL 5
REMARK VINA RESULT:      -7.5      2.552      2.989
REMARK  Name = 
REMARK  6 active torsions:
REMARK  status: ('A' for Active; 'I' for Inactive)
REMARK    1  A    between atoms: C_2  and  C_3
REMARK    2  A    between atoms: C_2  and  N_4
REMARK    3  A    between atoms: C_2  and  C_25
REMARK    4  A    between atoms: C_7  and  N_9
REMARK    5  A    between atoms: N_9  and  S_10
REMARK    6  A    between atoms: S_10  and  C_13
REMARK                            x       y       z     vdW  Elec       q    Type
REMARK                         _______ _______ _______ _____ _____    ______ ____
ROOT
ATOM      1  N   UNL     1       9.119  -3.005  24.945  0.00  0.00    -0.289 N 
ATOM      2  C   UNL     1       9.578  -2.144  23.957  0.00  0.00    +0.235 C 
ATOM      3  O   UNL     1      10.272  -2.449  23.001  0.00  0.00    -0.274 OA
ATOM      4  C   UNL     1       9.051  -0.739  24.253  0.00  0.00    +0.164 C 
ATOM      5  C   UNL     1       7.988  -1.001  25.318  0.00  0.00    +0.049 C 
ATOM      6  C   UNL     1       8.376  -2.312  25.960  0.00  0.00    +0.110 C 
ENDROOT
BRANCH   1   7
ATOM      7  C   UNL     1       9.057  -4.469  24.799  0.00  0.00    +0.159 C 
ATOM      8  C   UNL     1      10.012  -5.178  25.758  0.00  0.00    +0.038 C 
BRANCH   7   9
ATOM      9  C   UNL     1       7.615  -5.023  24.902  0.00  0.00    +0.236 C 
ATOM     10  N   UNL     1       6.849  -5.045  23.743  0.00  0.00    -0.296 N 
ATOM     11  C   UNL     1       7.233  -4.517  22.434  0.00  0.00    +0.136 C 
ATOM     12  C   UNL     1       6.295  -3.372  22.050  0.00  0.00    +0.179 C 
ATOM     13  O   UNL     1       4.931  -3.826  22.038  0.00  0.00    -0.377 OA
ATOM     14  C   UNL     1       4.544  -4.310  23.339  0.00  0.00    +0.179 C 
ATOM     15  C   UNL     1       5.449  -5.454  23.807  0.00  0.00    +0.136 C 
ATOM     16  O   UNL     1       7.188  -5.487  25.962  0.00  0.00    -0.274 OA
ENDBRANCH   7   9
ENDBRANCH   1   7
BRANCH   4  17
ATOM     17  N   UNL     1       8.461  -0.208  23.012  0.00  0.00    -0.178 NA
ATOM     18  H   UNL     1       7.443  -0.250  22.950  0.00  0.00    +0.149 HD
BRANCH  17  19
ATOM     19  S   UNL     1       9.075   1.180  22.319  0.00  0.00    +0.065 S 
ATOM     20  O   UNL     1       8.510   1.317  20.994  0.00  0.00    -0.153 OA
ATOM     21  O   UNL     1      10.500   1.149  22.548  0.00  0.00    -0.153 OA
BRANCH  19  22
ATOM     22  C   UNL     1       8.472   2.551  23.250  0.00  0.00    +0.144 A 
ATOM     23  S   UNL     1       7.280   3.491  22.479  0.00  0.00    -0.069 S 
ATOM     24  C   UNL     1       7.093   4.514  23.847  0.00  0.00    +0.021 A 
ATOM     25  C   UNL     1       6.183   5.578  23.978  0.00  0.00    +0.017 A 
ATOM     26  C   UNL     1       6.165   6.300  25.173  0.00  0.00    +0.021 A 
ATOM     27  C   UNL     1       7.039   5.978  26.201  0.00  0.00    +0.042 A 
ATOM     28  C   UNL     1       7.950   4.925  26.066  0.00  0.00    +0.029 A 
ATOM     29 CL   UNL     1       6.993   6.874  27.670  0.00  0.00    -0.084 Cl
ATOM     30  C   UNL     1       7.979   4.168  24.871  0.00  0.00    -0.008 A 
ATOM     31  C   UNL     1       8.784   3.042  24.501  0.00  0.00    +0.045 A 
ENDBRANCH  19  22
ENDBRANCH  17  19
ENDBRANCH   4  17
TORSDOF 5
ENDMDL
MODEL 6
REMARK VINA RESULT:      -7.4      1.730      2.659
REMARK  Name = 
REMARK  6 active torsions:
REMARK  status: ('A' for Active; 'I' for Inactive)
REMARK    1  A    between atoms: C_2  and  C_3
REMARK    2  A    between atoms: C_2  and  N_4
REMARK    3  A    between atoms: C_2  and  C_25
REMARK    4  A    between atoms: C_7  and  N_9
REMARK    5  A    between atoms: N_9  and  S_10
REMARK    6  A    between atoms: S_10  and  C_13
REMARK                            x       y       z     vdW  Elec       q    Type
REMARK                         _______ _______ _______ _____ _____    ______ ____
ROOT
ATOM      1  N   UNL     1       6.831  -3.268  23.020  0.00  0.00    -0.289 N 
ATOM      2  C   UNL     1       6.204  -2.211  23.666  0.00  0.00    +0.235 C 
ATOM      3  O   UNL     1       5.212  -2.286  24.373  0.00  0.00    -0.274 OA
ATOM      4  C   UNL     1       6.976  -0.926  23.360  0.00  0.00    +0.164 C 
ATOM      5  C   UNL     1       8.274  -1.456  22.755  0.00  0.00    +0.049 C 
ATOM      6  C   UNL     1       7.939  -2.827  22.218  0.00  0.00    +0.110 C 
ENDROOT
BRANCH   1   7
ATOM      7  C   UNL     1       6.654  -4.682  23.388  0.00  0.00    +0.159 C 
ATOM      8  C   UNL     1       7.198  -5.623  22.314  0.00  0.00    +0.038 C 
BRANCH   7   9
ATOM      9  C   UNL     1       7.219  -5.015  24.790  0.00  0.00    +0.236 C 
ATOM     10  N   UNL     1       6.339  -5.528  25.735  0.00  0.00    -0.296 N 
ATOM     11  C   UNL     1       4.898  -5.713  25.573  0.00  0.00    +0.136 C 
ATOM     12  C   UNL     1       4.153  -4.822  26.568  0.00  0.00    +0.179 C 
ATOM     13  O   UNL     1       4.561  -5.127  27.913  0.00  0.00    -0.377 OA
ATOM     14  C   UNL     1       5.975  -4.906  28.080  0.00  0.00    +0.179 C 
ATOM     15  C   UNL     1       6.797  -5.754  27.103  0.00  0.00    +0.136 C 
ATOM     16  O   UNL     1       8.422  -4.888  25.035  0.00  0.00    -0.274 OA
ENDBRANCH   7   9
ENDBRANCH   1   7
BRANCH   4  17
ATOM     17  N   UNL     1       7.213  -0.228  24.635  0.00  0.00    -0.178 NA
ATOM     18  H   UNL     1       8.133  -0.369  25.055  0.00  0.00    +0.149 HD
BRANCH  17  19
ATOM     19  S   UNL     1       6.654   1.328  24.856  0.00  0.00    +0.065 S 
ATOM     20  O   UNL     1       6.388   1.522  26.265  0.00  0.00    -0.153 OA
ATOM     21  O   UNL     1       5.645   1.542  23.846  0.00  0.00    -0.153 OA
BRANCH  19  22
ATOM     22  C   UNL     1       7.972   2.429  24.453  0.00  0.00    +0.144 A 
ATOM     23  S   UNL     1       7.655   4.079  24.726  0.00  0.00    -0.069 S 
ATOM     24  C   UNL     1       9.239   4.540  24.246  0.00  0.00    +0.021 A 
ATOM     25  C   UNL     1       9.769   5.843  24.252  0.00  0.00    +0.017 A 
ATOM     26  C   UNL     1      11.088   6.031  23.834  0.00  0.00    +0.021 A 
ATOM     27  C   UNL     1      11.850   4.953  23.410  0.00  0.00    +0.042 A 
ATOM     28  C   UNL     1      11.319   3.659  23.396  0.00  0.00    +0.029 A 
ATOM     29 CL   UNL     1      13.478   5.205  22.909  0.00  0.00    -0.084 Cl
ATOM     30  C   UNL     1       9.991   3.439  23.829  0.00  0.00    -0.008 A 
ATOM     31  C   UNL     1       9.235   2.226  23.936  0.00  0.00    +0.045 A 
ENDBRANCH  19  22
ENDBRANCH  17  19
ENDBRANCH   4  17
TORSDOF 5
ENDMDL
MODEL 7
REMARK VINA RESULT:      -7.4      4.209      8.907
REMARK  Name = 
REMARK  6 active torsions:
REMARK  status: ('A' for Active; 'I' for Inactive)
REMARK    1  A    between atoms: C_2  and  C_3
REMARK    2  A    between atoms: C_2  and  N_4
REMARK    3  A    between atoms: C_2  and  C_25
REMARK    4  A    between atoms: C_7  and  N_9
REMARK    5  A    between atoms: N_9  and  S_10
REMARK    6  A    between atoms: S_10  and  C_13
REMARK                            x       y       z     vdW  Elec       q    Type
REMARK                         _______ _______ _______ _____ _____    ______ ____
ROOT
ATOM      1  N   UNL     1      10.049   0.922  23.532  0.00  0.00    -0.289 N 
ATOM      2  C   UNL     1       9.876  -0.136  24.415  0.00  0.00    +0.235 C 
ATOM      3  O   UNL     1       9.795  -0.054  25.630  0.00  0.00    -0.274 OA
ATOM      4  C   UNL     1       9.784  -1.432  23.608  0.00  0.00    +0.164 C 
ATOM      5  C   UNL     1       9.591  -0.922  22.182  0.00  0.00    +0.049 C 
ATOM      6  C   UNL     1      10.165   0.474  22.172  0.00  0.00    +0.110 C 
ENDROOT
BRANCH   1   7
ATOM      7  C   UNL     1       9.769   2.329  23.865  0.00  0.00    +0.159 C 
ATOM      8  C   UNL     1      10.856   3.266  23.338  0.00  0.00    +0.038 C 
BRANCH   7   9
ATOM      9  C   UNL     1       8.354   2.781  23.432  0.00  0.00    +0.236 C 
ATOM     10  N   UNL     1       7.398   2.948  24.426  0.00  0.00    -0.296 N 
ATOM     11  C   UNL     1       7.563   2.661  25.850  0.00  0.00    +0.136 C 
ATOM     12  C   UNL     1       6.602   1.543  26.260  0.00  0.00    +0.179 C 
ATOM     13  O   UNL     1       5.245   1.920  25.967  0.00  0.00    -0.377 OA
ATOM     14  C   UNL     1       5.078   2.165  24.558  0.00  0.00    +0.179 C 
ATOM     15  C   UNL     1       6.020   3.265  24.061  0.00  0.00    +0.136 C 
ATOM     16  O   UNL     1       8.106   3.043  22.252  0.00  0.00    -0.274 OA
ENDBRANCH   7   9
ENDBRANCH   1   7
BRANCH   4  17
ATOM     17  N   UNL     1       8.606  -2.177  24.086  0.00  0.00    -0.178 NA
ATOM     18  H   UNL     1       7.861  -2.318  23.402  0.00  0.00    +0.149 HD
BRANCH  17  19
ATOM     19  S   UNL     1       8.798  -3.498  25.086  0.00  0.00    +0.065 S 
ATOM     20  O   UNL     1       8.813  -3.036  26.456  0.00  0.00    -0.153 OA
ATOM     21  O   UNL     1       9.878  -4.276  24.524  0.00  0.00    -0.153 OA
BRANCH  19  22
ATOM     22  C   UNL     1       7.355  -4.501  24.925  0.00  0.00    +0.144 A 
ATOM     23  S   UNL     1       6.915  -5.374  26.319  0.00  0.00    -0.069 S 
ATOM     24  C   UNL     1       5.509  -6.014  25.565  0.00  0.00    +0.021 A 
ATOM     25  C   UNL     1       4.547  -6.850  26.160  0.00  0.00    +0.017 A 
ATOM     26  C   UNL     1       3.458  -7.269  25.393  0.00  0.00    +0.021 A 
ATOM     27  C   UNL     1       3.340  -6.876  24.068  0.00  0.00    +0.042 A 
ATOM     28  C   UNL     1       4.302  -6.052  23.475  0.00  0.00    +0.029 A 
ATOM     29 CL   UNL     1       1.984  -7.395  23.143  0.00  0.00    -0.084 Cl
ATOM     30  C   UNL     1       5.407  -5.601  24.234  0.00  0.00    -0.008 A 
ATOM     31  C   UNL     1       6.496  -4.741  23.874  0.00  0.00    +0.045 A 
ENDBRANCH  19  22
ENDBRANCH  17  19
ENDBRANCH   4  17
TORSDOF 5
ENDMDL
MODEL 8
REMARK VINA RESULT:      -7.2      4.101      8.909
REMARK  Name = 
REMARK  6 active torsions:
REMARK  status: ('A' for Active; 'I' for Inactive)
REMARK    1  A    between atoms: C_2  and  C_3
REMARK    2  A    between atoms: C_2  and  N_4
REMARK    3  A    between atoms: C_2  and  C_25
REMARK    4  A    between atoms: C_7  and  N_9
REMARK    5  A    between atoms: N_9  and  S_10
REMARK    6  A    between atoms: S_10  and  C_13
REMARK                            x       y       z     vdW  Elec       q    Type
REMARK                         _______ _______ _______ _____ _____    ______ ____
ROOT
ATOM      1  N   UNL     1       9.612   2.011  24.398  0.00  0.00    -0.289 N 
ATOM      2  C   UNL     1       8.914   0.998  25.043  0.00  0.00    +0.235 C 
ATOM      3  O   UNL     1       7.947   1.141  25.774  0.00  0.00    -0.274 OA
ATOM      4  C   UNL     1       9.548  -0.343  24.670  0.00  0.00    +0.164 C 
ATOM      5  C   UNL     1      10.449   0.031  23.495  0.00  0.00    +0.049 C 
ATOM      6  C   UNL     1      10.736   1.504  23.662  0.00  0.00    +0.110 C 
ENDROOT
BRANCH   1   7
ATOM      7  C   UNL     1       9.077   3.363  24.168  0.00  0.00    +0.159 C 
ATOM      8  C   UNL     1      10.172   4.344  23.749  0.00  0.00    +0.038 C 
BRANCH   7   9
ATOM      9  C   UNL     1       7.879   3.378  23.189  0.00  0.00    +0.236 C 
ATOM     10  N   UNL     1       6.680   3.912  23.645  0.00  0.00    -0.296 N 
ATOM     11  C   UNL     1       6.399   4.393  24.997  0.00  0.00    +0.136 C 
ATOM     12  C   UNL     1       5.306   3.529  25.629  0.00  0.00    +0.179 C 
ATOM     13  O   UNL     1       4.118   3.556  24.819  0.00  0.00    -0.377 OA
ATOM     14  C   UNL     1       4.390   3.046  23.500  0.00  0.00    +0.179 C 
ATOM     15  C   UNL     1       5.491   3.849  22.800  0.00  0.00    +0.136 C 
ATOM     16  O   UNL     1       8.006   2.989  22.025  0.00  0.00    -0.274 OA
ENDBRANCH   7   9
ENDBRANCH   1   7
BRANCH   4  17
ATOM     17  N   UNL     1       8.467  -1.254  24.260  0.00  0.00    -0.178 NA
ATOM     18  H   UNL     1       7.645  -0.812  23.844  0.00  0.00    +0.149 HD
BRANCH  17  19
ATOM     19  S   UNL     1       8.828  -2.712  23.535  0.00  0.00    +0.065 S 
ATOM     20  O   UNL     1      10.116  -3.157  24.019  0.00  0.00    -0.153 OA
ATOM     21  O   UNL     1       8.552  -2.542  22.127  0.00  0.00    -0.153 OA
BRANCH  19  22
ATOM     22  C   UNL     1       7.655  -3.898  24.110  0.00  0.00    +0.144 A 
ATOM     23  S   UNL     1       7.715  -4.235  25.777  0.00  0.00    -0.069 S 
ATOM     24  C   UNL     1       6.375  -5.307  25.685  0.00  0.00    +0.021 A 
ATOM     25  C   UNL     1       5.771  -5.986  26.759  0.00  0.00    +0.017 A 
ATOM     26  C   UNL     1       4.679  -6.816  26.497  0.00  0.00    +0.021 A 
ATOM     27  C   UNL     1       4.212  -6.973  25.201  0.00  0.00    +0.042 A 
ATOM     28  C   UNL     1       4.819  -6.304  24.133  0.00  0.00    +0.029 A 
ATOM     29 CL   UNL     1       2.858  -7.993  24.901  0.00  0.00    -0.084 Cl
ATOM     30  C   UNL     1       5.917  -5.446  24.372  0.00  0.00    -0.008 A 
ATOM     31  C   UNL     1       6.683  -4.639  23.470  0.00  0.00    +0.045 A 
ENDBRANCH  19  22
ENDBRANCH  17  19
ENDBRANCH   4  17
TORSDOF 5
ENDMDL
MODEL 9
REMARK VINA RESULT:      -7.1      4.124      8.948
REMARK  Name = 
REMARK  6 active torsions:
REMARK  status: ('A' for Active; 'I' for Inactive)
REMARK    1  A    between atoms: C_2  and  C_3
REMARK    2  A    between atoms: C_2  and  N_4
REMARK    3  A    between atoms: C_2  and  C_25
REMARK    4  A    between atoms: C_7  and  N_9
REMARK    5  A    between atoms: N_9  and  S_10
REMARK    6  A    between atoms: S_10  and  C_13
REMARK                            x       y       z     vdW  Elec       q    Type
REMARK                         _______ _______ _______ _____ _____    ______ ____
ROOT
ATOM      1  N   UNL     1       8.289   0.191  23.843  0.00  0.00    -0.289 N 
ATOM      2  C   UNL     1       8.550  -0.673  22.787  0.00  0.00    +0.235 C 
ATOM      3  O   UNL     1       9.569  -0.704  22.117  0.00  0.00    -0.274 OA
ATOM      4  C   UNL     1       7.347  -1.602  22.611  0.00  0.00    +0.164 C 
ATOM      5  C   UNL     1       6.555  -1.366  23.895  0.00  0.00    +0.049 C 
ATOM      6  C   UNL     1       6.969   0.003  24.379  0.00  0.00    +0.110 C 
ENDROOT
BRANCH   1   7
ATOM      7  C   UNL     1       9.328   0.933  24.578  0.00  0.00    +0.159 C 
ATOM      8  C   UNL     1      10.574   0.081  24.815  0.00  0.00    +0.038 C 
BRANCH   7   9
ATOM      9  C   UNL     1       9.671   2.294  23.926  0.00  0.00    +0.236 C 
ATOM     10  N   UNL     1       9.027   3.423  24.417  0.00  0.00    -0.296 N 
ATOM     11  C   UNL     1       7.984   3.457  25.440  0.00  0.00    +0.136 C 
ATOM     12  C   UNL     1       6.686   3.990  24.830  0.00  0.00    +0.179 C 
ATOM     13  O   UNL     1       6.898   5.298  24.272  0.00  0.00    -0.377 OA
ATOM     14  C   UNL     1       7.899   5.255  23.237  0.00  0.00    +0.179 C 
ATOM     15  C   UNL     1       9.232   4.714  23.764  0.00  0.00    +0.136 C 
ATOM     16  O   UNL     1      10.533   2.377  23.047  0.00  0.00    -0.274 OA
ENDBRANCH   7   9
ENDBRANCH   1   7
BRANCH   4  17
ATOM     17  N   UNL     1       7.853  -2.983  22.527  0.00  0.00    -0.178 NA
ATOM     18  H   UNL     1       8.631  -3.210  23.149  0.00  0.00    +0.149 HD
BRANCH  17  19
ATOM     19  S   UNL     1       6.790  -4.257  22.360  0.00  0.00    +0.065 S 
ATOM     20  O   UNL     1       7.483  -5.348  21.710  0.00  0.00    -0.153 OA
ATOM     21  O   UNL     1       5.568  -3.697  21.831  0.00  0.00    -0.153 OA
BRANCH  19  22
ATOM     22  C   UNL     1       6.389  -4.831  23.980  0.00  0.00    +0.144 A 
ATOM     23  S   UNL     1       4.954  -5.740  24.098  0.00  0.00    -0.069 S 
ATOM     24  C   UNL     1       5.186  -6.029  25.776  0.00  0.00    +0.021 A 
ATOM     25  C   UNL     1       4.364  -6.804  26.613  0.00  0.00    +0.017 A 
ATOM     26  C   UNL     1       4.713  -6.936  27.959  0.00  0.00    +0.021 A 
ATOM     27  C   UNL     1       5.842  -6.302  28.455  0.00  0.00    +0.042 A 
ATOM     28  C   UNL     1       6.654  -5.524  27.624  0.00  0.00    +0.029 A 
ATOM     29 CL   UNL     1       6.261  -6.487  30.115  0.00  0.00    -0.084 Cl
ATOM     30  C   UNL     1       6.331  -5.386  26.254  0.00  0.00    -0.008 A 
ATOM     31  C   UNL     1       7.005  -4.680  25.205  0.00  0.00    +0.045 A 
ENDBRANCH  19  22
ENDBRANCH  17  19
ENDBRANCH   4  17
TORSDOF 5
ENDMDL
