MODEL 1
REMARK VINA RESULT:      -7.8      0.000      0.000
REMARK  Name = 
REMARK  5 active torsions:
REMARK  status: ('A' for Active; 'I' for Inactive)
REMARK    1  A    between atoms: O_1  and  C_2
REMARK    2  A    between atoms: C_5  and  C_6
REMARK    3  A    between atoms: C_6  and  N_7
REMARK    4  A    between atoms: C_14  and  C_16
REMARK    5  A    between atoms: C_19  and  O_20
REMARK                            x       y       z     vdW  Elec       q    Type
REMARK                         _______ _______ _______ _____ _____    ______ ____
ROOT
ATOM      1  N   UNL     1       7.770  -3.117  23.888  0.00  0.00    -0.338 N 
ATOM      2  C   UNL     1       7.195  -4.282  23.405  0.00  0.00    +0.050 A 
ATOM      3  C   UNL     1       5.817  -4.188  23.633  0.00  0.00    +0.003 A 
ATOM      4  C   UNL     1       4.962  -5.168  23.090  0.00  0.00    +0.010 A 
ATOM      5  C   UNL     1       5.509  -6.249  22.399  0.00  0.00    +0.001 A 
ATOM      6  C   UNL     1       6.888  -6.382  22.274  0.00  0.00    +0.002 A 
ATOM      7  C   UNL     1       5.609  -3.051  24.451  0.00  0.00    -0.016 A 
ATOM      8  C   UNL     1       4.364  -2.534  25.091  0.00  0.00    +0.056 C 
ATOM      9  C   UNL     1       4.737  -1.556  26.222  0.00  0.00    +0.113 C 
ATOM     10  N   UNL     1       5.756  -0.585  25.777  0.00  0.00    -0.291 N 
ATOM     11  C   UNL     1       5.350   0.737  25.572  0.00  0.00    +0.247 C 
ATOM     12  O   UNL     1       4.182   1.097  25.717  0.00  0.00    -0.270 OA
ATOM     13  C   UNL     1       7.059  -1.165  25.389  0.00  0.00    +0.161 C 
ATOM     14  C   UNL     1       7.757  -5.403  22.768  0.00  0.00    +0.026 A 
ATOM     15  C   UNL     1       6.826  -2.415  24.607  0.00  0.00    +0.041 A 
ENDROOT
BRANCH  11  16
ATOM     16  C   UNL     1       6.325   1.772  25.140  0.00  0.00    +0.037 A 
ATOM     17  C   UNL     1       7.209   2.391  26.030  0.00  0.00    +0.016 A 
ATOM     18  C   UNL     1       8.183   3.268  25.552  0.00  0.00    +0.046 A 
ATOM     19  C   UNL     1       8.216   3.592  24.201  0.00  0.00    +0.117 A 
ATOM     20  C   UNL     1       7.271   3.074  23.319  0.00  0.00    +0.046 A 
ATOM     21  C   UNL     1       6.326   2.160  23.791  0.00  0.00    +0.016 A 
BRANCH  19  22
ATOM     22  O   UNL     1       9.201   4.429  23.776  0.00  0.00    -0.507 OA
ATOM     23  H   UNL     1       9.240   5.195  24.372  0.00  0.00    +0.292 HD
ENDBRANCH  19  22
ENDBRANCH  11  16
BRANCH   1  24
ATOM     24  C   UNL     1       9.164  -2.718  23.682  0.00  0.00    +0.157 C 
BRANCH  24  28
ATOM     25  C   UNL     1       9.994   1.244  22.170  0.00  0.00    +0.117 A 
ATOM     26  C   UNL     1       9.212   0.359  21.443  0.00  0.00    +0.046 A 
ATOM     27  C   UNL     1       8.902  -0.893  21.975  0.00  0.00    +0.009 A 
ATOM     28  C   UNL     1       9.368  -1.279  23.250  0.00  0.00    -0.028 A 
ATOM     29  C   UNL     1      10.108  -0.342  23.986  0.00  0.00    +0.009 A 
ATOM     30  C   UNL     1      10.418   0.916  23.453  0.00  0.00    +0.046 A 
BRANCH  25  31
ATOM     31  O   UNL     1      10.347   2.421  21.582  0.00  0.00    -0.507 OA
ATOM     32  H   UNL     1       9.642   2.676  20.964  0.00  0.00    +0.292 HD
ENDBRANCH  25  31
ENDBRANCH  24  28
ENDBRANCH   1  24
TORSDOF 5
ENDMDL
MODEL 2
REMARK VINA RESULT:      -7.5      2.990      6.437
REMARK  Name = 
REMARK  5 active torsions:
REMARK  status: ('A' for Active; 'I' for Inactive)
REMARK    1  A    between atoms: O_1  and  C_2
REMARK    2  A    between atoms: C_5  and  C_6
REMARK    3  A    between atoms: C_6  and  N_7
REMARK    4  A    between atoms: C_14  and  C_16
REMARK    5  A    between atoms: C_19  and  O_20
REMARK                            x       y       z     vdW  Elec       q    Type
REMARK                         _______ _______ _______ _____ _____    ______ ____
ROOT
ATOM      1  N   UNL     1       7.691  -0.652  23.294  0.00  0.00    -0.338 N 
ATOM      2  C   UNL     1       8.489   0.466  23.107  0.00  0.00    +0.050 A 
ATOM      3  C   UNL     1       8.245   1.331  24.180  0.00  0.00    +0.003 A 
ATOM      4  C   UNL     1       9.047   2.481  24.331  0.00  0.00    +0.010 A 
ATOM      5  C   UNL     1      10.017   2.771  23.374  0.00  0.00    +0.001 A 
ATOM      6  C   UNL     1      10.173   1.956  22.256  0.00  0.00    +0.002 A 
ATOM      7  C   UNL     1       7.137   0.810  24.890  0.00  0.00    -0.016 A 
ATOM      8  C   UNL     1       6.377   1.370  26.046  0.00  0.00    +0.056 C 
ATOM      9  C   UNL     1       5.013   0.661  26.155  0.00  0.00    +0.113 C 
ATOM     10  N   UNL     1       5.160  -0.803  26.052  0.00  0.00    -0.291 N 
ATOM     11  C   UNL     1       4.979  -1.559  27.215  0.00  0.00    +0.247 C 
ATOM     12  O   UNL     1       4.739  -1.042  28.306  0.00  0.00    -0.270 OA
ATOM     13  C   UNL     1       5.696  -1.299  24.768  0.00  0.00    +0.161 C 
ATOM     14  C   UNL     1       9.418   0.789  22.103  0.00  0.00    +0.026 A 
ATOM     15  C   UNL     1       6.803  -0.404  24.320  0.00  0.00    +0.041 A 
ENDROOT
BRANCH  11  16
ATOM     16  C   UNL     1       5.096  -3.040  27.183  0.00  0.00    +0.037 A 
ATOM     17  C   UNL     1       6.330  -3.699  27.199  0.00  0.00    +0.016 A 
ATOM     18  C   UNL     1       6.379  -5.090  27.286  0.00  0.00    +0.046 A 
ATOM     19  C   UNL     1       5.199  -5.824  27.270  0.00  0.00    +0.117 A 
ATOM     20  C   UNL     1       3.966  -5.192  27.139  0.00  0.00    +0.046 A 
ATOM     21  C   UNL     1       3.916  -3.796  27.099  0.00  0.00    +0.016 A 
BRANCH  19  22
ATOM     22  O   UNL     1       5.296  -7.177  27.386  0.00  0.00    -0.507 OA
ATOM     23  H   UNL     1       5.428  -7.558  26.503  0.00  0.00    +0.292 HD
ENDBRANCH  19  22
ENDBRANCH  11  16
BRANCH   1  24
ATOM     24  C   UNL     1       7.773  -1.885  22.509  0.00  0.00    +0.157 C 
BRANCH  24  28
ATOM     25  C   UNL     1       9.059  -5.293  24.834  0.00  0.00    +0.117 A 
ATOM     26  C   UNL     1       8.008  -5.406  23.936  0.00  0.00    +0.046 A 
ATOM     27  C   UNL     1       7.648  -4.312  23.148  0.00  0.00    +0.009 A 
ATOM     28  C   UNL     1       8.339  -3.085  23.244  0.00  0.00    -0.028 A 
ATOM     29  C   UNL     1       9.433  -3.018  24.119  0.00  0.00    +0.009 A 
ATOM     30  C   UNL     1       9.796  -4.117  24.909  0.00  0.00    +0.046 A 
BRANCH  25  31
ATOM     31  O   UNL     1       9.324  -6.354  25.646  0.00  0.00    -0.507 OA
ATOM     32  H   UNL     1       9.144  -6.088  26.564  0.00  0.00    +0.292 HD
ENDBRANCH  25  31
ENDBRANCH  24  28
ENDBRANCH   1  24
TORSDOF 5
ENDMDL
MODEL 3
REMARK VINA RESULT:      -7.4      2.043      2.972
REMARK  Name = 
REMARK  5 active torsions:
REMARK  status: ('A' for Active; 'I' for Inactive)
REMARK    1  A    between atoms: O_1  and  C_2
REMARK    2  A    between atoms: C_5  and  C_6
REMARK    3  A    between atoms: C_6  and  N_7
REMARK    4  A    between atoms: C_14  and  C_16
REMARK    5  A    between atoms: C_19  and  O_20
REMARK                            x       y       z     vdW  Elec       q    Type
REMARK                         _______ _______ _______ _____ _____    ______ ____
ROOT
ATOM      1  N   UNL     1       7.343  -3.194  26.356  0.00  0.00    -0.338 N 
ATOM      2  C   UNL     1       6.414  -4.148  26.744  0.00  0.00    +0.050 A 
ATOM      3  C   UNL     1       5.236  -3.467  27.071  0.00  0.00    +0.003 A 
ATOM      4  C   UNL     1       4.068  -4.208  27.344  0.00  0.00    +0.010 A 
ATOM      5  C   UNL     1       4.125  -5.601  27.353  0.00  0.00    +0.001 A 
ATOM      6  C   UNL     1       5.331  -6.259  27.131  0.00  0.00    +0.002 A 
ATOM      7  C   UNL     1       5.543  -2.085  27.080  0.00  0.00    -0.016 A 
ATOM      8  C   UNL     1       4.708  -0.910  27.464  0.00  0.00    +0.056 C 
ATOM      9  C   UNL     1       5.621   0.303  27.730  0.00  0.00    +0.113 C 
ATOM     10  N   UNL     1       6.619   0.469  26.655  0.00  0.00    -0.291 N 
ATOM     11  C   UNL     1       6.450   1.540  25.771  0.00  0.00    +0.247 C 
ATOM     12  O   UNL     1       5.494   2.311  25.845  0.00  0.00    -0.270 OA
ATOM     13  C   UNL     1       7.576  -0.646  26.499  0.00  0.00    +0.161 C 
ATOM     14  C   UNL     1       6.495  -5.549  26.818  0.00  0.00    +0.026 A 
ATOM     15  C   UNL     1       6.848  -1.941  26.650  0.00  0.00    +0.041 A 
ENDROOT
BRANCH  11  16
ATOM     16  C   UNL     1       7.425   1.778  24.675  0.00  0.00    +0.037 A 
ATOM     17  C   UNL     1       8.753   2.145  24.915  0.00  0.00    +0.016 A 
ATOM     18  C   UNL     1       9.655   2.241  23.855  0.00  0.00    +0.046 A 
ATOM     19  C   UNL     1       9.209   2.056  22.552  0.00  0.00    +0.117 A 
ATOM     20  C   UNL     1       7.867   1.804  22.285  0.00  0.00    +0.046 A 
ATOM     21  C   UNL     1       6.974   1.662  23.350  0.00  0.00    +0.016 A 
BRANCH  19  22
ATOM     22  O   UNL     1      10.131   2.131  21.553  0.00  0.00    -0.507 OA
ATOM     23  H   UNL     1      11.014   2.220  21.948  0.00  0.00    +0.292 HD
ENDBRANCH  19  22
ENDBRANCH  11  16
BRANCH   1  24
ATOM     24  C   UNL     1       8.645  -3.484  25.753  0.00  0.00    +0.157 C 
BRANCH  24  28
ATOM     25  C   UNL     1       9.207  -1.582  21.913  0.00  0.00    +0.117 A 
ATOM     26  C   UNL     1      10.236  -1.616  22.843  0.00  0.00    +0.046 A 
ATOM     27  C   UNL     1      10.057  -2.290  24.053  0.00  0.00    +0.009 A 
ATOM     28  C   UNL     1       8.843  -2.945  24.349  0.00  0.00    -0.028 A 
ATOM     29  C   UNL     1       7.842  -2.942  23.367  0.00  0.00    +0.009 A 
ATOM     30  C   UNL     1       8.021  -2.268  22.152  0.00  0.00    +0.046 A 
BRANCH  25  31
ATOM     31  O   UNL     1       9.389  -0.842  20.784  0.00  0.00    -0.507 OA
ATOM     32  H   UNL     1       9.825  -1.401  20.120  0.00  0.00    +0.292 HD
ENDBRANCH  25  31
ENDBRANCH  24  28
ENDBRANCH   1  24
TORSDOF 5
ENDMDL
MODEL 4
REMARK VINA RESULT:      -7.2      1.995      2.393
REMARK  Name = 
REMARK  5 active torsions:
REMARK  status: ('A' for Active; 'I' for Inactive)
REMARK    1  A    between atoms: O_1  and  C_2
REMARK    2  A    between atoms: C_5  and  C_6
REMARK    3  A    between atoms: C_6  and  N_7
REMARK    4  A    between atoms: C_14  and  C_16
REMARK    5  A    between atoms: C_19  and  O_20
REMARK                            x       y       z     vdW  Elec       q    Type
REMARK                         _______ _______ _______ _____ _____    ______ ____
ROOT
ATOM      1  N   UNL     1       8.077  -1.535  26.220  0.00  0.00    -0.338 N 
ATOM      2  C   UNL     1       7.806  -2.892  26.300  0.00  0.00    +0.050 A 
ATOM      3  C   UNL     1       6.418  -3.043  26.191  0.00  0.00    +0.003 A 
ATOM      4  C   UNL     1       5.876  -4.340  26.076  0.00  0.00    +0.010 A 
ATOM      5  C   UNL     1       6.721  -5.446  26.145  0.00  0.00    +0.001 A 
ATOM      6  C   UNL     1       8.086  -5.280  26.361  0.00  0.00    +0.002 A 
ATOM      7  C   UNL     1       5.853  -1.748  26.261  0.00  0.00    -0.016 A 
ATOM      8  C   UNL     1       4.425  -1.316  26.307  0.00  0.00    +0.056 C 
ATOM      9  C   UNL     1       4.344   0.132  26.830  0.00  0.00    +0.113 C 
ATOM     10  N   UNL     1       5.322   1.003  26.149  0.00  0.00    -0.291 N 
ATOM     11  C   UNL     1       4.832   1.936  25.229  0.00  0.00    +0.247 C 
ATOM     12  O   UNL     1       3.636   2.024  24.953  0.00  0.00    -0.270 OA
ATOM     13  C   UNL     1       6.741   0.649  26.357  0.00  0.00    +0.161 C 
ATOM     14  C   UNL     1       8.655  -4.004  26.438  0.00  0.00    +0.026 A 
ATOM     15  C   UNL     1       6.890  -0.836  26.293  0.00  0.00    +0.041 A 
ENDROOT
BRANCH  11  16
ATOM     16  C   UNL     1       5.757   2.857  24.518  0.00  0.00    +0.037 A 
ATOM     17  C   UNL     1       6.377   3.939  25.153  0.00  0.00    +0.016 A 
ATOM     18  C   UNL     1       7.326   4.700  24.471  0.00  0.00    +0.046 A 
ATOM     19  C   UNL     1       7.590   4.434  23.132  0.00  0.00    +0.117 A 
ATOM     20  C   UNL     1       6.899   3.435  22.453  0.00  0.00    +0.046 A 
ATOM     21  C   UNL     1       5.983   2.643  23.149  0.00  0.00    +0.016 A 
BRANCH  19  22
ATOM     22  O   UNL     1       8.545   5.184  22.516  0.00  0.00    -0.507 OA
ATOM     23  H   UNL     1       8.181   6.066  22.335  0.00  0.00    +0.292 HD
ENDBRANCH  19  22
ENDBRANCH  11  16
BRANCH   1  24
ATOM     24  C   UNL     1       9.413  -0.949  26.099  0.00  0.00    +0.157 C 
BRANCH  24  28
ATOM     25  C   UNL     1       9.901   1.329  22.459  0.00  0.00    +0.117 A 
ATOM     26  C   UNL     1      10.251   1.872  23.686  0.00  0.00    +0.046 A 
ATOM     27  C   UNL     1      10.146   1.100  24.844  0.00  0.00    +0.009 A 
ATOM     28  C   UNL     1       9.691  -0.235  24.790  0.00  0.00    -0.028 A 
ATOM     29  C   UNL     1       9.399  -0.776  23.530  0.00  0.00    +0.009 A 
ATOM     30  C   UNL     1       9.507  -0.001  22.367  0.00  0.00    +0.046 A 
BRANCH  25  31
ATOM     31  O   UNL     1       9.935   2.140  21.366  0.00  0.00    -0.507 OA
ATOM     32  H   UNL     1       9.145   2.707  21.382  0.00  0.00    +0.292 HD
ENDBRANCH  25  31
ENDBRANCH  24  28
ENDBRANCH   1  24
TORSDOF 5
ENDMDL
MODEL 5
REMARK VINA RESULT:      -7.1      2.415      5.056
REMARK  Name = 
REMARK  5 active torsions:
REMARK  status: ('A' for Active; 'I' for Inactive)
REMARK    1  A    between atoms: O_1  and  C_2
REMARK    2  A    between atoms: C_5  and  C_6
REMARK    3  A    between atoms: C_6  and  N_7
REMARK    4  A    between atoms: C_14  and  C_16
REMARK    5  A    between atoms: C_19  and  O_20
REMARK                            x       y       z     vdW  Elec       q    Type
REMARK                         _______ _______ _______ _____ _____    ______ ____
ROOT
ATOM      1  N   UNL     1       5.736  -2.205  26.176  0.00  0.00    -0.338 N 
ATOM      2  C   UNL     1       5.469  -3.220  27.082  0.00  0.00    +0.050 A 
ATOM      3  C   UNL     1       6.447  -4.205  26.897  0.00  0.00    +0.003 A 
ATOM      4  C   UNL     1       6.515  -5.284  27.803  0.00  0.00    +0.010 A 
ATOM      5  C   UNL     1       5.566  -5.387  28.819  0.00  0.00    +0.001 A 
ATOM      6  C   UNL     1       4.537  -4.456  28.922  0.00  0.00    +0.002 A 
ATOM      7  C   UNL     1       7.166  -3.862  25.727  0.00  0.00    -0.016 A 
ATOM      8  C   UNL     1       8.238  -4.601  24.998  0.00  0.00    +0.056 C 
ATOM      9  C   UNL     1       8.369  -4.037  23.570  0.00  0.00    +0.113 C 
ATOM     10  N   UNL     1       8.411  -2.562  23.578  0.00  0.00    -0.291 N 
ATOM     11  C   UNL     1       9.634  -1.944  23.297  0.00  0.00    +0.247 C 
ATOM     12  O   UNL     1      10.662  -2.585  23.081  0.00  0.00    -0.270 OA
ATOM     13  C   UNL     1       7.197  -1.895  24.093  0.00  0.00    +0.161 C 
ATOM     14  C   UNL     1       4.470  -3.355  28.062  0.00  0.00    +0.026 A 
ATOM     15  C   UNL     1       6.703  -2.635  25.292  0.00  0.00    +0.041 A 
ENDROOT
BRANCH  11  16
ATOM     16  C   UNL     1       9.746  -0.462  23.271  0.00  0.00    +0.037 A 
ATOM     17  C   UNL     1       9.887   0.303  24.433  0.00  0.00    +0.016 A 
ATOM     18  C   UNL     1      10.106   1.677  24.344  0.00  0.00    +0.046 A 
ATOM     19  C   UNL     1      10.098   2.297  23.100  0.00  0.00    +0.117 A 
ATOM     20  C   UNL     1       9.845   1.570  21.941  0.00  0.00    +0.046 A 
ATOM     21  C   UNL     1       9.672   0.186  22.028  0.00  0.00    +0.016 A 
BRANCH  19  22
ATOM     22  O   UNL     1      10.346   3.635  23.061  0.00  0.00    -0.507 OA
ATOM     23  H   UNL     1      10.336   3.928  22.135  0.00  0.00    +0.292 HD
ENDBRANCH  19  22
ENDBRANCH  11  16
BRANCH   1  24
ATOM     24  C   UNL     1       5.074  -0.899  26.157  0.00  0.00    +0.157 C 
BRANCH  24  28
ATOM     25  C   UNL     1       6.902   2.474  28.147  0.00  0.00    +0.117 A 
ATOM     26  C   UNL     1       6.211   1.514  28.872  0.00  0.00    +0.046 A 
ATOM     27  C   UNL     1       5.682   0.399  28.220  0.00  0.00    +0.009 A 
ATOM     28  C   UNL     1       5.840   0.225  26.829  0.00  0.00    -0.028 A 
ATOM     29  C   UNL     1       6.591   1.181  26.132  0.00  0.00    +0.009 A 
ATOM     30  C   UNL     1       7.125   2.301  26.785  0.00  0.00    +0.046 A 
BRANCH  25  31
ATOM     31  O   UNL     1       7.327   3.589  28.803  0.00  0.00    -0.507 OA
ATOM     32  H   UNL     1       7.427   3.370  29.744  0.00  0.00    +0.292 HD
ENDBRANCH  25  31
ENDBRANCH  24  28
ENDBRANCH   1  24
TORSDOF 5
ENDMDL
MODEL 6
REMARK VINA RESULT:      -7.0      2.185      4.503
REMARK  Name = 
REMARK  5 active torsions:
REMARK  status: ('A' for Active; 'I' for Inactive)
REMARK    1  A    between atoms: O_1  and  C_2
REMARK    2  A    between atoms: C_5  and  C_6
REMARK    3  A    between atoms: C_6  and  N_7
REMARK    4  A    between atoms: C_14  and  C_16
REMARK    5  A    between atoms: C_19  and  O_20
REMARK                            x       y       z     vdW  Elec       q    Type
REMARK                         _______ _______ _______ _____ _____    ______ ____
ROOT
ATOM      1  N   UNL     1       6.952  -1.764  24.795  0.00  0.00    -0.338 N 
ATOM      2  C   UNL     1       7.467  -3.012  25.110  0.00  0.00    +0.050 A 
ATOM      3  C   UNL     1       8.707  -3.119  24.469  0.00  0.00    +0.003 A 
ATOM      4  C   UNL     1       9.531  -4.228  24.749  0.00  0.00    +0.010 A 
ATOM      5  C   UNL     1       9.068  -5.229  25.602  0.00  0.00    +0.001 A 
ATOM      6  C   UNL     1       7.789  -5.158  26.145  0.00  0.00    +0.002 A 
ATOM      7  C   UNL     1       8.822  -2.009  23.598  0.00  0.00    -0.016 A 
ATOM      8  C   UNL     1       9.874  -1.670  22.596  0.00  0.00    +0.056 C 
ATOM      9  C   UNL     1       9.323  -0.623  21.608  0.00  0.00    +0.113 C 
ATOM     10  N   UNL     1       8.645   0.479  22.318  0.00  0.00    -0.291 N 
ATOM     11  C   UNL     1       9.287   1.721  22.356  0.00  0.00    +0.247 C 
ATOM     12  O   UNL     1      10.395   1.906  21.851  0.00  0.00    -0.270 OA
ATOM     13  C   UNL     1       7.453   0.093  23.100  0.00  0.00    +0.161 C 
ATOM     14  C   UNL     1       6.967  -4.049  25.915  0.00  0.00    +0.026 A 
ATOM     15  C   UNL     1       7.725  -1.195  23.805  0.00  0.00    +0.041 A 
ENDROOT
BRANCH  11  16
ATOM     16  C   UNL     1       8.656   2.881  23.039  0.00  0.00    +0.037 A 
ATOM     17  C   UNL     1       8.982   3.252  24.347  0.00  0.00    +0.016 A 
ATOM     18  C   UNL     1       8.447   4.417  24.897  0.00  0.00    +0.046 A 
ATOM     19  C   UNL     1       7.523   5.160  24.173  0.00  0.00    +0.117 A 
ATOM     20  C   UNL     1       7.101   4.744  22.914  0.00  0.00    +0.046 A 
ATOM     21  C   UNL     1       7.672   3.603  22.345  0.00  0.00    +0.016 A 
BRANCH  19  22
ATOM     22  O   UNL     1       7.051   6.305  24.739  0.00  0.00    -0.507 OA
ATOM     23  H   UNL     1       6.862   6.135  25.676  0.00  0.00    +0.292 HD
ENDBRANCH  19  22
ENDBRANCH  11  16
BRANCH   1  24
ATOM     24  C   UNL     1       5.764  -1.165  25.408  0.00  0.00    +0.157 C 
BRANCH  24  28
ATOM     25  C   UNL     1       6.763   2.361  27.697  0.00  0.00    +0.117 A 
ATOM     26  C   UNL     1       5.943   2.450  26.582  0.00  0.00    +0.046 A 
ATOM     27  C   UNL     1       5.579   1.293  25.892  0.00  0.00    +0.009 A 
ATOM     28  C   UNL     1       6.030   0.023  26.312  0.00  0.00    -0.028 A 
ATOM     29  C   UNL     1       6.810  -0.042  27.475  0.00  0.00    +0.009 A 
ATOM     30  C   UNL     1       7.174   1.120  28.169  0.00  0.00    +0.046 A 
BRANCH  25  31
ATOM     31  O   UNL     1       7.165   3.519  28.291  0.00  0.00    -0.507 OA
ATOM     32  H   UNL     1       7.034   4.247  27.660  0.00  0.00    +0.292 HD
ENDBRANCH  25  31
ENDBRANCH  24  28
ENDBRANCH   1  24
TORSDOF 5
ENDMDL
MODEL 7
REMARK VINA RESULT:      -7.0      2.422      6.704
REMARK  Name = 
REMARK  5 active torsions:
REMARK  status: ('A' for Active; 'I' for Inactive)
REMARK    1  A    between atoms: O_1  and  C_2
REMARK    2  A    between atoms: C_5  and  C_6
REMARK    3  A    between atoms: C_6  and  N_7
REMARK    4  A    between atoms: C_14  and  C_16
REMARK    5  A    between atoms: C_19  and  O_20
REMARK                            x       y       z     vdW  Elec       q    Type
REMARK                         _______ _______ _______ _____ _____    ______ ____
ROOT
ATOM      1  N   UNL     1       8.149   3.368  23.571  0.00  0.00    -0.338 N 
ATOM      2  C   UNL     1       8.586   4.587  24.066  0.00  0.00    +0.050 A 
ATOM      3  C   UNL     1       8.073   4.713  25.363  0.00  0.00    +0.003 A 
ATOM      4  C   UNL     1       8.497   5.791  26.167  0.00  0.00    +0.010 A 
ATOM      5  C   UNL     1       9.361   6.746  25.634  0.00  0.00    +0.001 A 
ATOM      6  C   UNL     1       9.777   6.662  24.309  0.00  0.00    +0.002 A 
ATOM      7  C   UNL     1       7.151   3.656  25.549  0.00  0.00    -0.016 A 
ATOM      8  C   UNL     1       6.233   3.361  26.688  0.00  0.00    +0.056 C 
ATOM      9  C   UNL     1       5.136   2.384  26.223  0.00  0.00    +0.113 C 
ATOM     10  N   UNL     1       5.710   1.252  25.470  0.00  0.00    -0.291 N 
ATOM     11  C   UNL     1       5.732  -0.000  26.094  0.00  0.00    +0.247 C 
ATOM     12  O   UNL     1       5.324  -0.171  27.242  0.00  0.00    -0.270 OA
ATOM     13  C   UNL     1       6.398   1.609  24.213  0.00  0.00    +0.161 C 
ATOM     14  C   UNL     1       9.403   5.582  23.502  0.00  0.00    +0.026 A 
ATOM     15  C   UNL     1       7.204   2.848  24.429  0.00  0.00    +0.041 A 
ENDROOT
BRANCH  11  16
ATOM     16  C   UNL     1       6.280  -1.189  25.390  0.00  0.00    +0.037 A 
ATOM     17  C   UNL     1       5.646  -1.768  24.286  0.00  0.00    +0.016 A 
ATOM     18  C   UNL     1       6.264  -2.808  23.591  0.00  0.00    +0.046 A 
ATOM     19  C   UNL     1       7.470  -3.324  24.050  0.00  0.00    +0.117 A 
ATOM     20  C   UNL     1       8.059  -2.835  25.213  0.00  0.00    +0.046 A 
ATOM     21  C   UNL     1       7.463  -1.763  25.882  0.00  0.00    +0.016 A 
BRANCH  19  22
ATOM     22  O   UNL     1       8.049  -4.318  23.323  0.00  0.00    -0.507 OA
ATOM     23  H   UNL     1       7.884  -4.153  22.380  0.00  0.00    +0.292 HD
ENDBRANCH  19  22
ENDBRANCH  11  16
BRANCH   1  24
ATOM     24  C   UNL     1       8.609   2.752  22.325  0.00  0.00    +0.157 C 
BRANCH  24  28
ATOM     25  C   UNL     1      10.273  -1.204  22.831  0.00  0.00    +0.117 A 
ATOM     26  C   UNL     1       9.573  -0.873  21.681  0.00  0.00    +0.046 A 
ATOM     27  C   UNL     1       9.097   0.428  21.507  0.00  0.00    +0.009 A 
ATOM     28  C   UNL     1       9.320   1.422  22.483  0.00  0.00    -0.028 A 
ATOM     29  C   UNL     1      10.080   1.074  23.609  0.00  0.00    +0.009 A 
ATOM     30  C   UNL     1      10.560  -0.232  23.783  0.00  0.00    +0.046 A 
BRANCH  25  31
ATOM     31  O   UNL     1      10.645  -2.503  23.004  0.00  0.00    -0.507 OA
ATOM     32  H   UNL     1      11.614  -2.553  22.942  0.00  0.00    +0.292 HD
ENDBRANCH  25  31
ENDBRANCH  24  28
ENDBRANCH   1  24
TORSDOF 5
ENDMDL
MODEL 8
REMARK VINA RESULT:      -6.8      1.618      2.072
REMARK  Name = 
REMARK  5 active torsions:
REMARK  status: ('A' for Active; 'I' for Inactive)
REMARK    1  A    between atoms: O_1  and  C_2
REMARK    2  A    between atoms: C_5  and  C_6
REMARK    3  A    between atoms: C_6  and  N_7
REMARK    4  A    between atoms: C_14  and  C_16
REMARK    5  A    between atoms: C_19  and  O_20
REMARK                            x       y       z     vdW  Elec       q    Type
REMARK                         _______ _______ _______ _____ _____    ______ ____
ROOT
ATOM      1  N   UNL     1       7.213  -3.432  24.799  0.00  0.00    -0.338 N 
ATOM      2  C   UNL     1       6.925  -4.397  23.846  0.00  0.00    +0.050 A 
ATOM      3  C   UNL     1       5.531  -4.450  23.721  0.00  0.00    +0.003 A 
ATOM      4  C   UNL     1       4.964  -5.234  22.696  0.00  0.00    +0.010 A 
ATOM      5  C   UNL     1       5.794  -5.996  21.875  0.00  0.00    +0.001 A 
ATOM      6  C   UNL     1       7.169  -6.014  22.084  0.00  0.00    +0.002 A 
ATOM      7  C   UNL     1       4.991  -3.661  24.764  0.00  0.00    -0.016 A 
ATOM      8  C   UNL     1       3.573  -3.446  25.180  0.00  0.00    +0.056 C 
ATOM      9  C   UNL     1       3.540  -2.882  26.614  0.00  0.00    +0.113 C 
ATOM     10  N   UNL     1       4.498  -1.771  26.776  0.00  0.00    -0.291 N 
ATOM     11  C   UNL     1       3.980  -0.477  26.889  0.00  0.00    +0.247 C 
ATOM     12  O   UNL     1       2.774  -0.242  26.825  0.00  0.00    -0.270 OA
ATOM     13  C   UNL     1       5.920  -2.125  26.586  0.00  0.00    +0.161 C 
ATOM     14  C   UNL     1       7.762  -5.214  23.066  0.00  0.00    +0.026 A 
ATOM     15  C   UNL     1       6.042  -3.054  25.423  0.00  0.00    +0.041 A 
ENDROOT
BRANCH  11  16
ATOM     16  C   UNL     1       4.885   0.689  27.071  0.00  0.00    +0.037 A 
ATOM     17  C   UNL     1       5.286   1.141  28.333  0.00  0.00    +0.016 A 
ATOM     18  C   UNL     1       6.228   2.163  28.442  0.00  0.00    +0.046 A 
ATOM     19  C   UNL     1       6.702   2.790  27.296  0.00  0.00    +0.117 A 
ATOM     20  C   UNL     1       6.228   2.431  26.038  0.00  0.00    +0.046 A 
ATOM     21  C   UNL     1       5.320   1.375  25.926  0.00  0.00    +0.016 A 
BRANCH  19  22
ATOM     22  O   UNL     1       7.642   3.762  27.451  0.00  0.00    -0.507 OA
ATOM     23  H   UNL     1       7.415   4.511  26.876  0.00  0.00    +0.292 HD
ENDBRANCH  19  22
ENDBRANCH  11  16
BRANCH   1  24
ATOM     24  C   UNL     1       8.551  -2.920  25.101  0.00  0.00    +0.157 C 
BRANCH  24  28
ATOM     25  C   UNL     1       9.556   0.293  22.392  0.00  0.00    +0.117 A 
ATOM     26  C   UNL     1       8.786   0.534  23.520  0.00  0.00    +0.046 A 
ATOM     27  C   UNL     1       8.524  -0.503  24.417  0.00  0.00    +0.009 A 
ATOM     28  C   UNL     1       9.035  -1.800  24.200  0.00  0.00    -0.028 A 
ATOM     29  C   UNL     1       9.858  -2.001  23.082  0.00  0.00    +0.009 A 
ATOM     30  C   UNL     1      10.122  -0.959  22.182  0.00  0.00    +0.046 A 
BRANCH  25  31
ATOM     31  O   UNL     1       9.717   1.307  21.497  0.00  0.00    -0.507 OA
ATOM     32  H   UNL     1       8.944   1.319  20.908  0.00  0.00    +0.292 HD
ENDBRANCH  25  31
ENDBRANCH  24  28
ENDBRANCH   1  24
TORSDOF 5
ENDMDL
MODEL 9
REMARK VINA RESULT:      -6.6      3.415      6.836
REMARK  Name = 
REMARK  5 active torsions:
REMARK  status: ('A' for Active; 'I' for Inactive)
REMARK    1  A    between atoms: O_1  and  C_2
REMARK    2  A    between atoms: C_5  and  C_6
REMARK    3  A    between atoms: C_6  and  N_7
REMARK    4  A    between atoms: C_14  and  C_16
REMARK    5  A    between atoms: C_19  and  O_20
REMARK                            x       y       z     vdW  Elec       q    Type
REMARK                         _______ _______ _______ _____ _____    ______ ____
ROOT
ATOM      1  N   UNL     1       7.371  -1.254  23.502  0.00  0.00    -0.338 N 
ATOM      2  C   UNL     1       8.506  -0.479  23.683  0.00  0.00    +0.050 A 
ATOM      3  C   UNL     1       8.656  -0.285  25.062  0.00  0.00    +0.003 A 
ATOM      4  C   UNL     1       9.827   0.335  25.544  0.00  0.00    +0.010 A 
ATOM      5  C   UNL     1      10.777   0.806  24.639  0.00  0.00    +0.001 A 
ATOM      6  C   UNL     1      10.560   0.700  23.268  0.00  0.00    +0.002 A 
ATOM      7  C   UNL     1       7.480  -0.771  25.680  0.00  0.00    -0.016 A 
ATOM      8  C   UNL     1       7.046  -0.723  27.107  0.00  0.00    +0.056 C 
ATOM      9  C   UNL     1       5.527  -0.972  27.190  0.00  0.00    +0.113 C 
ATOM     10  N   UNL     1       5.128  -2.133  26.371  0.00  0.00    -0.291 N 
ATOM     11  C   UNL     1       4.757  -3.304  27.040  0.00  0.00    +0.247 C 
ATOM     12  O   UNL     1       4.786  -3.400  28.266  0.00  0.00    -0.270 OA
ATOM     13  C   UNL     1       5.370  -2.000  24.919  0.00  0.00    +0.161 C 
ATOM     14  C   UNL     1       9.426   0.054  22.764  0.00  0.00    +0.026 A 
ATOM     15  C   UNL     1       6.697  -1.351  24.701  0.00  0.00    +0.041 A 
ENDROOT
BRANCH  11  16
ATOM     16  C   UNL     1       4.328  -4.508  26.280  0.00  0.00    +0.037 A 
ATOM     17  C   UNL     1       3.060  -4.620  25.703  0.00  0.00    +0.016 A 
ATOM     18  C   UNL     1       2.751  -5.720  24.901  0.00  0.00    +0.046 A 
ATOM     19  C   UNL     1       3.678  -6.744  24.750  0.00  0.00    +0.117 A 
ATOM     20  C   UNL     1       4.902  -6.703  25.410  0.00  0.00    +0.046 A 
ATOM     21  C   UNL     1       5.228  -5.580  26.174  0.00  0.00    +0.016 A 
BRANCH  19  22
ATOM     22  O   UNL     1       3.343  -7.783  23.936  0.00  0.00    -0.507 OA
ATOM     23  H   UNL     1       2.750  -8.380  24.419  0.00  0.00    +0.292 HD
ENDBRANCH  19  22
ENDBRANCH  11  16
BRANCH   1  24
ATOM     24  C   UNL     1       6.954  -1.851  22.231  0.00  0.00    +0.157 C 
BRANCH  24  28
ATOM     25  C   UNL     1       6.718  -6.166  22.248  0.00  0.00    +0.117 A 
ATOM     26  C   UNL     1       5.964  -5.419  21.354  0.00  0.00    +0.046 A 
ATOM     27  C   UNL     1       6.101  -4.031  21.320  0.00  0.00    +0.009 A 
ATOM     28  C   UNL     1       7.000  -3.366  22.181  0.00  0.00    -0.028 A 
ATOM     29  C   UNL     1       7.790  -4.150  23.033  0.00  0.00    +0.009 A 
ATOM     30  C   UNL     1       7.655  -5.545  23.067  0.00  0.00    +0.046 A 
BRANCH  25  31
ATOM     31  O   UNL     1       6.493  -7.508  22.311  0.00  0.00    -0.507 OA
ATOM     32  H   UNL     1       7.013  -7.937  21.611  0.00  0.00    +0.292 HD
ENDBRANCH  25  31
ENDBRANCH  24  28
ENDBRANCH   1  24
TORSDOF 5
ENDMDL
