MODEL 1
REMARK VINA RESULT:      -7.6      0.000      0.000
REMARK  Name = 
REMARK  10 active torsions:
REMARK  status: ('A' for Active; 'I' for Inactive)
REMARK    1  A    between atoms: C_1  and  N_2
REMARK    2  A    between atoms: N_2  and  C_3
REMARK    3  A    between atoms: C_4  and  C_6
REMARK    4  A    between atoms: C_6  and  C_7
REMARK    5  A    between atoms: C_6  and  C_23
REMARK    6  A    between atoms: C_6  and  C_29
REMARK    7  A    between atoms: C_7  and  C_8
REMARK    8  A    between atoms: C_8  and  N_9
REMARK    9  A    between atoms: C_12  and  O_13
REMARK   10  A    between atoms: C_12  and  C_16
REMARK                            x       y       z     vdW  Elec       q    Type
REMARK                         _______ _______ _______ _____ _____    ______ ____
ROOT
ATOM      1  C   UNL     1       5.415  -3.690  24.395  0.00  0.00    +0.098 C 
ENDROOT
BRANCH   1   2
ATOM      2  C   UNL     1       6.840  -4.074  24.971  0.00  0.00    -0.028 A 
ATOM      3  C   UNL     1       7.653  -5.029  24.312  0.00  0.00    +0.005 A 
ATOM      4  C   UNL     1       8.940  -5.338  24.741  0.00  0.00    +0.000 A 
ATOM      5  C   UNL     1       9.453  -4.728  25.872  0.00  0.00    +0.000 A 
ATOM      6  C   UNL     1       8.642  -3.867  26.607  0.00  0.00    +0.000 A 
ATOM      7  C   UNL     1       7.345  -3.568  26.177  0.00  0.00    +0.005 A 
ENDBRANCH   1   2
BRANCH   1   8
ATOM      8  C   UNL     1       4.516  -2.904  25.420  0.00  0.00    -0.028 A 
ATOM      9  C   UNL     1       3.164  -3.272  25.620  0.00  0.00    +0.005 A 
ATOM     10  C   UNL     1       2.345  -2.621  26.553  0.00  0.00    +0.000 A 
ATOM     11  C   UNL     1       2.839  -1.560  27.303  0.00  0.00    +0.000 A 
ATOM     12  C   UNL     1       4.148  -1.150  27.112  0.00  0.00    +0.000 A 
ATOM     13  C   UNL     1       4.970  -1.818  26.196  0.00  0.00    +0.005 A 
ENDBRANCH   1   8
BRANCH   1  16
ATOM     14  C   UNL     1       3.503  -7.119  24.096  0.00  0.00    +0.131 C 
ATOM     15  N   UNL     1       4.315  -6.066  24.691  0.00  0.00    -0.307 N 
ATOM     16  C   UNL     1       4.633  -4.980  23.858  0.00  0.00    +0.230 C 
ATOM     17  O   UNL     1       4.269  -5.035  22.674  0.00  0.00    -0.274 OA
ATOM     18  C   UNL     1       4.920  -6.375  25.982  0.00  0.00    +0.131 C 
ENDBRANCH   1  16
BRANCH   1  19
ATOM     19  C   UNL     1       5.797  -2.822  23.116  0.00  0.00    +0.041 C 
BRANCH  19  20
ATOM     20  C   UNL     1       7.261  -2.512  22.762  0.00  0.00    +0.086 C 
BRANCH  20  21
ATOM     21  N   UNL     1       7.561  -1.106  22.513  0.00  0.00    -0.302 NA
ATOM     22  C   UNL     1       8.991  -0.853  22.353  0.00  0.00    +0.087 C 
ATOM     23  C   UNL     1       9.753  -0.772  23.676  0.00  0.00    +0.055 C 
ATOM     24  C   UNL     1       9.114   0.201  24.691  0.00  0.00    +0.093 C 
ATOM     25  C   UNL     1       7.607  -0.100  24.800  0.00  0.00    +0.055 C 
ATOM     26  C   UNL     1       6.940  -0.146  23.431  0.00  0.00    +0.087 C 
BRANCH  24  27
ATOM     27  C   UNL     1       9.393   1.693  24.467  0.00  0.00    -0.016 A 
ATOM     28  C   UNL     1       8.542   2.716  24.916  0.00  0.00    +0.008 A 
ATOM     29  C   UNL     1       8.808   4.061  24.638  0.00  0.00    +0.020 A 
ATOM     30  C   UNL     1       9.931   4.409  23.898  0.00  0.00    +0.041 A 
ATOM     31 CL   UNL     1      10.230   6.061  23.521  0.00  0.00    -0.084 Cl
ATOM     32  C   UNL     1      10.798   3.424  23.443  0.00  0.00    +0.020 A 
ATOM     33  C   UNL     1      10.529   2.081  23.723  0.00  0.00    +0.008 A 
ENDBRANCH  24  27
BRANCH  24  34
ATOM     34  O   UNL     1       9.706  -0.084  25.973  0.00  0.00    -0.384 OA
ATOM     35  H   UNL     1      10.583  -0.473  25.817  0.00  0.00    +0.211 HD
ENDBRANCH  24  34
ENDBRANCH  20  21
ENDBRANCH  19  20
ENDBRANCH   1  19
TORSDOF 8
ENDMDL
MODEL 2
REMARK VINA RESULT:      -7.6      1.324      3.623
REMARK  Name = 
REMARK  10 active torsions:
REMARK  status: ('A' for Active; 'I' for Inactive)
REMARK    1  A    between atoms: C_1  and  N_2
REMARK    2  A    between atoms: N_2  and  C_3
REMARK    3  A    between atoms: C_4  and  C_6
REMARK    4  A    between atoms: C_6  and  C_7
REMARK    5  A    between atoms: C_6  and  C_23
REMARK    6  A    between atoms: C_6  and  C_29
REMARK    7  A    between atoms: C_7  and  C_8
REMARK    8  A    between atoms: C_8  and  N_9
REMARK    9  A    between atoms: C_12  and  O_13
REMARK   10  A    between atoms: C_12  and  C_16
REMARK                            x       y       z     vdW  Elec       q    Type
REMARK                         _______ _______ _______ _____ _____    ______ ____
ROOT
ATOM      1  C   UNL     1       5.621  -3.514  24.847  0.00  0.00    +0.098 C 
ENDROOT
BRANCH   1   2
ATOM      2  C   UNL     1       4.692  -4.721  24.412  0.00  0.00    -0.028 A 
ATOM      3  C   UNL     1       5.025  -6.053  24.763  0.00  0.00    +0.005 A 
ATOM      4  C   UNL     1       4.199  -7.133  24.468  0.00  0.00    +0.000 A 
ATOM      5  C   UNL     1       3.018  -6.927  23.777  0.00  0.00    +0.000 A 
ATOM      6  C   UNL     1       2.712  -5.647  23.321  0.00  0.00    +0.000 A 
ATOM      7  C   UNL     1       3.551  -4.567  23.611  0.00  0.00    +0.005 A 
ENDBRANCH   1   2
BRANCH   1   8
ATOM      8  C   UNL     1       7.056  -3.962  25.310  0.00  0.00    -0.028 A 
ATOM      9  C   UNL     1       7.668  -5.106  24.745  0.00  0.00    +0.005 A 
ATOM     10  C   UNL     1       8.962  -5.512  25.103  0.00  0.00    +0.000 A 
ATOM     11  C   UNL     1       9.682  -4.805  26.059  0.00  0.00    +0.000 A 
ATOM     12  C   UNL     1       9.102  -3.698  26.658  0.00  0.00    +0.000 A 
ATOM     13  C   UNL     1       7.820  -3.282  26.280  0.00  0.00    +0.005 A 
ENDBRANCH   1   8
BRANCH   1  16
ATOM     14  C   UNL     1       4.223  -2.133  28.259  0.00  0.00    +0.131 C 
ATOM     15  N   UNL     1       4.762  -3.090  27.301  0.00  0.00    -0.307 N 
ATOM     16  C   UNL     1       4.931  -2.625  25.986  0.00  0.00    +0.230 C 
ATOM     17  O   UNL     1       4.543  -1.476  25.726  0.00  0.00    -0.274 OA
ATOM     18  C   UNL     1       4.818  -4.478  27.744  0.00  0.00    +0.131 C 
ENDBRANCH   1  16
BRANCH   1  19
ATOM     19  C   UNL     1       5.647  -2.624  23.526  0.00  0.00    +0.041 C 
BRANCH  19  20
ATOM     20  C   UNL     1       6.955  -2.356  22.764  0.00  0.00    +0.086 C 
BRANCH  20  21
ATOM     21  N   UNL     1       7.272  -0.949  22.541  0.00  0.00    -0.302 NA
ATOM     22  C   UNL     1       8.690  -0.726  22.267  0.00  0.00    +0.087 C 
ATOM     23  C   UNL     1       9.563  -0.715  23.522  0.00  0.00    +0.055 C 
ATOM     24  C   UNL     1       9.040   0.234  24.623  0.00  0.00    +0.093 C 
ATOM     25  C   UNL     1       7.540  -0.033  24.850  0.00  0.00    +0.055 C 
ATOM     26  C   UNL     1       6.758  -0.010  23.543  0.00  0.00    +0.087 C 
BRANCH  24  27
ATOM     27  C   UNL     1       9.342   1.726  24.431  0.00  0.00    -0.016 A 
ATOM     28  C   UNL     1       8.517   2.752  24.920  0.00  0.00    +0.008 A 
ATOM     29  C   UNL     1       8.801   4.099  24.670  0.00  0.00    +0.020 A 
ATOM     30  C   UNL     1       9.917   4.446  23.917  0.00  0.00    +0.041 A 
ATOM     31 CL   UNL     1      10.237   6.101  23.576  0.00  0.00    -0.084 Cl
ATOM     32  C   UNL     1      10.758   3.458  23.422  0.00  0.00    +0.020 A 
ATOM     33  C   UNL     1      10.470   2.113  23.675  0.00  0.00    +0.008 A 
ENDBRANCH  24  27
BRANCH  24  34
ATOM     34  O   UNL     1       9.731  -0.115  25.839  0.00  0.00    -0.384 OA
ATOM     35  H   UNL     1       9.984  -1.051  25.781  0.00  0.00    +0.211 HD
ENDBRANCH  24  34
ENDBRANCH  20  21
ENDBRANCH  19  20
ENDBRANCH   1  19
TORSDOF 8
ENDMDL
MODEL 3
REMARK VINA RESULT:      -7.4      2.039      4.393
REMARK  Name = 
REMARK  10 active torsions:
REMARK  status: ('A' for Active; 'I' for Inactive)
REMARK    1  A    between atoms: C_1  and  N_2
REMARK    2  A    between atoms: N_2  and  C_3
REMARK    3  A    between atoms: C_4  and  C_6
REMARK    4  A    between atoms: C_6  and  C_7
REMARK    5  A    between atoms: C_6  and  C_23
REMARK    6  A    between atoms: C_6  and  C_29
REMARK    7  A    between atoms: C_7  and  C_8
REMARK    8  A    between atoms: C_8  and  N_9
REMARK    9  A    between atoms: C_12  and  O_13
REMARK   10  A    between atoms: C_12  and  C_16
REMARK                            x       y       z     vdW  Elec       q    Type
REMARK                         _______ _______ _______ _____ _____    ______ ____
ROOT
ATOM      1  C   UNL     1       5.141  -3.710  24.886  0.00  0.00    +0.098 C 
ENDROOT
BRANCH   1   2
ATOM      2  C   UNL     1       3.566  -3.879  24.884  0.00  0.00    -0.028 A 
ATOM      3  C   UNL     1       2.758  -3.140  25.783  0.00  0.00    +0.005 A 
ATOM      4  C   UNL     1       1.367  -3.203  25.762  0.00  0.00    +0.000 A 
ATOM      5  C   UNL     1       0.730  -4.036  24.861  0.00  0.00    +0.000 A 
ATOM      6  C   UNL     1       1.494  -4.858  24.037  0.00  0.00    +0.000 A 
ATOM      7  C   UNL     1       2.891  -4.801  24.070  0.00  0.00    +0.005 A 
ENDBRANCH   1   2
BRANCH   1   8
ATOM      8  C   UNL     1       5.858  -4.502  23.731  0.00  0.00    -0.028 A 
ATOM      9  C   UNL     1       7.164  -5.015  23.915  0.00  0.00    +0.005 A 
ATOM     10  C   UNL     1       7.817  -5.761  22.924  0.00  0.00    +0.000 A 
ATOM     11  C   UNL     1       7.201  -5.999  21.701  0.00  0.00    +0.000 A 
ATOM     12  C   UNL     1       5.934  -5.486  21.473  0.00  0.00    +0.000 A 
ATOM     13  C   UNL     1       5.276  -4.762  22.474  0.00  0.00    +0.005 A 
ENDBRANCH   1   8
BRANCH   1  16
ATOM     14  C   UNL     1       6.451  -5.675  28.036  0.00  0.00    +0.131 C 
ATOM     15  N   UNL     1       5.739  -5.431  26.788  0.00  0.00    -0.307 N 
ATOM     16  C   UNL     1       5.772  -4.114  26.301  0.00  0.00    +0.230 C 
ATOM     17  O   UNL     1       6.330  -3.254  26.999  0.00  0.00    -0.274 OA
ATOM     18  C   UNL     1       4.866  -6.505  26.329  0.00  0.00    +0.131 C 
ENDBRANCH   1  16
BRANCH   1  19
ATOM     19  C   UNL     1       5.305  -2.132  24.746  0.00  0.00    +0.041 C 
BRANCH  19  20
ATOM     20  C   UNL     1       6.403  -1.512  23.867  0.00  0.00    +0.086 C 
BRANCH  20  21
ATOM     21  N   UNL     1       7.033  -0.311  24.407  0.00  0.00    -0.302 NA
ATOM     22  C   UNL     1       6.412   0.919  23.922  0.00  0.00    +0.087 C 
ATOM     23  C   UNL     1       6.863   1.323  22.518  0.00  0.00    +0.055 C 
ATOM     24  C   UNL     1       8.399   1.359  22.356  0.00  0.00    +0.093 C 
ATOM     25  C   UNL     1       8.996   0.049  22.903  0.00  0.00    +0.055 C 
ATOM     26  C   UNL     1       8.495  -0.256  24.309  0.00  0.00    +0.087 C 
BRANCH  24  27
ATOM     27  C   UNL     1       9.110   2.599  22.915  0.00  0.00    -0.016 A 
ATOM     28  C   UNL     1       8.438   3.774  23.290  0.00  0.00    +0.008 A 
ATOM     29  C   UNL     1       9.135   4.901  23.741  0.00  0.00    +0.020 A 
ATOM     30  C   UNL     1      10.522   4.876  23.817  0.00  0.00    +0.041 A 
ATOM     31 CL   UNL     1      11.376   6.278  24.329  0.00  0.00    -0.084 Cl
ATOM     32  C   UNL     1      11.219   3.729  23.460  0.00  0.00    +0.020 A 
ATOM     33  C   UNL     1      10.519   2.605  23.011  0.00  0.00    +0.008 A 
ENDBRANCH  24  27
BRANCH  24  34
ATOM     34  O   UNL     1       8.670   1.401  20.941  0.00  0.00    -0.384 OA
ATOM     35  H   UNL     1       7.842   1.630  20.486  0.00  0.00    +0.211 HD
ENDBRANCH  24  34
ENDBRANCH  20  21
ENDBRANCH  19  20
ENDBRANCH   1  19
TORSDOF 8
ENDMDL
MODEL 4
REMARK VINA RESULT:      -7.4      1.593      2.636
REMARK  Name = 
REMARK  10 active torsions:
REMARK  status: ('A' for Active; 'I' for Inactive)
REMARK    1  A    between atoms: C_1  and  N_2
REMARK    2  A    between atoms: N_2  and  C_3
REMARK    3  A    between atoms: C_4  and  C_6
REMARK    4  A    between atoms: C_6  and  C_7
REMARK    5  A    between atoms: C_6  and  C_23
REMARK    6  A    between atoms: C_6  and  C_29
REMARK    7  A    between atoms: C_7  and  C_8
REMARK    8  A    between atoms: C_8  and  N_9
REMARK    9  A    between atoms: C_12  and  O_13
REMARK   10  A    between atoms: C_12  and  C_16
REMARK                            x       y       z     vdW  Elec       q    Type
REMARK                         _______ _______ _______ _____ _____    ______ ____
ROOT
ATOM      1  C   UNL     1       5.513  -4.276  24.028  0.00  0.00    +0.098 C 
ENDROOT
BRANCH   1   2
ATOM      2  C   UNL     1       6.894  -4.478  24.779  0.00  0.00    -0.028 A 
ATOM      3  C   UNL     1       8.105  -4.027  24.199  0.00  0.00    +0.005 A 
ATOM      4  C   UNL     1       9.328  -4.116  24.859  0.00  0.00    +0.000 A 
ATOM      5  C   UNL     1       9.391  -4.693  26.115  0.00  0.00    +0.000 A 
ATOM      6  C   UNL     1       8.239  -5.245  26.668  0.00  0.00    +0.000 A 
ATOM      7  C   UNL     1       7.015  -5.163  25.997  0.00  0.00    +0.005 A 
ENDBRANCH   1   2
BRANCH   1   8
ATOM      8  C   UNL     1       4.374  -5.231  24.542  0.00  0.00    -0.028 A 
ATOM      9  C   UNL     1       3.132  -4.705  24.967  0.00  0.00    +0.005 A 
ATOM     10  C   UNL     1       2.080  -5.528  25.393  0.00  0.00    +0.000 A 
ATOM     11  C   UNL     1       2.240  -6.908  25.436  0.00  0.00    +0.000 A 
ATOM     12  C   UNL     1       3.454  -7.459  25.058  0.00  0.00    +0.000 A 
ATOM     13  C   UNL     1       4.493  -6.634  24.611  0.00  0.00    +0.005 A 
ENDBRANCH   1   8
BRANCH   1  16
ATOM     14  C   UNL     1       6.152  -5.647  20.393  0.00  0.00    +0.131 C 
ATOM     15  N   UNL     1       6.158  -5.610  21.849  0.00  0.00    -0.307 N 
ATOM     16  C   UNL     1       5.682  -4.429  22.443  0.00  0.00    +0.230 C 
ATOM     17  O   UNL     1       5.368  -3.492  21.693  0.00  0.00    -0.274 OA
ATOM     18  C   UNL     1       6.892  -6.680  22.514  0.00  0.00    +0.131 C 
ENDBRANCH   1  16
BRANCH   1  19
ATOM     19  C   UNL     1       5.205  -2.739  24.309  0.00  0.00    +0.041 C 
BRANCH  19  20
ATOM     20  C   UNL     1       5.823  -2.000  25.507  0.00  0.00    +0.086 C 
BRANCH  20  21
ATOM     21  N   UNL     1       6.103  -0.584  25.292  0.00  0.00    -0.302 NA
ATOM     22  C   UNL     1       6.486  -0.287  23.914  0.00  0.00    +0.087 C 
ATOM     23  C   UNL     1       7.945  -0.615  23.597  0.00  0.00    +0.055 C 
ATOM     24  C   UNL     1       8.942  -0.007  24.608  0.00  0.00    +0.093 C 
ATOM     25  C   UNL     1       8.475  -0.335  26.039  0.00  0.00    +0.055 C 
ATOM     26  C   UNL     1       7.014   0.041  26.256  0.00  0.00    +0.087 C 
BRANCH  24  27
ATOM     27  C   UNL     1       9.264   1.482  24.430  0.00  0.00    -0.016 A 
ATOM     28  C   UNL     1       8.444   2.515  24.913  0.00  0.00    +0.008 A 
ATOM     29  C   UNL     1       8.749   3.861  24.676  0.00  0.00    +0.020 A 
ATOM     30  C   UNL     1       9.880   4.199  23.943  0.00  0.00    +0.041 A 
ATOM     31 CL   UNL     1      10.225   5.852  23.617  0.00  0.00    -0.084 Cl
ATOM     32  C   UNL     1      10.716   3.203  23.454  0.00  0.00    +0.020 A 
ATOM     33  C   UNL     1      10.409   1.860  23.694  0.00  0.00    +0.008 A 
ENDBRANCH  24  27
BRANCH  24  34
ATOM     34  O   UNL     1      10.205  -0.671  24.402  0.00  0.00    -0.384 OA
ATOM     35  H   UNL     1      10.528  -0.973  25.267  0.00  0.00    +0.211 HD
ENDBRANCH  24  34
ENDBRANCH  20  21
ENDBRANCH  19  20
ENDBRANCH   1  19
TORSDOF 8
ENDMDL
MODEL 5
REMARK VINA RESULT:      -7.2      2.060      4.261
REMARK  Name = 
REMARK  10 active torsions:
REMARK  status: ('A' for Active; 'I' for Inactive)
REMARK    1  A    between atoms: C_1  and  N_2
REMARK    2  A    between atoms: N_2  and  C_3
REMARK    3  A    between atoms: C_4  and  C_6
REMARK    4  A    between atoms: C_6  and  C_7
REMARK    5  A    between atoms: C_6  and  C_23
REMARK    6  A    between atoms: C_6  and  C_29
REMARK    7  A    between atoms: C_7  and  C_8
REMARK    8  A    between atoms: C_8  and  N_9
REMARK    9  A    between atoms: C_12  and  O_13
REMARK   10  A    between atoms: C_12  and  C_16
REMARK                            x       y       z     vdW  Elec       q    Type
REMARK                         _______ _______ _______ _____ _____    ______ ____
ROOT
ATOM      1  C   UNL     1       5.976  -4.611  25.239  0.00  0.00    +0.098 C 
ENDROOT
BRANCH   1   2
ATOM      2  C   UNL     1       4.736  -5.359  25.882  0.00  0.00    -0.028 A 
ATOM      3  C   UNL     1       4.066  -4.814  27.006  0.00  0.00    +0.005 A 
ATOM      4  C   UNL     1       2.928  -5.399  27.553  0.00  0.00    +0.000 A 
ATOM      5  C   UNL     1       2.433  -6.574  27.017  0.00  0.00    +0.000 A 
ATOM      6  C   UNL     1       3.128  -7.195  25.982  0.00  0.00    +0.000 A 
ATOM      7  C   UNL     1       4.278  -6.610  25.444  0.00  0.00    +0.005 A 
ENDBRANCH   1   2
BRANCH   1   8
ATOM      8  C   UNL     1       6.052  -4.755  23.674  0.00  0.00    -0.028 A 
ATOM      9  C   UNL     1       5.734  -3.660  22.836  0.00  0.00    +0.005 A 
ATOM     10  C   UNL     1       5.830  -3.739  21.439  0.00  0.00    +0.000 A 
ATOM     11  C   UNL     1       6.221  -4.924  20.827  0.00  0.00    +0.000 A 
ATOM     12  C   UNL     1       6.509  -6.027  21.614  0.00  0.00    +0.000 A 
ATOM     13  C   UNL     1       6.435  -5.937  23.009  0.00  0.00    +0.005 A 
ENDBRANCH   1   8
BRANCH   1  16
ATOM     14  C   UNL     1       9.759  -5.029  26.246  0.00  0.00    +0.131 C 
ATOM     15  N   UNL     1       8.599  -4.592  25.480  0.00  0.00    -0.307 N 
ATOM     16  C   UNL     1       7.354  -5.088  25.900  0.00  0.00    +0.230 C 
ATOM     17  O   UNL     1       7.344  -5.910  26.829  0.00  0.00    -0.274 OA
ATOM     18  C   UNL     1       8.882  -3.910  24.222  0.00  0.00    +0.131 C 
ENDBRANCH   1  16
BRANCH   1  19
ATOM     19  C   UNL     1       5.739  -3.109  25.711  0.00  0.00    +0.041 C 
BRANCH  19  20
ATOM     20  C   UNL     1       6.749  -2.379  26.612  0.00  0.00    +0.086 C 
BRANCH  20  21
ATOM     21  N   UNL     1       6.841  -0.937  26.409  0.00  0.00    -0.302 NA
ATOM     22  C   UNL     1       6.581  -0.543  25.026  0.00  0.00    +0.087 C 
ATOM     23  C   UNL     1       7.778  -0.741  24.096  0.00  0.00    +0.055 C 
ATOM     24  C   UNL     1       9.081  -0.109  24.632  0.00  0.00    +0.093 C 
ATOM     25  C   UNL     1       9.288  -0.542  26.096  0.00  0.00    +0.055 C 
ATOM     26  C   UNL     1       8.045  -0.291  26.940  0.00  0.00    +0.087 C 
BRANCH  24  27
ATOM     27  C   UNL     1       9.222   1.408  24.450  0.00  0.00    -0.016 A 
ATOM     28  C   UNL     1       8.259   2.333  24.885  0.00  0.00    +0.008 A 
ATOM     29  C   UNL     1       8.403   3.705  24.645  0.00  0.00    +0.020 A 
ATOM     30  C   UNL     1       9.515   4.177  23.958  0.00  0.00    +0.041 A 
ATOM     31 CL   UNL     1       9.666   5.858  23.628  0.00  0.00    -0.084 Cl
ATOM     32  C   UNL     1      10.491   3.291  23.519  0.00  0.00    +0.020 A 
ATOM     33  C   UNL     1      10.343   1.922  23.762  0.00  0.00    +0.008 A 
ENDBRANCH  24  27
BRANCH  24  34
ATOM     34  O   UNL     1      10.164  -0.662  23.859  0.00  0.00    -0.384 OA
ATOM     35  H   UNL     1      10.419  -1.507  24.266  0.00  0.00    +0.211 HD
ENDBRANCH  24  34
ENDBRANCH  20  21
ENDBRANCH  19  20
ENDBRANCH   1  19
TORSDOF 8
ENDMDL
MODEL 6
REMARK VINA RESULT:      -7.1      3.611      8.219
REMARK  Name = 
REMARK  10 active torsions:
REMARK  status: ('A' for Active; 'I' for Inactive)
REMARK    1  A    between atoms: C_1  and  N_2
REMARK    2  A    between atoms: N_2  and  C_3
REMARK    3  A    between atoms: C_4  and  C_6
REMARK    4  A    between atoms: C_6  and  C_7
REMARK    5  A    between atoms: C_6  and  C_23
REMARK    6  A    between atoms: C_6  and  C_29
REMARK    7  A    between atoms: C_7  and  C_8
REMARK    8  A    between atoms: C_8  and  N_9
REMARK    9  A    between atoms: C_12  and  O_13
REMARK   10  A    between atoms: C_12  and  C_16
REMARK                            x       y       z     vdW  Elec       q    Type
REMARK                         _______ _______ _______ _____ _____    ______ ____
ROOT
ATOM      1  C   UNL     1       7.831  -0.765  25.123  0.00  0.00    +0.098 C 
ENDROOT
BRANCH   1   2
ATOM      2  C   UNL     1       8.428  -2.222  25.295  0.00  0.00    -0.028 A 
ATOM      3  C   UNL     1       8.137  -2.991  26.448  0.00  0.00    +0.005 A 
ATOM      4  C   UNL     1       8.578  -4.302  26.603  0.00  0.00    +0.000 A 
ATOM      5  C   UNL     1       9.361  -4.885  25.622  0.00  0.00    +0.000 A 
ATOM      6  C   UNL     1       9.757  -4.122  24.526  0.00  0.00    +0.000 A 
ATOM      7  C   UNL     1       9.320  -2.802  24.381  0.00  0.00    +0.005 A 
ENDBRANCH   1   2
BRANCH   1   8
ATOM      8  C   UNL     1       8.585   0.099  24.045  0.00  0.00    -0.028 A 
ATOM      9  C   UNL     1       9.732   0.848  24.398  0.00  0.00    +0.005 A 
ATOM     10  C   UNL     1      10.452   1.596  23.456  0.00  0.00    +0.000 A 
ATOM     11  C   UNL     1      10.038   1.644  22.131  0.00  0.00    +0.000 A 
ATOM     12  C   UNL     1       8.900   0.949  21.754  0.00  0.00    +0.000 A 
ATOM     13  C   UNL     1       8.197   0.185  22.693  0.00  0.00    +0.005 A 
ENDBRANCH   1   8
BRANCH   1  16
ATOM     14  C   UNL     1       6.960   1.698  28.069  0.00  0.00    +0.131 C 
ATOM     15  N   UNL     1       6.986   1.156  26.717  0.00  0.00    -0.307 N 
ATOM     16  C   UNL     1       7.787   0.019  26.519  0.00  0.00    +0.230 C 
ATOM     17  O   UNL     1       8.462  -0.386  27.478  0.00  0.00    -0.274 OA
ATOM     18  C   UNL     1       6.399   1.994  25.679  0.00  0.00    +0.131 C 
ENDBRANCH   1  16
BRANCH   1  19
ATOM     19  C   UNL     1       6.320  -1.070  24.723  0.00  0.00    +0.041 C 
BRANCH  19  20
ATOM     20  C   UNL     1       5.328  -1.675  25.730  0.00  0.00    +0.086 C 
BRANCH  20  21
ATOM     21  N   UNL     1       4.279  -2.509  25.151  0.00  0.00    -0.302 NA
ATOM     22  C   UNL     1       3.543  -3.269  26.158  0.00  0.00    +0.087 C 
ATOM     23  C   UNL     1       4.270  -4.529  26.631  0.00  0.00    +0.055 C 
ATOM     24  C   UNL     1       4.746  -5.431  25.472  0.00  0.00    +0.093 C 
ATOM     25  C   UNL     1       5.494  -4.571  24.436  0.00  0.00    +0.055 C 
ATOM     26  C   UNL     1       4.681  -3.351  24.021  0.00  0.00    +0.087 C 
BRANCH  24  27
ATOM     27  C   UNL     1       3.678  -6.322  24.824  0.00  0.00    -0.016 A 
ATOM     28  C   UNL     1       3.255  -7.545  25.369  0.00  0.00    +0.008 A 
ATOM     29  C   UNL     1       2.319  -8.352  24.713  0.00  0.00    +0.020 A 
ATOM     30  C   UNL     1       1.792  -7.952  23.491  0.00  0.00    +0.041 A 
ATOM     31 CL   UNL     1       0.675  -8.969  22.667  0.00  0.00    -0.084 Cl
ATOM     32  C   UNL     1       2.183  -6.746  22.924  0.00  0.00    +0.020 A 
ATOM     33  C   UNL     1       3.118  -5.942  23.585  0.00  0.00    +0.008 A 
ENDBRANCH  24  27
BRANCH  24  34
ATOM     34  O   UNL     1       5.695  -6.362  26.029  0.00  0.00    -0.384 OA
ATOM     35  H   UNL     1       5.266  -6.815  26.774  0.00  0.00    +0.211 HD
ENDBRANCH  24  34
ENDBRANCH  20  21
ENDBRANCH  19  20
ENDBRANCH   1  19
TORSDOF 8
ENDMDL
MODEL 7
REMARK VINA RESULT:      -7.0      3.691      8.477
REMARK  Name = 
REMARK  10 active torsions:
REMARK  status: ('A' for Active; 'I' for Inactive)
REMARK    1  A    between atoms: C_1  and  N_2
REMARK    2  A    between atoms: N_2  and  C_3
REMARK    3  A    between atoms: C_4  and  C_6
REMARK    4  A    between atoms: C_6  and  C_7
REMARK    5  A    between atoms: C_6  and  C_23
REMARK    6  A    between atoms: C_6  and  C_29
REMARK    7  A    between atoms: C_7  and  C_8
REMARK    8  A    between atoms: C_8  and  N_9
REMARK    9  A    between atoms: C_12  and  O_13
REMARK   10  A    between atoms: C_12  and  C_16
REMARK                            x       y       z     vdW  Elec       q    Type
REMARK                         _______ _______ _______ _____ _____    ______ ____
ROOT
ATOM      1  C   UNL     1       7.557   3.825  23.928  0.00  0.00    +0.098 C 
ENDROOT
BRANCH   1   2
ATOM      2  C   UNL     1       8.548   4.937  24.469  0.00  0.00    -0.028 A 
ATOM      3  C   UNL     1       8.290   5.600  25.694  0.00  0.00    +0.005 A 
ATOM      4  C   UNL     1       9.173   6.527  26.241  0.00  0.00    +0.000 A 
ATOM      5  C   UNL     1      10.335   6.853  25.565  0.00  0.00    +0.000 A 
ATOM      6  C   UNL     1      10.567   6.301  24.307  0.00  0.00    +0.000 A 
ATOM      7  C   UNL     1       9.672   5.380  23.756  0.00  0.00    +0.005 A 
ENDBRANCH   1   2
BRANCH   1   8
ATOM      8  C   UNL     1       8.261   2.740  23.032  0.00  0.00    -0.028 A 
ATOM      9  C   UNL     1       9.552   2.262  23.362  0.00  0.00    +0.005 A 
ATOM     10  C   UNL     1      10.192   1.267  22.611  0.00  0.00    +0.000 A 
ATOM     11  C   UNL     1       9.579   0.731  21.485  0.00  0.00    +0.000 A 
ATOM     12  C   UNL     1       8.328   1.196  21.112  0.00  0.00    +0.000 A 
ATOM     13  C   UNL     1       7.682   2.173  21.879  0.00  0.00    +0.005 A 
ENDBRANCH   1   8
BRANCH   1  16
ATOM     14  C   UNL     1       3.973   4.783  22.610  0.00  0.00    +0.131 C 
ATOM     15  N   UNL     1       5.004   4.028  23.308  0.00  0.00    -0.307 N 
ATOM     16  C   UNL     1       6.326   4.473  23.136  0.00  0.00    +0.230 C 
ATOM     17  O   UNL     1       6.520   5.415  22.353  0.00  0.00    -0.274 OA
ATOM     18  C   UNL     1       4.586   2.755  23.886  0.00  0.00    +0.131 C 
ENDBRANCH   1  16
BRANCH   1  19
ATOM     19  C   UNL     1       6.966   3.222  25.278  0.00  0.00    +0.041 C 
BRANCH  19  20
ATOM     20  C   UNL     1       7.673   2.080  26.026  0.00  0.00    +0.086 C 
BRANCH  20  21
ATOM     21  N   UNL     1       6.868   0.882  26.245  0.00  0.00    -0.302 NA
ATOM     22  C   UNL     1       7.461  -0.026  27.223  0.00  0.00    +0.087 C 
ATOM     23  C   UNL     1       8.583  -0.895  26.654  0.00  0.00    +0.055 C 
ATOM     24  C   UNL     1       8.185  -1.635  25.358  0.00  0.00    +0.093 C 
ATOM     25  C   UNL     1       7.547  -0.633  24.378  0.00  0.00    +0.055 C 
ATOM     26  C   UNL     1       6.435   0.173  25.038  0.00  0.00    +0.087 C 
BRANCH  24  27
ATOM     27  C   UNL     1       7.331  -2.898  25.534  0.00  0.00    -0.016 A 
ATOM     28  C   UNL     1       7.260  -3.623  26.735  0.00  0.00    +0.008 A 
ATOM     29  C   UNL     1       6.512  -4.802  26.832  0.00  0.00    +0.020 A 
ATOM     30  C   UNL     1       5.824  -5.283  25.724  0.00  0.00    +0.041 A 
ATOM     31 CL   UNL     1       4.943  -6.755  25.837  0.00  0.00    -0.084 Cl
ATOM     32  C   UNL     1       5.868  -4.588  24.522  0.00  0.00    +0.020 A 
ATOM     33  C   UNL     1       6.615  -3.410  24.430  0.00  0.00    +0.008 A 
ENDBRANCH  24  27
BRANCH  24  34
ATOM     34  O   UNL     1       9.405  -2.113  24.757  0.00  0.00    -0.384 OA
ATOM     35  H   UNL     1      10.145  -1.631  25.163  0.00  0.00    +0.211 HD
ENDBRANCH  24  34
ENDBRANCH  20  21
ENDBRANCH  19  20
ENDBRANCH   1  19
TORSDOF 8
ENDMDL
MODEL 8
REMARK VINA RESULT:      -6.9      3.625      8.327
REMARK  Name = 
REMARK  10 active torsions:
REMARK  status: ('A' for Active; 'I' for Inactive)
REMARK    1  A    between atoms: C_1  and  N_2
REMARK    2  A    between atoms: N_2  and  C_3
REMARK    3  A    between atoms: C_4  and  C_6
REMARK    4  A    between atoms: C_6  and  C_7
REMARK    5  A    between atoms: C_6  and  C_23
REMARK    6  A    between atoms: C_6  and  C_29
REMARK    7  A    between atoms: C_7  and  C_8
REMARK    8  A    between atoms: C_8  and  N_9
REMARK    9  A    between atoms: C_12  and  O_13
REMARK   10  A    between atoms: C_12  and  C_16
REMARK                            x       y       z     vdW  Elec       q    Type
REMARK                         _______ _______ _______ _____ _____    ______ ____
ROOT
ATOM      1  C   UNL     1       7.453   2.388  24.488  0.00  0.00    +0.098 C 
ENDROOT
BRANCH   1   2
ATOM      2  C   UNL     1       8.082   3.784  24.896  0.00  0.00    -0.028 A 
ATOM      3  C   UNL     1       9.216   4.292  24.217  0.00  0.00    +0.005 A 
ATOM      4  C   UNL     1       9.752   5.547  24.493  0.00  0.00    +0.000 A 
ATOM      5  C   UNL     1       9.193   6.330  25.486  0.00  0.00    +0.000 A 
ATOM      6  C   UNL     1       8.146   5.817  26.248  0.00  0.00    +0.000 A 
ATOM      7  C   UNL     1       7.618   4.551  25.974  0.00  0.00    +0.005 A 
ENDBRANCH   1   2
BRANCH   1   8
ATOM      8  C   UNL     1       8.315   1.597  23.435  0.00  0.00    -0.028 A 
ATOM      9  C   UNL     1       9.547   1.012  23.809  0.00  0.00    +0.005 A 
ATOM     10  C   UNL     1      10.321   0.266  22.909  0.00  0.00    +0.000 A 
ATOM     11  C   UNL     1       9.905   0.099  21.593  0.00  0.00    +0.000 A 
ATOM     12  C   UNL     1       8.719   0.684  21.181  0.00  0.00    +0.000 A 
ATOM     13  C   UNL     1       7.937   1.408  22.090  0.00  0.00    +0.005 A 
ENDBRANCH   1   8
BRANCH   1  16
ATOM     14  C   UNL     1       4.231   3.451  22.490  0.00  0.00    +0.131 C 
ATOM     15  N   UNL     1       5.610   3.487  22.960  0.00  0.00    -0.307 N 
ATOM     16  C   UNL     1       5.953   2.555  23.953  0.00  0.00    +0.230 C 
ATOM     17  O   UNL     1       5.051   1.832  24.403  0.00  0.00    -0.274 OA
ATOM     18  C   UNL     1       6.398   4.643  22.546  0.00  0.00    +0.131 C 
ENDBRANCH   1  16
BRANCH   1  19
ATOM     19  C   UNL     1       7.358   1.643  25.892  0.00  0.00    +0.041 C 
BRANCH  19  20
ATOM     20  C   UNL     1       7.864   0.204  26.075  0.00  0.00    +0.086 C 
BRANCH  20  21
ATOM     21  N   UNL     1       6.845  -0.836  25.977  0.00  0.00    -0.302 NA
ATOM     22  C   UNL     1       7.125  -1.985  26.834  0.00  0.00    +0.087 C 
ATOM     23  C   UNL     1       8.155  -2.952  26.249  0.00  0.00    +0.055 C 
ATOM     24  C   UNL     1       7.832  -3.387  24.802  0.00  0.00    +0.093 C 
ATOM     25  C   UNL     1       7.526  -2.137  23.955  0.00  0.00    +0.055 C 
ATOM     26  C   UNL     1       6.480  -1.248  24.618  0.00  0.00    +0.087 C 
BRANCH  24  27
ATOM     27  C   UNL     1       6.760  -4.473  24.644  0.00  0.00    -0.016 A 
ATOM     28  C   UNL     1       6.091  -4.730  23.437  0.00  0.00    +0.008 A 
ATOM     29  C   UNL     1       5.078  -5.693  23.354  0.00  0.00    +0.020 A 
ATOM     30  C   UNL     1       4.710  -6.413  24.484  0.00  0.00    +0.041 A 
ATOM     31 CL   UNL     1       3.435  -7.563  24.388  0.00  0.00    -0.084 Cl
ATOM     32  C   UNL     1       5.354  -6.188  25.694  0.00  0.00    +0.020 A 
ATOM     33  C   UNL     1       6.366  -5.226  25.771  0.00  0.00    +0.008 A 
ENDBRANCH  24  27
BRANCH  24  34
ATOM     34  O   UNL     1       9.029  -3.988  24.270  0.00  0.00    -0.384 OA
ATOM     35  H   UNL     1       9.720  -3.932  24.950  0.00  0.00    +0.211 HD
ENDBRANCH  24  34
ENDBRANCH  20  21
ENDBRANCH  19  20
ENDBRANCH   1  19
TORSDOF 8
ENDMDL
MODEL 9
REMARK VINA RESULT:      -6.9      3.645      8.478
REMARK  Name = 
REMARK  10 active torsions:
REMARK  status: ('A' for Active; 'I' for Inactive)
REMARK    1  A    between atoms: C_1  and  N_2
REMARK    2  A    between atoms: N_2  and  C_3
REMARK    3  A    between atoms: C_4  and  C_6
REMARK    4  A    between atoms: C_6  and  C_7
REMARK    5  A    between atoms: C_6  and  C_23
REMARK    6  A    between atoms: C_6  and  C_29
REMARK    7  A    between atoms: C_7  and  C_8
REMARK    8  A    between atoms: C_8  and  N_9
REMARK    9  A    between atoms: C_12  and  O_13
REMARK   10  A    between atoms: C_12  and  C_16
REMARK                            x       y       z     vdW  Elec       q    Type
REMARK                         _______ _______ _______ _____ _____    ______ ____
ROOT
ATOM      1  C   UNL     1       8.021   3.202  24.549  0.00  0.00    +0.098 C 
ENDROOT
BRANCH   1   2
ATOM      2  C   UNL     1       7.418   3.624  25.953  0.00  0.00    -0.028 A 
ATOM      3  C   UNL     1       7.291   2.678  26.999  0.00  0.00    +0.005 A 
ATOM      4  C   UNL     1       6.839   3.024  28.269  0.00  0.00    +0.000 A 
ATOM      5  C   UNL     1       6.461   4.329  28.532  0.00  0.00    +0.000 A 
ATOM      6  C   UNL     1       6.470   5.261  27.498  0.00  0.00    +0.000 A 
ATOM      7  C   UNL     1       6.914   4.905  26.221  0.00  0.00    +0.005 A 
ENDBRANCH   1   2
BRANCH   1   8
ATOM      8  C   UNL     1       9.332   3.985  24.169  0.00  0.00    -0.028 A 
ATOM      9  C   UNL     1      10.471   3.293  23.696  0.00  0.00    +0.005 A 
ATOM     10  C   UNL     1      11.642   3.961  23.310  0.00  0.00    +0.000 A 
ATOM     11  C   UNL     1      11.727   5.345  23.407  0.00  0.00    +0.000 A 
ATOM     12  C   UNL     1      10.642   6.055  23.896  0.00  0.00    +0.000 A 
ATOM     13  C   UNL     1       9.467   5.385  24.259  0.00  0.00    +0.005 A 
ENDBRANCH   1   8
BRANCH   1  16
ATOM     14  C   UNL     1       4.690   3.338  22.455  0.00  0.00    +0.131 C 
ATOM     15  N   UNL     1       5.578   3.052  23.574  0.00  0.00    -0.307 N 
ATOM     16  C   UNL     1       6.938   3.347  23.379  0.00  0.00    +0.230 C 
ATOM     17  O   UNL     1       7.286   3.752  22.260  0.00  0.00    -0.274 OA
ATOM     18  C   UNL     1       5.010   2.258  24.657  0.00  0.00    +0.131 C 
ENDBRANCH   1  16
BRANCH   1  19
ATOM     19  C   UNL     1       8.270   1.642  24.751  0.00  0.00    +0.041 C 
BRANCH  19  20
ATOM     20  C   UNL     1       8.102   0.645  23.594  0.00  0.00    +0.086 C 
BRANCH  20  21
ATOM     21  N   UNL     1       7.105  -0.400  23.807  0.00  0.00    -0.302 NA
ATOM     22  C   UNL     1       7.185  -0.993  25.139  0.00  0.00    +0.087 C 
ATOM     23  C   UNL     1       8.294  -2.036  25.282  0.00  0.00    +0.055 C 
ATOM     24  C   UNL     1       8.264  -3.116  24.179  0.00  0.00    +0.093 C 
ATOM     25  C   UNL     1       8.157  -2.432  22.803  0.00  0.00    +0.055 C 
ATOM     26  C   UNL     1       7.016  -1.423  22.761  0.00  0.00    +0.087 C 
BRANCH  24  27
ATOM     27  C   UNL     1       7.226  -4.233  24.353  0.00  0.00    -0.016 A 
ATOM     28  C   UNL     1       6.598  -4.881  23.277  0.00  0.00    +0.008 A 
ATOM     29  C   UNL     1       5.615  -5.855  23.485  0.00  0.00    +0.020 A 
ATOM     30  C   UNL     1       5.234  -6.194  24.778  0.00  0.00    +0.041 A 
ATOM     31 CL   UNL     1       3.994  -7.359  25.027  0.00  0.00    -0.084 Cl
ATOM     32  C   UNL     1       5.838  -5.577  25.866  0.00  0.00    +0.020 A 
ATOM     33  C   UNL     1       6.821  -4.606  25.653  0.00  0.00    +0.008 A 
ENDBRANCH  24  27
BRANCH  24  34
ATOM     34  O   UNL     1       9.532  -3.799  24.226  0.00  0.00    -0.384 OA
ATOM     35  H   UNL     1       9.357  -4.746  24.358  0.00  0.00    +0.211 HD
ENDBRANCH  24  34
ENDBRANCH  20  21
ENDBRANCH  19  20
ENDBRANCH   1  19
TORSDOF 8
ENDMDL
