MODEL 1
REMARK VINA RESULT:      -7.3      0.000      0.000
REMARK  Name = 
REMARK  4 active torsions:
REMARK  status: ('A' for Active; 'I' for Inactive)
REMARK    1  A    between atoms: N_1  and  S_2
REMARK    2  A    between atoms: S_2  and  C_5
REMARK    3  A    between atoms: C_10  and  C_12
REMARK    4  A    between atoms: C_12  and  O_13
REMARK                            x       y       z     vdW  Elec       q    Type
REMARK                         _______ _______ _______ _____ _____    ______ ____
ROOT
ATOM      1  C   UNL     1       8.293  -0.225  23.451  0.00  0.00    +0.124 A 
ATOM      2  C   UNL     1       8.101  -1.451  24.112  0.00  0.00    +0.038 A 
ATOM      3  C   UNL     1       9.046  -2.493  24.016  0.00  0.00    +0.009 A 
ATOM      4  C   UNL     1      10.212  -2.249  23.272  0.00  0.00    +0.010 A 
ATOM      5  C   UNL     1      10.404  -1.029  22.615  0.00  0.00    +0.022 A 
ATOM      6  C   UNL     1       9.443  -0.014  22.692  0.00  0.00    +0.067 A 
ATOM      7 CL   UNL     1       9.781   1.442  21.829  0.00  0.00    -0.082 Cl
ENDROOT
BRANCH   3   8
ATOM      8  C   UNL     1       8.803  -3.815  24.728  0.00  0.00    +0.187 C 
ATOM      9  C   UNL     1       7.633  -4.605  24.220  0.00  0.00    +0.019 A 
ATOM     10  C   UNL     1       6.803  -4.940  25.291  0.00  0.00    +0.045 A 
ATOM     11  C   UNL     1       5.664  -5.712  25.150  0.00  0.00    +0.013 A 
ATOM     12  C   UNL     1       5.350  -6.156  23.865  0.00  0.00    +0.001 A 
ATOM     13  C   UNL     1       6.171  -5.823  22.771  0.00  0.00    +0.000 A 
ATOM     14  C   UNL     1       7.380  -4.354  26.503  0.00  0.00    +0.247 C 
ATOM     15  O   UNL     1       6.939  -4.460  27.631  0.00  0.00    -0.270 OA
ATOM     16  C   UNL     1       7.323  -5.048  22.943  0.00  0.00    +0.009 A 
ATOM     17  N   UNL     1       8.506  -3.660  26.121  0.00  0.00    -0.276 N 
ATOM     18  H   UNL     1       9.132  -3.280  26.811  0.00  0.00    +0.152 HD
BRANCH   8  19
ATOM     19  O   UNL     1       9.956  -4.630  24.683  0.00  0.00    -0.364 OA
ATOM     20  H   UNL     1      10.639  -4.108  24.236  0.00  0.00    +0.213 HD
ENDBRANCH   8  19
ENDBRANCH   3   8
BRANCH   1  21
ATOM     21  S   UNL     1       7.031   1.001  23.582  0.00  0.00    +0.057 S 
ATOM     22  O   UNL     1       7.422   1.987  24.559  0.00  0.00    -0.153 OA
ATOM     23  O   UNL     1       6.611   1.376  22.251  0.00  0.00    -0.153 OA
BRANCH  21  24
ATOM     24  N   UNL     1       5.731   0.150  24.213  0.00  0.00    -0.203 NA
ATOM     25  H   UNL     1       5.052   0.797  24.617  0.00  0.00    +0.144 HD
ATOM     26  H   UNL     1       5.340  -0.466  23.499  0.00  0.00    +0.144 HD
ENDBRANCH  21  24
ENDBRANCH   1  21
TORSDOF 4
ENDMDL
MODEL 2
REMARK VINA RESULT:      -7.2      1.917      2.221
REMARK  Name = 
REMARK  4 active torsions:
REMARK  status: ('A' for Active; 'I' for Inactive)
REMARK    1  A    between atoms: N_1  and  S_2
REMARK    2  A    between atoms: S_2  and  C_5
REMARK    3  A    between atoms: C_10  and  C_12
REMARK    4  A    between atoms: C_12  and  O_13
REMARK                            x       y       z     vdW  Elec       q    Type
REMARK                         _______ _______ _______ _____ _____    ______ ____
ROOT
ATOM      1  C   UNL     1       8.892  -0.159  23.709  0.00  0.00    +0.124 A 
ATOM      2  C   UNL     1       8.848  -1.561  23.805  0.00  0.00    +0.038 A 
ATOM      3  C   UNL     1       8.685  -2.206  25.048  0.00  0.00    +0.009 A 
ATOM      4  C   UNL     1       8.524  -1.399  26.186  0.00  0.00    +0.010 A 
ATOM      5  C   UNL     1       8.569  -0.004  26.090  0.00  0.00    +0.022 A 
ATOM      6  C   UNL     1       8.763   0.624  24.854  0.00  0.00    +0.067 A 
ATOM      7 CL   UNL     1       8.814   2.350  24.860  0.00  0.00    -0.082 Cl
ENDROOT
BRANCH   3   8
ATOM      8  C   UNL     1       8.657  -3.725  25.124  0.00  0.00    +0.187 C 
ATOM      9  C   UNL     1       7.422  -4.369  24.566  0.00  0.00    +0.019 A 
ATOM     10  C   UNL     1       6.885  -5.237  25.516  0.00  0.00    +0.045 A 
ATOM     11  C   UNL     1       5.768  -6.017  25.280  0.00  0.00    +0.013 A 
ATOM     12  C   UNL     1       5.165  -5.904  24.026  0.00  0.00    +0.001 A 
ATOM     13  C   UNL     1       5.688  -5.029  23.056  0.00  0.00    +0.000 A 
ATOM     14  C   UNL     1       7.721  -5.158  26.717  0.00  0.00    +0.247 C 
ATOM     15  O   UNL     1       7.568  -5.794  27.741  0.00  0.00    -0.270 OA
ATOM     16  C   UNL     1       6.826  -4.257  23.319  0.00  0.00    +0.009 A 
ATOM     17  N   UNL     1       8.701  -4.224  26.466  0.00  0.00    -0.276 N 
ATOM     18  H   UNL     1       9.464  -4.097  27.110  0.00  0.00    +0.152 HD
BRANCH   8  19
ATOM     19  O   UNL     1       9.788  -4.282  24.485  0.00  0.00    -0.364 OA
ATOM     20  H   UNL     1       9.626  -5.236  24.433  0.00  0.00    +0.213 HD
ENDBRANCH   8  19
ENDBRANCH   3   8
BRANCH   1  21
ATOM     21  S   UNL     1       9.156   0.560  22.119  0.00  0.00    +0.057 S 
ATOM     22  O   UNL     1       7.934   1.180  21.668  0.00  0.00    -0.153 OA
ATOM     23  O   UNL     1      10.410   1.279  22.138  0.00  0.00    -0.153 OA
BRANCH  21  24
ATOM     24  N   UNL     1       9.443  -0.768  21.137  0.00  0.00    -0.203 NA
ATOM     25  H   UNL     1       8.734  -0.822  20.404  0.00  0.00    +0.144 HD
ATOM     26  H   UNL     1      10.400  -0.736  20.783  0.00  0.00    +0.144 HD
ENDBRANCH  21  24
ENDBRANCH   1  21
TORSDOF 4
ENDMDL
MODEL 3
REMARK VINA RESULT:      -7.0      2.356      2.936
REMARK  Name = 
REMARK  4 active torsions:
REMARK  status: ('A' for Active; 'I' for Inactive)
REMARK    1  A    between atoms: N_1  and  S_2
REMARK    2  A    between atoms: S_2  and  C_5
REMARK    3  A    between atoms: C_10  and  C_12
REMARK    4  A    between atoms: C_12  and  O_13
REMARK                            x       y       z     vdW  Elec       q    Type
REMARK                         _______ _______ _______ _____ _____    ______ ____
ROOT
ATOM      1  C   UNL     1       8.769   1.296  23.942  0.00  0.00    +0.124 A 
ATOM      2  C   UNL     1       9.060   0.002  23.476  0.00  0.00    +0.038 A 
ATOM      3  C   UNL     1       8.785  -1.138  24.257  0.00  0.00    +0.009 A 
ATOM      4  C   UNL     1       8.168  -0.942  25.503  0.00  0.00    +0.010 A 
ATOM      5  C   UNL     1       7.879   0.345  25.968  0.00  0.00    +0.022 A 
ATOM      6  C   UNL     1       8.186   1.472  25.196  0.00  0.00    +0.067 A 
ATOM      7 CL   UNL     1       7.797   3.010  25.877  0.00  0.00    -0.082 Cl
ENDROOT
BRANCH   3   8
ATOM      8  C   UNL     1       9.126  -2.525  23.733  0.00  0.00    +0.187 C 
ATOM      9  C   UNL     1       7.981  -3.272  23.115  0.00  0.00    +0.019 A 
ATOM     10  C   UNL     1       7.882  -4.533  23.705  0.00  0.00    +0.045 A 
ATOM     11  C   UNL     1       6.952  -5.478  23.313  0.00  0.00    +0.013 A 
ATOM     12  C   UNL     1       6.078  -5.123  22.284  0.00  0.00    +0.001 A 
ATOM     13  C   UNL     1       6.158  -3.854  21.681  0.00  0.00    +0.000 A 
ATOM     14  C   UNL     1       8.921  -4.628  24.734  0.00  0.00    +0.247 C 
ATOM     15  O   UNL     1       9.149  -5.594  25.436  0.00  0.00    -0.270 OA
ATOM     16  C   UNL     1       7.116  -2.920  22.091  0.00  0.00    +0.009 A 
ATOM     17  N   UNL     1       9.579  -3.419  24.757  0.00  0.00    -0.276 N 
ATOM     18  H   UNL     1      10.415  -3.302  25.305  0.00  0.00    +0.152 HD
BRANCH   8  19
ATOM     19  O   UNL     1      10.186  -2.464  22.800  0.00  0.00    -0.364 OA
ATOM     20  H   UNL     1      10.557  -1.572  22.871  0.00  0.00    +0.213 HD
ENDBRANCH   8  19
ENDBRANCH   3   8
BRANCH   1  21
ATOM     21  S   UNL     1       9.199   2.669  22.920  0.00  0.00    +0.057 S 
ATOM     22  O   UNL     1       7.997   3.340  22.491  0.00  0.00    -0.153 OA
ATOM     23  O   UNL     1      10.289   3.387  23.543  0.00  0.00    -0.153 OA
BRANCH  21  24
ATOM     24  N   UNL     1       9.884   1.946  21.571  0.00  0.00    -0.203 NA
ATOM     25  H   UNL     1       9.554   0.983  21.483  0.00  0.00    +0.144 HD
ATOM     26  H   UNL     1       9.709   2.519  20.744  0.00  0.00    +0.144 HD
ENDBRANCH  21  24
ENDBRANCH   1  21
TORSDOF 4
ENDMDL
MODEL 4
REMARK VINA RESULT:      -6.7      3.319      6.525
REMARK  Name = 
REMARK  4 active torsions:
REMARK  status: ('A' for Active; 'I' for Inactive)
REMARK    1  A    between atoms: N_1  and  S_2
REMARK    2  A    between atoms: S_2  and  C_5
REMARK    3  A    between atoms: C_10  and  C_12
REMARK    4  A    between atoms: C_12  and  O_13
REMARK                            x       y       z     vdW  Elec       q    Type
REMARK                         _______ _______ _______ _____ _____    ______ ____
ROOT
ATOM      1  C   UNL     1       8.360  -3.288  24.288  0.00  0.00    +0.124 A 
ATOM      2  C   UNL     1       8.843  -2.112  24.888  0.00  0.00    +0.038 A 
ATOM      3  C   UNL     1       8.898  -0.896  24.179  0.00  0.00    +0.009 A 
ATOM      4  C   UNL     1       8.411  -0.886  22.861  0.00  0.00    +0.010 A 
ATOM      5  C   UNL     1       7.930  -2.057  22.264  0.00  0.00    +0.022 A 
ATOM      6  C   UNL     1       7.910  -3.266  22.970  0.00  0.00    +0.067 A 
ATOM      7 CL   UNL     1       7.308  -4.647  22.126  0.00  0.00    -0.082 Cl
ENDROOT
BRANCH   3   8
ATOM      8  C   UNL     1       9.442   0.358  24.848  0.00  0.00    +0.187 C 
ATOM      9  C   UNL     1       8.467   1.492  24.964  0.00  0.00    +0.019 A 
ATOM     10  C   UNL     1       9.040   2.649  24.435  0.00  0.00    +0.045 A 
ATOM     11  C   UNL     1       8.405   3.876  24.442  0.00  0.00    +0.013 A 
ATOM     12  C   UNL     1       7.128   3.930  25.003  0.00  0.00    +0.001 A 
ATOM     13  C   UNL     1       6.531   2.774  25.537  0.00  0.00    +0.000 A 
ATOM     14  C   UNL     1      10.370   2.298  23.931  0.00  0.00    +0.247 C 
ATOM     15  O   UNL     1      11.169   3.060  23.423  0.00  0.00    -0.270 OA
ATOM     16  C   UNL     1       7.200   1.545  25.525  0.00  0.00    +0.009 A 
ATOM     17  N   UNL     1      10.538   0.947  24.137  0.00  0.00    -0.276 N 
ATOM     18  H   UNL     1      11.431   0.511  23.980  0.00  0.00    +0.152 HD
BRANCH   8  19
ATOM     19  O   UNL     1       9.951   0.062  26.133  0.00  0.00    -0.364 OA
ATOM     20  H   UNL     1       9.308   0.416  26.766  0.00  0.00    +0.213 HD
ENDBRANCH   8  19
ENDBRANCH   3   8
BRANCH   1  21
ATOM     21  S   UNL     1       8.381  -4.777  25.235  0.00  0.00    +0.057 S 
ATOM     22  O   UNL     1       7.031  -5.256  25.401  0.00  0.00    -0.153 OA
ATOM     23  O   UNL     1       9.433  -5.632  24.731  0.00  0.00    -0.153 OA
BRANCH  21  24
ATOM     24  N   UNL     1       8.928  -4.273  26.737  0.00  0.00    -0.203 NA
ATOM     25  H   UNL     1       9.490  -5.007  27.170  0.00  0.00    +0.144 HD
ATOM     26  H   UNL     1       9.415  -3.380  26.646  0.00  0.00    +0.144 HD
ENDBRANCH  21  24
ENDBRANCH   1  21
TORSDOF 4
ENDMDL
MODEL 5
REMARK VINA RESULT:      -6.7      2.546      3.165
REMARK  Name = 
REMARK  4 active torsions:
REMARK  status: ('A' for Active; 'I' for Inactive)
REMARK    1  A    between atoms: N_1  and  S_2
REMARK    2  A    between atoms: S_2  and  C_5
REMARK    3  A    between atoms: C_10  and  C_12
REMARK    4  A    between atoms: C_12  and  O_13
REMARK                            x       y       z     vdW  Elec       q    Type
REMARK                         _______ _______ _______ _____ _____    ______ ____
ROOT
ATOM      1  C   UNL     1       8.621   0.169  23.179  0.00  0.00    +0.124 A 
ATOM      2  C   UNL     1       7.608  -0.746  22.842  0.00  0.00    +0.038 A 
ATOM      3  C   UNL     1       7.679  -2.097  23.237  0.00  0.00    +0.009 A 
ATOM      4  C   UNL     1       8.777  -2.491  24.019  0.00  0.00    +0.010 A 
ATOM      5  C   UNL     1       9.785  -1.580  24.354  0.00  0.00    +0.022 A 
ATOM      6  C   UNL     1       9.718  -0.249  23.929  0.00  0.00    +0.067 A 
ATOM      7 CL   UNL     1      11.025   0.780  24.391  0.00  0.00    -0.082 Cl
ENDROOT
BRANCH   3   8
ATOM      8  C   UNL     1       6.577  -3.069  22.843  0.00  0.00    +0.187 C 
ATOM      9  C   UNL     1       5.895  -3.757  23.988  0.00  0.00    +0.019 A 
ATOM     10  C   UNL     1       5.912  -5.136  23.774  0.00  0.00    +0.045 A 
ATOM     11  C   UNL     1       5.315  -6.040  24.633  0.00  0.00    +0.013 A 
ATOM     12  C   UNL     1       4.682  -5.522  25.764  0.00  0.00    +0.001 A 
ATOM     13  C   UNL     1       4.660  -4.136  26.001  0.00  0.00    +0.000 A 
ATOM     14  C   UNL     1       6.627  -5.384  22.520  0.00  0.00    +0.247 C 
ATOM     15  O   UNL     1       6.816  -6.469  22.004  0.00  0.00    -0.270 OA
ATOM     16  C   UNL     1       5.264  -3.242  25.110  0.00  0.00    +0.009 A 
ATOM     17  N   UNL     1       7.047  -4.162  22.045  0.00  0.00    -0.276 N 
ATOM     18  H   UNL     1       7.454  -4.081  21.128  0.00  0.00    +0.152 HD
BRANCH   8  19
ATOM     19  O   UNL     1       5.599  -2.427  22.051  0.00  0.00    -0.364 OA
ATOM     20  H   UNL     1       4.900  -2.146  22.661  0.00  0.00    +0.213 HD
ENDBRANCH   8  19
ENDBRANCH   3   8
BRANCH   1  21
ATOM     21  S   UNL     1       8.476   1.827  22.593  0.00  0.00    +0.057 S 
ATOM     22  O   UNL     1       7.294   1.943  21.775  0.00  0.00    -0.153 OA
ATOM     23  O   UNL     1       8.728   2.730  23.693  0.00  0.00    -0.153 OA
BRANCH  21  24
ATOM     24  N   UNL     1       9.807   2.000  21.589  0.00  0.00    -0.203 NA
ATOM     25  H   UNL     1      10.153   2.960  21.627  0.00  0.00    +0.144 HD
ATOM     26  H   UNL     1      10.510   1.298  21.822  0.00  0.00    +0.144 HD
ENDBRANCH  21  24
ENDBRANCH   1  21
TORSDOF 4
ENDMDL
MODEL 6
REMARK VINA RESULT:      -6.7      2.853      6.237
REMARK  Name = 
REMARK  4 active torsions:
REMARK  status: ('A' for Active; 'I' for Inactive)
REMARK    1  A    between atoms: N_1  and  S_2
REMARK    2  A    between atoms: S_2  and  C_5
REMARK    3  A    between atoms: C_10  and  C_12
REMARK    4  A    between atoms: C_12  and  O_13
REMARK                            x       y       z     vdW  Elec       q    Type
REMARK                         _______ _______ _______ _____ _____    ______ ____
ROOT
ATOM      1  C   UNL     1       7.969  -3.843  24.510  0.00  0.00    +0.124 A 
ATOM      2  C   UNL     1       7.785  -2.456  24.650  0.00  0.00    +0.038 A 
ATOM      3  C   UNL     1       7.349  -1.661  23.570  0.00  0.00    +0.009 A 
ATOM      4  C   UNL     1       7.062  -2.309  22.357  0.00  0.00    +0.010 A 
ATOM      5  C   UNL     1       7.245  -3.689  22.218  0.00  0.00    +0.022 A 
ATOM      6  C   UNL     1       7.709  -4.462  23.289  0.00  0.00    +0.067 A 
ATOM      7 CL   UNL     1       7.910  -6.152  22.997  0.00  0.00    -0.082 Cl
ENDROOT
BRANCH   3   8
ATOM      8  C   UNL     1       7.176  -0.160  23.746  0.00  0.00    +0.187 C 
ATOM      9  C   UNL     1       8.368   0.668  23.365  0.00  0.00    +0.019 A 
ATOM     10  C   UNL     1       8.695   1.519  24.421  0.00  0.00    +0.045 A 
ATOM     11  C   UNL     1       9.721   2.443  24.355  0.00  0.00    +0.013 A 
ATOM     12  C   UNL     1      10.452   2.499  23.167  0.00  0.00    +0.001 A 
ATOM     13  C   UNL     1      10.142   1.645  22.094  0.00  0.00    +0.000 A 
ATOM     14  C   UNL     1       7.763   1.248  25.518  0.00  0.00    +0.247 C 
ATOM     15  O   UNL     1       7.733   1.817  26.591  0.00  0.00    -0.270 OA
ATOM     16  C   UNL     1       9.092   0.725  22.184  0.00  0.00    +0.009 A 
ATOM     17  N   UNL     1       6.938   0.225  25.105  0.00  0.00    -0.276 N 
ATOM     18  H   UNL     1       6.138  -0.042  25.655  0.00  0.00    +0.152 HD
BRANCH   8  19
ATOM     19  O   UNL     1       6.051   0.304  23.028  0.00  0.00    -0.364 OA
ATOM     20  H   UNL     1       5.379   0.522  23.691  0.00  0.00    +0.213 HD
ENDBRANCH   8  19
ENDBRANCH   3   8
BRANCH   1  21
ATOM     21  S   UNL     1       8.570  -4.749  25.899  0.00  0.00    +0.057 S 
ATOM     22  O   UNL     1       8.961  -3.828  26.938  0.00  0.00    -0.153 OA
ATOM     23  O   UNL     1       7.668  -5.848  26.160  0.00  0.00    -0.153 OA
BRANCH  21  24
ATOM     24  N   UNL     1       9.963  -5.474  25.314  0.00  0.00    -0.203 NA
ATOM     25  H   UNL     1       9.741  -6.385  24.908  0.00  0.00    +0.144 HD
ATOM     26  H   UNL     1      10.439  -4.841  24.670  0.00  0.00    +0.144 HD
ENDBRANCH  21  24
ENDBRANCH   1  21
TORSDOF 4
ENDMDL
MODEL 7
REMARK VINA RESULT:      -6.6      3.715      6.359
REMARK  Name = 
REMARK  4 active torsions:
REMARK  status: ('A' for Active; 'I' for Inactive)
REMARK    1  A    between atoms: N_1  and  S_2
REMARK    2  A    between atoms: S_2  and  C_5
REMARK    3  A    between atoms: C_10  and  C_12
REMARK    4  A    between atoms: C_12  and  O_13
REMARK                            x       y       z     vdW  Elec       q    Type
REMARK                         _______ _______ _______ _____ _____    ______ ____
ROOT
ATOM      1  C   UNL     1       6.894  -3.599  26.697  0.00  0.00    +0.124 A 
ATOM      2  C   UNL     1       7.932  -2.903  26.054  0.00  0.00    +0.038 A 
ATOM      3  C   UNL     1       7.811  -1.534  25.738  0.00  0.00    +0.009 A 
ATOM      4  C   UNL     1       6.632  -0.876  26.126  0.00  0.00    +0.010 A 
ATOM      5  C   UNL     1       5.599  -1.570  26.765  0.00  0.00    +0.022 A 
ATOM      6  C   UNL     1       5.718  -2.936  27.045  0.00  0.00    +0.067 A 
ATOM      7 CL   UNL     1       4.374  -3.689  27.824  0.00  0.00    -0.082 Cl
ENDROOT
BRANCH   3   8
ATOM      8  C   UNL     1       8.944  -0.810  25.027  0.00  0.00    +0.187 C 
ATOM      9  C   UNL     1       8.516   0.132  23.941  0.00  0.00    +0.019 A 
ATOM     10  C   UNL     1       9.213  -0.167  22.769  0.00  0.00    +0.045 A 
ATOM     11  C   UNL     1       9.072   0.560  21.602  0.00  0.00    +0.013 A 
ATOM     12  C   UNL     1       8.179   1.631  21.622  0.00  0.00    +0.001 A 
ATOM     13  C   UNL     1       7.462   1.945  22.791  0.00  0.00    +0.000 A 
ATOM     14  C   UNL     1      10.075  -1.319  23.044  0.00  0.00    +0.247 C 
ATOM     15  O   UNL     1      10.844  -1.843  22.263  0.00  0.00    -0.270 OA
ATOM     16  C   UNL     1       7.630   1.198  23.962  0.00  0.00    +0.009 A 
ATOM     17  N   UNL     1       9.842  -1.697  24.348  0.00  0.00    -0.276 N 
ATOM     18  H   UNL     1      10.419  -2.393  24.790  0.00  0.00    +0.152 HD
BRANCH   8  19
ATOM     19  O   UNL     1       9.749  -0.105  25.950  0.00  0.00    -0.364 OA
ATOM     20  H   UNL     1       9.806  -0.663  26.740  0.00  0.00    +0.213 HD
ENDBRANCH   8  19
ENDBRANCH   3   8
BRANCH   1  21
ATOM     21  S   UNL     1       7.110  -5.323  27.004  0.00  0.00    +0.057 S 
ATOM     22  O   UNL     1       7.020  -5.571  28.422  0.00  0.00    -0.153 OA
ATOM     23  O   UNL     1       6.316  -6.067  26.052  0.00  0.00    -0.153 OA
BRANCH  21  24
ATOM     24  N   UNL     1       8.698  -5.601  26.541  0.00  0.00    -0.203 NA
ATOM     25  H   UNL     1       9.320  -5.504  27.346  0.00  0.00    +0.144 HD
ATOM     26  H   UNL     1       8.769  -6.505  26.072  0.00  0.00    +0.144 HD
ENDBRANCH  21  24
ENDBRANCH   1  21
TORSDOF 4
ENDMDL
MODEL 8
REMARK VINA RESULT:      -6.6      3.429      6.417
REMARK  Name = 
REMARK  4 active torsions:
REMARK  status: ('A' for Active; 'I' for Inactive)
REMARK    1  A    between atoms: N_1  and  S_2
REMARK    2  A    between atoms: S_2  and  C_5
REMARK    3  A    between atoms: C_10  and  C_12
REMARK    4  A    between atoms: C_12  and  O_13
REMARK                            x       y       z     vdW  Elec       q    Type
REMARK                         _______ _______ _______ _____ _____    ______ ____
ROOT
ATOM      1  C   UNL     1       6.501  -3.993  26.077  0.00  0.00    +0.124 A 
ATOM      2  C   UNL     1       7.648  -3.632  25.348  0.00  0.00    +0.038 A 
ATOM      3  C   UNL     1       7.619  -2.583  24.407  0.00  0.00    +0.009 A 
ATOM      4  C   UNL     1       6.415  -1.879  24.251  0.00  0.00    +0.010 A 
ATOM      5  C   UNL     1       5.273  -2.238  24.976  0.00  0.00    +0.022 A 
ATOM      6  C   UNL     1       5.306  -3.302  25.885  0.00  0.00    +0.067 A 
ATOM      7 CL   UNL     1       3.834  -3.662  26.712  0.00  0.00    -0.082 Cl
ENDROOT
BRANCH   3   8
ATOM      8  C   UNL     1       8.872  -2.227  23.620  0.00  0.00    +0.187 C 
ATOM      9  C   UNL     1       9.448  -0.874  23.918  0.00  0.00    +0.019 A 
ATOM     10  C   UNL     1       9.621  -0.173  22.724  0.00  0.00    +0.045 A 
ATOM     11  C   UNL     1      10.181   1.090  22.666  0.00  0.00    +0.013 A 
ATOM     12  C   UNL     1      10.573   1.670  23.873  0.00  0.00    +0.001 A 
ATOM     13  C   UNL     1      10.401   0.982  25.088  0.00  0.00    +0.000 A 
ATOM     14  C   UNL     1       9.136  -1.022  21.634  0.00  0.00    +0.247 C 
ATOM     15  O   UNL     1       9.152  -0.748  20.450  0.00  0.00    -0.270 OA
ATOM     16  C   UNL     1       9.840  -0.300  25.118  0.00  0.00    +0.009 A 
ATOM     17  N   UNL     1       8.655  -2.179  22.205  0.00  0.00    -0.276 N 
ATOM     18  H   UNL     1       8.385  -2.960  21.630  0.00  0.00    +0.152 HD
BRANCH   8  19
ATOM     19  O   UNL     1       9.878  -3.201  23.807  0.00  0.00    -0.364 OA
ATOM     20  H   UNL     1      10.722  -2.750  23.651  0.00  0.00    +0.213 HD
ENDBRANCH   8  19
ENDBRANCH   3   8
BRANCH   1  21
ATOM     21  S   UNL     1       6.615  -5.354  27.193  0.00  0.00    +0.057 S 
ATOM     22  O   UNL     1       6.264  -4.914  28.521  0.00  0.00    -0.153 OA
ATOM     23  O   UNL     1       5.987  -6.506  26.585  0.00  0.00    -0.153 OA
BRANCH  21  24
ATOM     24  N   UNL     1       8.252  -5.715  27.196  0.00  0.00    -0.203 NA
ATOM     25  H   UNL     1       8.429  -6.537  27.776  0.00  0.00    +0.144 HD
ATOM     26  H   UNL     1       8.588  -5.808  26.236  0.00  0.00    +0.144 HD
ENDBRANCH  21  24
ENDBRANCH   1  21
TORSDOF 4
ENDMDL
MODEL 9
REMARK VINA RESULT:      -6.5      2.137      2.823
REMARK  Name = 
REMARK  4 active torsions:
REMARK  status: ('A' for Active; 'I' for Inactive)
REMARK    1  A    between atoms: N_1  and  S_2
REMARK    2  A    between atoms: S_2  and  C_5
REMARK    3  A    between atoms: C_10  and  C_12
REMARK    4  A    between atoms: C_12  and  O_13
REMARK                            x       y       z     vdW  Elec       q    Type
REMARK                         _______ _______ _______ _____ _____    ______ ____
ROOT
ATOM      1  C   UNL     1       7.893   0.781  22.741  0.00  0.00    +0.124 A 
ATOM      2  C   UNL     1       7.136  -0.379  22.985  0.00  0.00    +0.038 A 
ATOM      3  C   UNL     1       7.645  -1.661  22.696  0.00  0.00    +0.009 A 
ATOM      4  C   UNL     1       8.954  -1.746  22.195  0.00  0.00    +0.010 A 
ATOM      5  C   UNL     1       9.707  -0.592  21.951  0.00  0.00    +0.022 A 
ATOM      6  C   UNL     1       9.178   0.678  22.213  0.00  0.00    +0.067 A 
ATOM      7 CL   UNL     1      10.193   2.029  21.860  0.00  0.00    -0.082 Cl
ENDROOT
BRANCH   3   8
ATOM      8  C   UNL     1       6.797  -2.897  22.956  0.00  0.00    +0.187 C 
ATOM      9  C   UNL     1       6.906  -3.466  24.339  0.00  0.00    +0.019 A 
ATOM     10  C   UNL     1       7.205  -4.827  24.257  0.00  0.00    +0.045 A 
ATOM     11  C   UNL     1       7.322  -5.642  25.367  0.00  0.00    +0.013 A 
ATOM     12  C   UNL     1       7.134  -5.049  26.616  0.00  0.00    +0.001 A 
ATOM     13  C   UNL     1       6.838  -3.677  26.721  0.00  0.00    +0.000 A 
ATOM     14  C   UNL     1       7.335  -5.170  22.838  0.00  0.00    +0.247 C 
ATOM     15  O   UNL     1       7.568  -6.273  22.385  0.00  0.00    -0.270 OA
ATOM     16  C   UNL     1       6.717  -2.876  25.580  0.00  0.00    +0.009 A 
ATOM     17  N   UNL     1       7.149  -4.008  22.122  0.00  0.00    -0.276 N 
ATOM     18  H   UNL     1       7.072  -4.032  21.119  0.00  0.00    +0.152 HD
BRANCH   8  19
ATOM     19  O   UNL     1       5.436  -2.642  22.675  0.00  0.00    -0.364 OA
ATOM     20  H   UNL     1       5.154  -3.331  22.055  0.00  0.00    +0.213 HD
ENDBRANCH   8  19
ENDBRANCH   3   8
BRANCH   1  21
ATOM     21  S   UNL     1       7.154   2.347  23.081  0.00  0.00    +0.057 S 
ATOM     22  O   UNL     1       7.765   2.918  24.255  0.00  0.00    -0.153 OA
ATOM     23  O   UNL     1       7.048   3.087  21.844  0.00  0.00    -0.153 OA
BRANCH  21  24
ATOM     24  N   UNL     1       5.573   1.950  23.474  0.00  0.00    -0.203 NA
ATOM     25  H   UNL     1       4.987   2.787  23.456  0.00  0.00    +0.144 HD
ATOM     26  H   UNL     1       5.242   1.201  22.864  0.00  0.00    +0.144 HD
ENDBRANCH  21  24
ENDBRANCH   1  21
TORSDOF 4
ENDMDL
