MODEL 1
REMARK VINA RESULT:      -5.9      0.000      0.000
REMARK  Name = 
REMARK  11 active torsions:
REMARK  status: ('A' for Active; 'I' for Inactive)
REMARK    1  A    between atoms: C_1  and  C_2
REMARK    2  A    between atoms: C_2  and  C_3
REMARK    3  A    between atoms: C_3  and  C_5
REMARK    4  A    between atoms: C_5  and  C_6
REMARK    5  A    between atoms: C_5  and  C_12
REMARK    6  A    between atoms: C_5  and  C_18
REMARK    7  A    between atoms: C_6  and  C_7
REMARK    8  A    between atoms: C_7  and  C_8
REMARK    9  A    between atoms: C_7  and  N_9
REMARK   10  A    between atoms: N_9  and  C_10
REMARK   11  A    between atoms: N_9  and  C_11
REMARK                            x       y       z     vdW  Elec       q    Type
REMARK                         _______ _______ _______ _____ _____    ______ ____
ROOT
ATOM      1  C   UNL     1       7.722  -2.731  24.106  0.00  0.00    +0.080 C 
ENDROOT
BRANCH   1   2
ATOM      2  C   UNL     1       7.125  -3.813  23.100  0.00  0.00    -0.030 A 
ATOM      3  C   UNL     1       6.288  -3.401  22.037  0.00  0.00    +0.005 A 
ATOM      4  C   UNL     1       5.910  -4.271  21.006  0.00  0.00    +0.000 A 
ATOM      5  C   UNL     1       6.317  -5.597  21.033  0.00  0.00    +0.000 A 
ATOM      6  C   UNL     1       7.067  -6.057  22.110  0.00  0.00    +0.000 A 
ATOM      7  C   UNL     1       7.462  -5.180  23.133  0.00  0.00    +0.005 A 
ENDBRANCH   1   2
BRANCH   1   8
ATOM      8  C   UNL     1       8.258  -1.528  23.281  0.00  0.00    -0.030 A 
ATOM      9  C   UNL     1       9.219  -1.703  22.266  0.00  0.00    +0.005 A 
ATOM     10  C   UNL     1       9.567  -0.654  21.406  0.00  0.00    +0.000 A 
ATOM     11  C   UNL     1       9.040   0.617  21.605  0.00  0.00    +0.000 A 
ATOM     12  C   UNL     1       8.190   0.844  22.680  0.00  0.00    +0.000 A 
ATOM     13  C   UNL     1       7.803  -0.215  23.508  0.00  0.00    +0.005 A 
ENDBRANCH   1   8
BRANCH   1  14
ATOM     14  C   UNL     1       8.921  -3.470  24.890  0.00  0.00    +0.148 C 
ATOM     15  O   UNL     1      10.008  -3.747  24.361  0.00  0.00    -0.296 OA
BRANCH  14  17
ATOM     16  C   UNL     1       8.326  -5.185  26.698  0.00  0.00    +0.012 C 
ATOM     17  C   UNL     1       8.764  -3.773  26.363  0.00  0.00    +0.072 C 
ENDBRANCH  14  17
ENDBRANCH   1  14
BRANCH   1  18
ATOM     18  C   UNL     1       6.598  -2.288  25.168  0.00  0.00    +0.042 C 
BRANCH  18  19
ATOM     19  C   UNL     1       5.095  -2.790  25.162  0.00  0.00    +0.055 C 
ATOM     20  C   UNL     1       4.900  -4.134  25.872  0.00  0.00    +0.024 C 
BRANCH  19  21
ATOM     21  N   UNL     1       4.145  -1.747  25.688  0.00  0.00    -0.306 NA
ATOM     22  C   UNL     1       4.872  -0.630  26.322  0.00  0.00    +0.104 C 
ATOM     23  C   UNL     1       3.238  -2.301  26.711  0.00  0.00    +0.104 C 
ENDBRANCH  19  21
ENDBRANCH  18  19
ENDBRANCH   1  18
TORSDOF 7
ENDMDL
MODEL 2
REMARK VINA RESULT:      -5.9      1.584      2.325
REMARK  Name = 
REMARK  11 active torsions:
REMARK  status: ('A' for Active; 'I' for Inactive)
REMARK    1  A    between atoms: C_1  and  C_2
REMARK    2  A    between atoms: C_2  and  C_3
REMARK    3  A    between atoms: C_3  and  C_5
REMARK    4  A    between atoms: C_5  and  C_6
REMARK    5  A    between atoms: C_5  and  C_12
REMARK    6  A    between atoms: C_5  and  C_18
REMARK    7  A    between atoms: C_6  and  C_7
REMARK    8  A    between atoms: C_7  and  C_8
REMARK    9  A    between atoms: C_7  and  N_9
REMARK   10  A    between atoms: N_9  and  C_10
REMARK   11  A    between atoms: N_9  and  C_11
REMARK                            x       y       z     vdW  Elec       q    Type
REMARK                         _______ _______ _______ _____ _____    ______ ____
ROOT
ATOM      1  C   UNL     1       8.068  -2.901  24.538  0.00  0.00    +0.080 C 
ENDROOT
BRANCH   1   2
ATOM      2  C   UNL     1       7.072  -3.758  23.636  0.00  0.00    -0.030 A 
ATOM      3  C   UNL     1       7.536  -4.927  22.988  0.00  0.00    +0.005 A 
ATOM      4  C   UNL     1       6.664  -5.827  22.361  0.00  0.00    +0.000 A 
ATOM      5  C   UNL     1       5.303  -5.561  22.320  0.00  0.00    +0.000 A 
ATOM      6  C   UNL     1       4.824  -4.376  22.870  0.00  0.00    +0.000 A 
ATOM      7  C   UNL     1       5.696  -3.484  23.515  0.00  0.00    +0.005 A 
ENDBRANCH   1   2
BRANCH   1   8
ATOM      8  C   UNL     1       8.836  -1.907  23.623  0.00  0.00    -0.030 A 
ATOM      9  C   UNL     1       8.520  -1.774  22.256  0.00  0.00    +0.005 A 
ATOM     10  C   UNL     1       9.086  -0.757  21.476  0.00  0.00    +0.000 A 
ATOM     11  C   UNL     1      10.052   0.083  22.017  0.00  0.00    +0.000 A 
ATOM     12  C   UNL     1      10.475  -0.114  23.326  0.00  0.00    +0.000 A 
ATOM     13  C   UNL     1       9.874  -1.096  24.119  0.00  0.00    +0.005 A 
ENDBRANCH   1   8
BRANCH   1  14
ATOM     14  C   UNL     1       9.078  -3.961  25.211  0.00  0.00    +0.148 C 
ATOM     15  O   UNL     1      10.106  -4.369  24.650  0.00  0.00    -0.296 OA
BRANCH  14  17
ATOM     16  C   UNL     1       7.707  -5.440  26.791  0.00  0.00    +0.012 C 
ATOM     17  C   UNL     1       8.823  -4.428  26.627  0.00  0.00    +0.072 C 
ENDBRANCH  14  17
ENDBRANCH   1  14
BRANCH   1  18
ATOM     18  C   UNL     1       7.248  -2.149  25.700  0.00  0.00    +0.042 C 
BRANCH  18  19
ATOM     19  C   UNL     1       6.688  -0.670  25.606  0.00  0.00    +0.055 C 
ATOM     20  C   UNL     1       5.198  -0.561  25.948  0.00  0.00    +0.024 C 
BRANCH  19  21
ATOM     21  N   UNL     1       7.510   0.302  26.409  0.00  0.00    -0.306 NA
ATOM     22  C   UNL     1       6.862   0.614  27.699  0.00  0.00    +0.104 C 
ATOM     23  C   UNL     1       7.687   1.583  25.700  0.00  0.00    +0.104 C 
ENDBRANCH  19  21
ENDBRANCH  18  19
ENDBRANCH   1  18
TORSDOF 7
ENDMDL
MODEL 3
REMARK VINA RESULT:      -5.7      4.801      7.188
REMARK  Name = 
REMARK  11 active torsions:
REMARK  status: ('A' for Active; 'I' for Inactive)
REMARK    1  A    between atoms: C_1  and  C_2
REMARK    2  A    between atoms: C_2  and  C_3
REMARK    3  A    between atoms: C_3  and  C_5
REMARK    4  A    between atoms: C_5  and  C_6
REMARK    5  A    between atoms: C_5  and  C_12
REMARK    6  A    between atoms: C_5  and  C_18
REMARK    7  A    between atoms: C_6  and  C_7
REMARK    8  A    between atoms: C_7  and  C_8
REMARK    9  A    between atoms: C_7  and  N_9
REMARK   10  A    between atoms: N_9  and  C_10
REMARK   11  A    between atoms: N_9  and  C_11
REMARK                            x       y       z     vdW  Elec       q    Type
REMARK                         _______ _______ _______ _____ _____    ______ ____
ROOT
ATOM      1  C   UNL     1       8.897   3.523  23.650  0.00  0.00    +0.080 C 
ENDROOT
BRANCH   1   2
ATOM      2  C   UNL     1       9.455   2.097  23.210  0.00  0.00    -0.030 A 
ATOM      3  C   UNL     1      10.092   1.265  24.160  0.00  0.00    +0.005 A 
ATOM      4  C   UNL     1      10.410  -0.072  23.886  0.00  0.00    +0.000 A 
ATOM      5  C   UNL     1      10.146  -0.605  22.633  0.00  0.00    +0.000 A 
ATOM      6  C   UNL     1       9.601   0.211  21.647  0.00  0.00    +0.000 A 
ATOM      7  C   UNL     1       9.265   1.545  21.928  0.00  0.00    +0.005 A 
ENDBRANCH   1   2
BRANCH   1   8
ATOM      8  C   UNL     1      10.093   4.509  23.768  0.00  0.00    -0.030 A 
ATOM      9  C   UNL     1       9.942   5.780  24.359  0.00  0.00    +0.005 A 
ATOM     10  C   UNL     1      11.051   6.592  24.626  0.00  0.00    +0.000 A 
ATOM     11  C   UNL     1      12.320   6.199  24.218  0.00  0.00    +0.000 A 
ATOM     12  C   UNL     1      12.475   5.010  23.517  0.00  0.00    +0.000 A 
ATOM     13  C   UNL     1      11.376   4.175  23.294  0.00  0.00    +0.005 A 
ENDBRANCH   1   8
BRANCH   1  14
ATOM     14  C   UNL     1       8.192   3.301  25.081  0.00  0.00    +0.148 C 
ATOM     15  O   UNL     1       8.400   4.032  26.061  0.00  0.00    -0.296 OA
BRANCH  14  17
ATOM     16  C   UNL     1       7.132   1.517  26.585  0.00  0.00    +0.012 C 
ATOM     17  C   UNL     1       7.161   2.205  25.234  0.00  0.00    +0.072 C 
ENDBRANCH  14  17
ENDBRANCH   1  14
BRANCH   1  18
ATOM     18  C   UNL     1       7.792   4.030  22.596  0.00  0.00    +0.042 C 
BRANCH  18  19
ATOM     19  C   UNL     1       6.807   5.249  22.828  0.00  0.00    +0.055 C 
ATOM     20  C   UNL     1       7.124   6.464  21.949  0.00  0.00    +0.024 C 
BRANCH  19  21
ATOM     21  N   UNL     1       5.362   4.844  22.707  0.00  0.00    -0.306 NA
ATOM     22  C   UNL     1       4.622   5.117  23.956  0.00  0.00    +0.104 C 
ATOM     23  C   UNL     1       5.220   3.402  22.435  0.00  0.00    +0.104 C 
ENDBRANCH  19  21
ENDBRANCH  18  19
ENDBRANCH   1  18
TORSDOF 7
ENDMDL
MODEL 4
REMARK VINA RESULT:      -5.6      1.625      4.851
REMARK  Name = 
REMARK  11 active torsions:
REMARK  status: ('A' for Active; 'I' for Inactive)
REMARK    1  A    between atoms: C_1  and  C_2
REMARK    2  A    between atoms: C_2  and  C_3
REMARK    3  A    between atoms: C_3  and  C_5
REMARK    4  A    between atoms: C_5  and  C_6
REMARK    5  A    between atoms: C_5  and  C_12
REMARK    6  A    between atoms: C_5  and  C_18
REMARK    7  A    between atoms: C_6  and  C_7
REMARK    8  A    between atoms: C_7  and  C_8
REMARK    9  A    between atoms: C_7  and  N_9
REMARK   10  A    between atoms: N_9  and  C_10
REMARK   11  A    between atoms: N_9  and  C_11
REMARK                            x       y       z     vdW  Elec       q    Type
REMARK                         _______ _______ _______ _____ _____    ______ ____
ROOT
ATOM      1  C   UNL     1       8.444  -3.236  24.259  0.00  0.00    +0.080 C 
ENDROOT
BRANCH   1   2
ATOM      2  C   UNL     1       7.405  -2.462  25.187  0.00  0.00    -0.030 A 
ATOM      3  C   UNL     1       7.875  -1.558  26.169  0.00  0.00    +0.005 A 
ATOM      4  C   UNL     1       7.013  -0.699  26.864  0.00  0.00    +0.000 A 
ATOM      5  C   UNL     1       5.646  -0.752  26.633  0.00  0.00    +0.000 A 
ATOM      6  C   UNL     1       5.142  -1.690  25.738  0.00  0.00    +0.000 A 
ATOM      7  C   UNL     1       6.008  -2.538  25.029  0.00  0.00    +0.005 A 
ENDBRANCH   1   2
BRANCH   1   8
ATOM      8  C   UNL     1       7.653  -4.003  23.162  0.00  0.00    -0.030 A 
ATOM      9  C   UNL     1       7.602  -5.411  23.142  0.00  0.00    +0.005 A 
ATOM     10  C   UNL     1       6.748  -6.094  22.267  0.00  0.00    +0.000 A 
ATOM     11  C   UNL     1       6.004  -5.392  21.326  0.00  0.00    +0.000 A 
ATOM     12  C   UNL     1       6.137  -4.011  21.240  0.00  0.00    +0.000 A 
ATOM     13  C   UNL     1       6.951  -3.325  22.147  0.00  0.00    +0.005 A 
ENDBRANCH   1   8
BRANCH   1  14
ATOM     14  C   UNL     1       9.225  -4.261  25.226  0.00  0.00    +0.148 C 
ATOM     15  O   UNL     1      10.288  -4.816  24.911  0.00  0.00    -0.296 OA
BRANCH  14  17
ATOM     16  C   UNL     1       7.582  -5.527  26.731  0.00  0.00    +0.012 C 
ATOM     17  C   UNL     1       8.697  -4.506  26.622  0.00  0.00    +0.072 C 
ENDBRANCH  14  17
ENDBRANCH   1  14
BRANCH   1  18
ATOM     18  C   UNL     1       9.502  -2.198  23.632  0.00  0.00    +0.042 C 
BRANCH  18  19
ATOM     19  C   UNL     1       9.303  -0.628  23.564  0.00  0.00    +0.055 C 
ATOM     20  C   UNL     1      10.621   0.154  23.606  0.00  0.00    +0.024 C 
BRANCH  19  21
ATOM     21  N   UNL     1       8.453  -0.212  22.394  0.00  0.00    -0.306 NA
ATOM     22  C   UNL     1       9.175   0.729  21.514  0.00  0.00    +0.104 C 
ATOM     23  C   UNL     1       7.221   0.473  22.830  0.00  0.00    +0.104 C 
ENDBRANCH  19  21
ENDBRANCH  18  19
ENDBRANCH   1  18
TORSDOF 7
ENDMDL
MODEL 5
REMARK VINA RESULT:      -5.4      1.544      4.592
REMARK  Name = 
REMARK  11 active torsions:
REMARK  status: ('A' for Active; 'I' for Inactive)
REMARK    1  A    between atoms: C_1  and  C_2
REMARK    2  A    between atoms: C_2  and  C_3
REMARK    3  A    between atoms: C_3  and  C_5
REMARK    4  A    between atoms: C_5  and  C_6
REMARK    5  A    between atoms: C_5  and  C_12
REMARK    6  A    between atoms: C_5  and  C_18
REMARK    7  A    between atoms: C_6  and  C_7
REMARK    8  A    between atoms: C_7  and  C_8
REMARK    9  A    between atoms: C_7  and  N_9
REMARK   10  A    between atoms: N_9  and  C_10
REMARK   11  A    between atoms: N_9  and  C_11
REMARK                            x       y       z     vdW  Elec       q    Type
REMARK                         _______ _______ _______ _____ _____    ______ ____
ROOT
ATOM      1  C   UNL     1       6.722  -2.786  23.657  0.00  0.00    +0.080 C 
ENDROOT
BRANCH   1   2
ATOM      2  C   UNL     1       7.887  -1.785  23.230  0.00  0.00    -0.030 A 
ATOM      3  C   UNL     1       7.999  -0.524  23.860  0.00  0.00    +0.005 A 
ATOM      4  C   UNL     1       9.117   0.302  23.680  0.00  0.00    +0.000 A 
ATOM      5  C   UNL     1      10.136  -0.086  22.822  0.00  0.00    +0.000 A 
ATOM      6  C   UNL     1      10.016  -1.281  22.119  0.00  0.00    +0.000 A 
ATOM      7  C   UNL     1       8.905  -2.117  22.315  0.00  0.00    +0.005 A 
ENDBRANCH   1   2
BRANCH   1   8
ATOM      8  C   UNL     1       7.266  -3.740  24.757  0.00  0.00    -0.030 A 
ATOM      9  C   UNL     1       8.546  -3.560  25.318  0.00  0.00    +0.005 A 
ATOM     10  C   UNL     1       8.962  -4.305  26.429  0.00  0.00    +0.000 A 
ATOM     11  C   UNL     1       8.153  -5.313  26.938  0.00  0.00    +0.000 A 
ATOM     12  C   UNL     1       6.942  -5.596  26.319  0.00  0.00    +0.000 A 
ATOM     13  C   UNL     1       6.503  -4.820  25.242  0.00  0.00    +0.005 A 
ENDBRANCH   1   8
BRANCH   1  14
ATOM     14  C   UNL     1       6.334  -3.606  22.326  0.00  0.00    +0.148 C 
ATOM     15  O   UNL     1       5.480  -3.218  21.514  0.00  0.00    -0.296 OA
BRANCH  14  17
ATOM     16  C   UNL     1       6.245  -6.049  21.559  0.00  0.00    +0.012 C 
ATOM     17  C   UNL     1       7.094  -4.869  21.988  0.00  0.00    +0.072 C 
ENDBRANCH  14  17
ENDBRANCH   1  14
BRANCH   1  18
ATOM     18  C   UNL     1       5.437  -1.954  24.153  0.00  0.00    +0.042 C 
BRANCH  18  19
ATOM     19  C   UNL     1       5.012  -1.756  25.666  0.00  0.00    +0.055 C 
ATOM     20  C   UNL     1       5.144  -0.308  26.150  0.00  0.00    +0.024 C 
BRANCH  19  21
ATOM     21  N   UNL     1       3.641  -2.308  25.950  0.00  0.00    -0.306 NA
ATOM     22  C   UNL     1       3.551  -2.840  27.325  0.00  0.00    +0.104 C 
ATOM     23  C   UNL     1       3.301  -3.419  25.041  0.00  0.00    +0.104 C 
ENDBRANCH  19  21
ENDBRANCH  18  19
ENDBRANCH   1  18
TORSDOF 7
ENDMDL
MODEL 6
REMARK VINA RESULT:      -5.3      5.116      8.344
REMARK  Name = 
REMARK  11 active torsions:
REMARK  status: ('A' for Active; 'I' for Inactive)
REMARK    1  A    between atoms: C_1  and  C_2
REMARK    2  A    between atoms: C_2  and  C_3
REMARK    3  A    between atoms: C_3  and  C_5
REMARK    4  A    between atoms: C_5  and  C_6
REMARK    5  A    between atoms: C_5  and  C_12
REMARK    6  A    between atoms: C_5  and  C_18
REMARK    7  A    between atoms: C_6  and  C_7
REMARK    8  A    between atoms: C_7  and  C_8
REMARK    9  A    between atoms: C_7  and  N_9
REMARK   10  A    between atoms: N_9  and  C_10
REMARK   11  A    between atoms: N_9  and  C_11
REMARK                            x       y       z     vdW  Elec       q    Type
REMARK                         _______ _______ _______ _____ _____    ______ ____
ROOT
ATOM      1  C   UNL     1       8.720   4.060  23.937  0.00  0.00    +0.080 C 
ENDROOT
BRANCH   1   2
ATOM      2  C   UNL     1       9.905   5.102  24.164  0.00  0.00    -0.030 A 
ATOM      3  C   UNL     1       9.765   6.129  25.126  0.00  0.00    +0.005 A 
ATOM      4  C   UNL     1      10.843   6.937  25.516  0.00  0.00    +0.000 A 
ATOM      5  C   UNL     1      12.083   6.774  24.917  0.00  0.00    +0.000 A 
ATOM      6  C   UNL     1      12.232   5.832  23.904  0.00  0.00    +0.000 A 
ATOM      7  C   UNL     1      11.157   5.011  23.528  0.00  0.00    +0.005 A 
ENDBRANCH   1   2
BRANCH   1   8
ATOM      8  C   UNL     1       9.335   2.694  23.523  0.00  0.00    -0.030 A 
ATOM      9  C   UNL     1       9.918   1.832  24.473  0.00  0.00    +0.005 A 
ATOM     10  C   UNL     1      10.307   0.531  24.131  0.00  0.00    +0.000 A 
ATOM     11  C   UNL     1      10.218   0.098  22.813  0.00  0.00    +0.000 A 
ATOM     12  C   UNL     1       9.768   0.976  21.834  0.00  0.00    +0.000 A 
ATOM     13  C   UNL     1       9.332   2.258  22.184  0.00  0.00    +0.005 A 
ENDBRANCH   1   8
BRANCH   1  14
ATOM     14  C   UNL     1       7.817   4.668  22.750  0.00  0.00    +0.148 C 
ATOM     15  O   UNL     1       6.911   4.030  22.192  0.00  0.00    -0.296 OA
BRANCH  14  17
ATOM     16  C   UNL     1       6.764   6.973  22.373  0.00  0.00    +0.012 C 
ATOM     17  C   UNL     1       8.010   6.110  22.340  0.00  0.00    +0.072 C 
ENDBRANCH  14  17
ENDBRANCH   1  14
BRANCH   1  18
ATOM     18  C   UNL     1       7.826   3.946  25.270  0.00  0.00    +0.042 C 
BRANCH  18  19
ATOM     19  C   UNL     1       6.645   2.912  25.485  0.00  0.00    +0.055 C 
ATOM     20  C   UNL     1       6.701   2.198  26.841  0.00  0.00    +0.024 C 
BRANCH  19  21
ATOM     21  N   UNL     1       5.295   3.531  25.245  0.00  0.00    -0.306 NA
ATOM     22  C   UNL     1       4.548   3.698  26.509  0.00  0.00    +0.104 C 
ATOM     23  C   UNL     1       4.459   2.694  24.364  0.00  0.00    +0.104 C 
ENDBRANCH  19  21
ENDBRANCH  18  19
ENDBRANCH   1  18
TORSDOF 7
ENDMDL
MODEL 7
REMARK VINA RESULT:      -5.3      1.930      4.699
REMARK  Name = 
REMARK  11 active torsions:
REMARK  status: ('A' for Active; 'I' for Inactive)
REMARK    1  A    between atoms: C_1  and  C_2
REMARK    2  A    between atoms: C_2  and  C_3
REMARK    3  A    between atoms: C_3  and  C_5
REMARK    4  A    between atoms: C_5  and  C_6
REMARK    5  A    between atoms: C_5  and  C_12
REMARK    6  A    between atoms: C_5  and  C_18
REMARK    7  A    between atoms: C_6  and  C_7
REMARK    8  A    between atoms: C_7  and  C_8
REMARK    9  A    between atoms: C_7  and  N_9
REMARK   10  A    between atoms: N_9  and  C_10
REMARK   11  A    between atoms: N_9  and  C_11
REMARK                            x       y       z     vdW  Elec       q    Type
REMARK                         _______ _______ _______ _____ _____    ______ ____
ROOT
ATOM      1  C   UNL     1       6.491  -3.809  24.979  0.00  0.00    +0.080 C 
ENDROOT
BRANCH   1   2
ATOM      2  C   UNL     1       4.972  -3.756  25.458  0.00  0.00    -0.030 A 
ATOM      3  C   UNL     1       4.504  -2.643  26.196  0.00  0.00    +0.005 A 
ATOM      4  C   UNL     1       3.142  -2.443  26.459  0.00  0.00    +0.000 A 
ATOM      5  C   UNL     1       2.209  -3.377  26.033  0.00  0.00    +0.000 A 
ATOM      6  C   UNL     1       2.644  -4.526  25.382  0.00  0.00    +0.000 A 
ATOM      7  C   UNL     1       4.006  -4.717  25.103  0.00  0.00    +0.005 A 
ENDBRANCH   1   2
BRANCH   1   8
ATOM      8  C   UNL     1       6.534  -4.366  23.529  0.00  0.00    -0.030 A 
ATOM      9  C   UNL     1       7.283  -5.515  23.205  0.00  0.00    +0.005 A 
ATOM     10  C   UNL     1       7.180  -6.118  21.945  0.00  0.00    +0.000 A 
ATOM     11  C   UNL     1       6.406  -5.531  20.950  0.00  0.00    +0.000 A 
ATOM     12  C   UNL     1       5.762  -4.327  21.206  0.00  0.00    +0.000 A 
ATOM     13  C   UNL     1       5.825  -3.751  22.479  0.00  0.00    +0.005 A 
ENDBRANCH   1   8
BRANCH   1  14
ATOM     14  C   UNL     1       7.242  -4.804  25.999  0.00  0.00    +0.148 C 
ATOM     15  O   UNL     1       6.767  -5.892  26.360  0.00  0.00    -0.296 OA
BRANCH  14  17
ATOM     16  C   UNL     1       9.774  -5.000  25.654  0.00  0.00    +0.012 C 
ATOM     17  C   UNL     1       8.630  -4.453  26.486  0.00  0.00    +0.072 C 
ENDBRANCH  14  17
ENDBRANCH   1  14
BRANCH   1  18
ATOM     18  C   UNL     1       7.155  -2.348  25.089  0.00  0.00    +0.042 C 
BRANCH  18  19
ATOM     19  C   UNL     1       8.290  -1.791  24.135  0.00  0.00    +0.055 C 
ATOM     20  C   UNL     1       7.773  -0.788  23.097  0.00  0.00    +0.024 C 
BRANCH  19  21
ATOM     21  N   UNL     1       9.458  -1.235  24.903  0.00  0.00    -0.306 NA
ATOM     22  C   UNL     1       9.025  -0.649  26.188  0.00  0.00    +0.104 C 
ATOM     23  C   UNL     1      10.142  -0.163  24.156  0.00  0.00    +0.104 C 
ENDBRANCH  19  21
ENDBRANCH  18  19
ENDBRANCH   1  18
TORSDOF 7
ENDMDL
MODEL 8
REMARK VINA RESULT:      -5.3      1.291      1.947
REMARK  Name = 
REMARK  11 active torsions:
REMARK  status: ('A' for Active; 'I' for Inactive)
REMARK    1  A    between atoms: C_1  and  C_2
REMARK    2  A    between atoms: C_2  and  C_3
REMARK    3  A    between atoms: C_3  and  C_5
REMARK    4  A    between atoms: C_5  and  C_6
REMARK    5  A    between atoms: C_5  and  C_12
REMARK    6  A    between atoms: C_5  and  C_18
REMARK    7  A    between atoms: C_6  and  C_7
REMARK    8  A    between atoms: C_7  and  C_8
REMARK    9  A    between atoms: C_7  and  N_9
REMARK   10  A    between atoms: N_9  and  C_10
REMARK   11  A    between atoms: N_9  and  C_11
REMARK                            x       y       z     vdW  Elec       q    Type
REMARK                         _______ _______ _______ _____ _____    ______ ____
ROOT
ATOM      1  C   UNL     1       7.004  -2.280  24.303  0.00  0.00    +0.080 C 
ENDROOT
BRANCH   1   2
ATOM      2  C   UNL     1       6.586  -3.579  23.480  0.00  0.00    -0.030 A 
ATOM      3  C   UNL     1       7.583  -4.438  22.964  0.00  0.00    +0.005 A 
ATOM      4  C   UNL     1       7.277  -5.694  22.421  0.00  0.00    +0.000 A 
ATOM      5  C   UNL     1       5.955  -6.107  22.331  0.00  0.00    +0.000 A 
ATOM      6  C   UNL     1       4.944  -5.249  22.748  0.00  0.00    +0.000 A 
ATOM      7  C   UNL     1       5.252  -3.999  23.310  0.00  0.00    +0.005 A 
ENDBRANCH   1   2
BRANCH   1   8
ATOM      8  C   UNL     1       8.013  -1.458  23.454  0.00  0.00    -0.030 A 
ATOM      9  C   UNL     1       9.306  -1.944  23.175  0.00  0.00    +0.005 A 
ATOM     10  C   UNL     1      10.147  -1.289  22.266  0.00  0.00    +0.000 A 
ATOM     11  C   UNL     1       9.757  -0.084  21.694  0.00  0.00    +0.000 A 
ATOM     12  C   UNL     1       8.540   0.481  22.055  0.00  0.00    +0.000 A 
ATOM     13  C   UNL     1       7.678  -0.197  22.923  0.00  0.00    +0.005 A 
ENDBRANCH   1   8
BRANCH   1  14
ATOM     14  C   UNL     1       7.695  -2.817  25.656  0.00  0.00    +0.148 C 
ATOM     15  O   UNL     1       8.667  -2.261  26.189  0.00  0.00    -0.296 OA
BRANCH  14  17
ATOM     16  C   UNL     1       8.028  -5.177  26.596  0.00  0.00    +0.012 C 
ATOM     17  C   UNL     1       7.093  -4.005  26.371  0.00  0.00    +0.072 C 
ENDBRANCH  14  17
ENDBRANCH   1  14
BRANCH   1  18
ATOM     18  C   UNL     1       5.695  -1.427  24.687  0.00  0.00    +0.042 C 
BRANCH  18  19
ATOM     19  C   UNL     1       5.549  -0.519  25.978  0.00  0.00    +0.055 C 
ATOM     20  C   UNL     1       5.291   0.957  25.657  0.00  0.00    +0.024 C 
BRANCH  19  21
ATOM     21  N   UNL     1       4.527  -1.060  26.941  0.00  0.00    -0.306 NA
ATOM     22  C   UNL     1       3.830  -2.235  26.379  0.00  0.00    +0.104 C 
ATOM     23  C   UNL     1       3.489  -0.060  27.255  0.00  0.00    +0.104 C 
ENDBRANCH  19  21
ENDBRANCH  18  19
ENDBRANCH   1  18
TORSDOF 7
ENDMDL
MODEL 9
REMARK VINA RESULT:      -5.2      1.328      2.102
REMARK  Name = 
REMARK  11 active torsions:
REMARK  status: ('A' for Active; 'I' for Inactive)
REMARK    1  A    between atoms: C_1  and  C_2
REMARK    2  A    between atoms: C_2  and  C_3
REMARK    3  A    between atoms: C_3  and  C_5
REMARK    4  A    between atoms: C_5  and  C_6
REMARK    5  A    between atoms: C_5  and  C_12
REMARK    6  A    between atoms: C_5  and  C_18
REMARK    7  A    between atoms: C_6  and  C_7
REMARK    8  A    between atoms: C_7  and  C_8
REMARK    9  A    between atoms: C_7  and  N_9
REMARK   10  A    between atoms: N_9  and  C_10
REMARK   11  A    between atoms: N_9  and  C_11
REMARK                            x       y       z     vdW  Elec       q    Type
REMARK                         _______ _______ _______ _____ _____    ______ ____
ROOT
ATOM      1  C   UNL     1       6.901  -2.416  24.221  0.00  0.00    +0.080 C 
ENDROOT
BRANCH   1   2
ATOM      2  C   UNL     1       6.743  -3.835  23.513  0.00  0.00    -0.030 A 
ATOM      3  C   UNL     1       5.534  -4.166  22.859  0.00  0.00    +0.005 A 
ATOM      4  C   UNL     1       5.413  -5.302  22.046  0.00  0.00    +0.000 A 
ATOM      5  C   UNL     1       6.486  -6.169  21.902  0.00  0.00    +0.000 A 
ATOM      6  C   UNL     1       7.662  -5.920  22.601  0.00  0.00    +0.000 A 
ATOM      7  C   UNL     1       7.789  -4.772  23.401  0.00  0.00    +0.005 A 
ENDBRANCH   1   2
BRANCH   1   8
ATOM      8  C   UNL     1       7.618  -1.449  23.238  0.00  0.00    -0.030 A 
ATOM      9  C   UNL     1       7.263  -0.087  23.157  0.00  0.00    +0.005 A 
ATOM     10  C   UNL     1       8.025   0.818  22.407  0.00  0.00    +0.000 A 
ATOM     11  C   UNL     1       9.095   0.367  21.643  0.00  0.00    +0.000 A 
ATOM     12  C   UNL     1       9.383  -0.991  21.605  0.00  0.00    +0.000 A 
ATOM     13  C   UNL     1       8.654  -1.889  22.392  0.00  0.00    +0.005 A 
ENDBRANCH   1   8
BRANCH   1  14
ATOM     14  C   UNL     1       7.800  -2.673  25.533  0.00  0.00    +0.148 C 
ATOM     15  O   UNL     1       7.638  -3.645  26.287  0.00  0.00    -0.296 OA
BRANCH  14  17
ATOM     16  C   UNL     1       8.697  -0.702  26.902  0.00  0.00    +0.012 C 
ATOM     17  C   UNL     1       8.955  -1.744  25.831  0.00  0.00    +0.072 C 
ENDBRANCH  14  17
ENDBRANCH   1  14
BRANCH   1  18
ATOM     18  C   UNL     1       5.459  -1.864  24.674  0.00  0.00    +0.042 C 
BRANCH  18  19
ATOM     19  C   UNL     1       5.110  -1.314  26.118  0.00  0.00    +0.055 C 
ATOM     20  C   UNL     1       4.902   0.205  26.156  0.00  0.00    +0.024 C 
BRANCH  19  21
ATOM     21  N   UNL     1       3.950  -2.044  26.740  0.00  0.00    -0.306 NA
ATOM     22  C   UNL     1       4.369  -2.786  27.947  0.00  0.00    +0.104 C 
ATOM     23  C   UNL     1       3.367  -3.032  25.814  0.00  0.00    +0.104 C 
ENDBRANCH  19  21
ENDBRANCH  18  19
ENDBRANCH   1  18
TORSDOF 7
ENDMDL
