MODEL 1
REMARK VINA RESULT:      -3.5      0.000      0.000
REMARK  Name = 
REMARK  41 active torsions:
REMARK  status: ('A' for Active; 'I' for Inactive)
REMARK    1  A    between atoms: N_1  and  C_2
REMARK    2  A    between atoms: C_2  and  C_3
REMARK    3  A    between atoms: C_2  and  C_49
REMARK    4  A    between atoms: C_3  and  O_4
REMARK    5  A    between atoms: O_4  and  C_5
REMARK    6  A    between atoms: N_7  and  C_8
REMARK    7  A    between atoms: C_8  and  C_9
REMARK    8  A    between atoms: C_9  and  C_10
REMARK    9  A    between atoms: C_10  and  N_11
REMARK   10  A    between atoms: N_14  and  C_15
REMARK   11  A    between atoms: C_15  and  C_16
REMARK   12  A    between atoms: C_16  and  C_17
REMARK   13  A    between atoms: C_17  and  N_18
REMARK   14  A    between atoms: C_19  and  C_21
REMARK   15  A    between atoms: C_23  and  O_24
REMARK   16  A    between atoms: O_24  and  C_25
REMARK   17  A    between atoms: C_28  and  C_30
REMARK   18  A    between atoms: C_30  and  O_31
REMARK   19  A    between atoms: C_32  and  O_34
REMARK   20  A    between atoms: C_35  and  O_37
REMARK   21  A    between atoms: C_38  and  O_40
REMARK   22  A    between atoms: C_42  and  N_44
REMARK   23  A    between atoms: C_49  and  O_50
REMARK   24  A    between atoms: O_50  and  C_51
REMARK   25  A    between atoms: N_53  and  C_54
REMARK   26  A    between atoms: C_54  and  C_55
REMARK   27  A    between atoms: C_55  and  C_56
REMARK   28  A    between atoms: C_56  and  N_57
REMARK   29  A    between atoms: N_60  and  C_61
REMARK   30  A    between atoms: C_61  and  C_62
REMARK   31  A    between atoms: C_62  and  C_63
REMARK   32  A    between atoms: C_63  and  N_64
REMARK   33  A    between atoms: C_65  and  C_67
REMARK   34  A    between atoms: C_69  and  O_70
REMARK   35  A    between atoms: O_70  and  C_71
REMARK   36  A    between atoms: C_74  and  C_76
REMARK   37  A    between atoms: C_76  and  O_77
REMARK   38  A    between atoms: C_78  and  O_80
REMARK   39  A    between atoms: C_81  and  O_83
REMARK   40  A    between atoms: C_84  and  O_86
REMARK   41  A    between atoms: C_88  and  N_90
REMARK                            x       y       z     vdW  Elec       q    Type
REMARK                         _______ _______ _______ _____ _____    ______ ____
ROOT
ATOM      1  C   UNL     1       7.419  -3.003  22.591  0.00  0.00    +0.127 C 
ENDROOT
BRANCH   1   2
ATOM      2  N   UNL     1       6.349  -3.256  23.580  0.00  0.00    -0.322 NA
ATOM      3  H   UNL     1       5.903  -4.153  23.377  0.00  0.00    +0.119 HD
ATOM      4  H   UNL     1       6.781  -3.371  24.497  0.00  0.00    +0.119 HD
ENDBRANCH   1   2
BRANCH   1   5
ATOM      5  C   UNL     1       7.482  -1.511  22.227  0.00  0.00    +0.255 C 
BRANCH   5   6
ATOM      6  O   UNL     1       6.820  -0.736  23.240  0.00  0.00    -0.449 OA
BRANCH   6   7
ATOM      7  C   UNL     1       6.839   0.605  23.081  0.00  0.00    +0.400 C 
ATOM      8  N   UNL     1       6.097   1.180  24.066  0.00  0.00    -0.281 N 
ATOM      9  H   UNL     1       5.700   0.557  24.756  0.00  0.00    +0.152 HD
ATOM     10  O   UNL     1       7.425   1.213  22.198  0.00  0.00    -0.226 OA
BRANCH   8  11
ATOM     11  C   UNL     1       5.754   2.579  24.048  0.00  0.00    +0.109 C 
BRANCH  11  12
ATOM     12  C   UNL     1       4.340   2.840  23.533  0.00  0.00    +0.034 C 
BRANCH  12  13
ATOM     13  C   UNL     1       3.318   2.246  24.512  0.00  0.00    +0.086 C 
BRANCH  13  14
ATOM     14  N   UNL     1       3.596   2.520  25.933  0.00  0.00    -0.300 NA
ATOM     15  C   UNL     1       3.006   1.456  26.784  0.00  0.00    +0.100 C 
ATOM     16  C   UNL     1       1.459   1.522  26.938  0.00  0.00    +0.100 C 
ATOM     17  N   UNL     1       0.921   2.844  27.349  0.00  0.00    -0.300 NA
ATOM     18  C   UNL     1       1.520   3.876  26.477  0.00  0.00    +0.100 C 
ATOM     19  C   UNL     1       3.062   3.820  26.391  0.00  0.00    +0.100 C 
BRANCH  17  20
ATOM     20  C   UNL     1       1.167   3.087  28.785  0.00  0.00    +0.086 C 
BRANCH  20  21
ATOM     21  C   UNL     1       0.737   4.474  29.299  0.00  0.00    +0.034 C 
BRANCH  21  22
ATOM     22  C   UNL     1       1.711   5.065  30.314  0.00  0.00    +0.106 C 
BRANCH  22  23
ATOM     23  N   UNL     1       3.101   4.899  29.905  0.00  0.00    -0.311 N 
ATOM     24  H   UNL     1       3.432   3.951  29.800  0.00  0.00    +0.149 HD
ATOM     25  C   UNL     1       3.838   5.931  29.361  0.00  0.00    +0.244 C 
ATOM     26  O   UNL     1       3.446   7.091  29.309  0.00  0.00    -0.270 OA
BRANCH  25  27
ATOM     27  C   UNL     1       5.130   5.555  28.707  0.00  0.00    +0.047 A 
ATOM     28  C   UNL     1       5.451   4.194  28.651  0.00  0.00    +0.097 A 
ATOM     29  C   UNL     1       6.698   3.822  28.153  0.00  0.00    +0.277 A 
ATOM     30  C   UNL     1       7.628   4.758  27.688  0.00  0.00    +0.130 A 
ATOM     31  C   UNL     1       7.265   6.101  27.633  0.00  0.00    +0.131 A 
ATOM     32  C   UNL     1       6.024   6.499  28.166  0.00  0.00    +0.059 A 
BRANCH  29  33
ATOM     33  N   UNL     1       7.034   2.415  28.066  0.00  0.00    +0.080 N 
ATOM     34  O   UNL     1       7.390   1.857  29.111  0.00  0.00    +0.041 OA
ATOM     35  O   UNL     1       6.904   1.871  26.961  0.00  0.00    -0.576 OA
ENDBRANCH  29  33
BRANCH  31  36
ATOM     36  O   UNL     1       8.014   7.098  27.060  0.00  0.00    -0.461 OA
BRANCH  36  37
ATOM     37  C   UNL     1       8.160   7.108  25.620  0.00  0.00    +0.339 C 
ATOM     38  C   UNL     1       9.301   6.131  25.229  0.00  0.00    +0.214 C 
ATOM     39  C   UNL     1       9.252   5.771  23.735  0.00  0.00    +0.180 C 
ATOM     40  C   UNL     1       7.846   5.370  23.294  0.00  0.00    +0.177 C 
ATOM     41  C   UNL     1       6.900   6.523  23.646  0.00  0.00    +0.179 C 
ATOM     42  O   UNL     1       6.900   6.758  25.051  0.00  0.00    -0.331 OA
BRANCH  40  43
ATOM     43  O   UNL     1       7.900   5.091  21.890  0.00  0.00    -0.386 OA
ATOM     44  H   UNL     1       7.058   4.636  21.661  0.00  0.00    +0.210 HD
ENDBRANCH  40  43
BRANCH  38  45
ATOM     45  O   UNL     1      10.565   6.751  25.549  0.00  0.00    -0.383 OA
ATOM     46  H   UNL     1      11.163   6.066  25.899  0.00  0.00    +0.210 HD
ENDBRANCH  38  45
BRANCH  39  47
ATOM     47  O   UNL     1      10.169   4.707  23.442  0.00  0.00    -0.386 OA
ATOM     48  H   UNL     1       9.820   3.929  23.927  0.00  0.00    +0.210 HD
ENDBRANCH  39  47
BRANCH  41  49
ATOM     49  C   UNL     1       5.448   6.216  23.266  0.00  0.00    +0.190 C 
BRANCH  49  50
ATOM     50  O   UNL     1       4.578   6.321  24.385  0.00  0.00    -0.392 OA
ATOM     51  H   UNL     1       5.111   6.707  25.107  0.00  0.00    +0.210 HD
ENDBRANCH  49  50
ENDBRANCH  41  49
ENDBRANCH  36  37
ENDBRANCH  31  36
ENDBRANCH  25  27
ENDBRANCH  22  23
ENDBRANCH  21  22
ENDBRANCH  20  21
ENDBRANCH  17  20
ENDBRANCH  13  14
ENDBRANCH  12  13
ENDBRANCH  11  12
ENDBRANCH   8  11
ENDBRANCH   6   7
ENDBRANCH   5   6
ENDBRANCH   1   5
BRANCH   1  52
ATOM     52  C   UNL     1       7.236  -3.872  21.323  0.00  0.00    +0.255 C 
BRANCH  52  53
ATOM     53  O   UNL     1       5.881  -4.336  21.178  0.00  0.00    -0.449 OA
BRANCH  53  54
ATOM     54  C   UNL     1       5.602  -5.453  21.898  0.00  0.00    +0.400 C 
ATOM     55  N   UNL     1       4.476  -5.257  22.626  0.00  0.00    -0.281 N 
ATOM     56  H   UNL     1       4.052  -4.344  22.540  0.00  0.00    +0.152 HD
ATOM     57  O   UNL     1       6.285  -6.466  21.922  0.00  0.00    -0.226 OA
BRANCH  55  58
ATOM     58  C   UNL     1       4.185  -6.067  23.781  0.00  0.00    +0.109 C 
BRANCH  58  59
ATOM     59  C   UNL     1       3.263  -7.233  23.418  0.00  0.00    +0.034 C 
BRANCH  59  60
ATOM     60  C   UNL     1       1.946  -6.775  22.774  0.00  0.00    +0.086 C 
BRANCH  60  61
ATOM     61  N   UNL     1       0.742  -7.199  23.513  0.00  0.00    -0.300 NA
ATOM     62  C   UNL     1       0.444  -6.253  24.617  0.00  0.00    +0.100 C 
ATOM     63  C   UNL     1       1.402  -6.347  25.833  0.00  0.00    +0.100 C 
ATOM     64  N   UNL     1       1.616  -7.717  26.351  0.00  0.00    -0.300 NA
ATOM     65  C   UNL     1       1.931  -8.616  25.221  0.00  0.00    +0.100 C 
ATOM     66  C   UNL     1       0.887  -8.553  24.089  0.00  0.00    +0.100 C 
BRANCH  64  67
ATOM     67  C   UNL     1       0.447  -8.173  27.124  0.00  0.00    +0.086 C 
BRANCH  67  68
ATOM     68  C   UNL     1       0.833  -8.800  28.465  0.00  0.00    +0.034 C 
BRANCH  68  69
ATOM     69  C   UNL     1       0.835  -7.755  29.574  0.00  0.00    +0.106 C 
BRANCH  69  70
ATOM     70  N   UNL     1       1.645  -6.616  29.213  0.00  0.00    -0.311 N 
ATOM     71  H   UNL     1       2.353  -6.748  28.505  0.00  0.00    +0.149 HD
ATOM     72  C   UNL     1       1.362  -5.369  29.711  0.00  0.00    +0.244 C 
ATOM     73  O   UNL     1       0.443  -5.123  30.484  0.00  0.00    -0.270 OA
BRANCH  72  74
ATOM     74  C   UNL     1       2.226  -4.271  29.230  0.00  0.00    +0.047 A 
ATOM     75  C   UNL     1       2.198  -2.997  29.803  0.00  0.00    +0.097 A 
ATOM     76  C   UNL     1       3.042  -2.007  29.285  0.00  0.00    +0.277 A 
ATOM     77  C   UNL     1       3.888  -2.282  28.201  0.00  0.00    +0.130 A 
ATOM     78  C   UNL     1       3.883  -3.552  27.621  0.00  0.00    +0.131 A 
ATOM     79  C   UNL     1       3.066  -4.547  28.147  0.00  0.00    +0.059 A 
BRANCH  76  80
ATOM     80  N   UNL     1       3.034  -0.668  29.884  0.00  0.00    +0.080 N 
ATOM     81  O   UNL     1       4.104  -0.041  29.895  0.00  0.00    +0.041 OA
ATOM     82  O   UNL     1       1.964  -0.241  30.336  0.00  0.00    -0.576 OA
ENDBRANCH  76  80
BRANCH  78  83
ATOM     83  O   UNL     1       4.734  -3.735  26.569  0.00  0.00    -0.461 OA
BRANCH  83  84
ATOM     84  C   UNL     1       6.131  -3.825  26.897  0.00  0.00    +0.339 C 
ATOM     85  C   UNL     1       6.655  -5.167  26.342  0.00  0.00    +0.214 C 
ATOM     86  C   UNL     1       8.170  -5.253  26.573  0.00  0.00    +0.180 C 
ATOM     87  C   UNL     1       8.881  -4.014  26.017  0.00  0.00    +0.177 C 
ATOM     88  C   UNL     1       8.248  -2.747  26.604  0.00  0.00    +0.179 C 
ATOM     89  O   UNL     1       6.839  -2.715  26.330  0.00  0.00    -0.331 OA
BRANCH  85  90
ATOM     90  O   UNL     1       5.968  -6.266  26.968  0.00  0.00    -0.383 OA
ATOM     91  H   UNL     1       5.245  -6.560  26.391  0.00  0.00    +0.210 HD
ENDBRANCH  85  90
BRANCH  86  92
ATOM     92  O   UNL     1       8.710  -6.432  25.968  0.00  0.00    -0.386 OA
ATOM     93  H   UNL     1       9.283  -6.854  26.639  0.00  0.00    +0.210 HD
ENDBRANCH  86  92
BRANCH  87  94
ATOM     94  O   UNL     1      10.280  -4.118  26.302  0.00  0.00    -0.386 OA
ATOM     95  H   UNL     1      10.749  -4.440  25.511  0.00  0.00    +0.210 HD
ENDBRANCH  87  94
BRANCH  88  96
ATOM     96  C   UNL     1       8.877  -1.484  26.004  0.00  0.00    +0.190 C 
BRANCH  96  97
ATOM     97  O   UNL     1       7.930  -0.417  26.033  0.00  0.00    -0.392 OA
ATOM     98  H   UNL     1       7.346  -0.594  26.794  0.00  0.00    +0.210 HD
ENDBRANCH  96  97
ENDBRANCH  88  96
ENDBRANCH  83  84
ENDBRANCH  78  83
ENDBRANCH  72  74
ENDBRANCH  69  70
ENDBRANCH  68  69
ENDBRANCH  67  68
ENDBRANCH  64  67
ENDBRANCH  60  61
ENDBRANCH  59  60
ENDBRANCH  58  59
ENDBRANCH  55  58
ENDBRANCH  53  54
ENDBRANCH  52  53
ENDBRANCH   1  52
TORSDOF 41
ENDMDL
MODEL 2
REMARK VINA RESULT:      -3.0      2.612      6.422
REMARK  Name = 
REMARK  41 active torsions:
REMARK  status: ('A' for Active; 'I' for Inactive)
REMARK    1  A    between atoms: N_1  and  C_2
REMARK    2  A    between atoms: C_2  and  C_3
REMARK    3  A    between atoms: C_2  and  C_49
REMARK    4  A    between atoms: C_3  and  O_4
REMARK    5  A    between atoms: O_4  and  C_5
REMARK    6  A    between atoms: N_7  and  C_8
REMARK    7  A    between atoms: C_8  and  C_9
REMARK    8  A    between atoms: C_9  and  C_10
REMARK    9  A    between atoms: C_10  and  N_11
REMARK   10  A    between atoms: N_14  and  C_15
REMARK   11  A    between atoms: C_15  and  C_16
REMARK   12  A    between atoms: C_16  and  C_17
REMARK   13  A    between atoms: C_17  and  N_18
REMARK   14  A    between atoms: C_19  and  C_21
REMARK   15  A    between atoms: C_23  and  O_24
REMARK   16  A    between atoms: O_24  and  C_25
REMARK   17  A    between atoms: C_28  and  C_30
REMARK   18  A    between atoms: C_30  and  O_31
REMARK   19  A    between atoms: C_32  and  O_34
REMARK   20  A    between atoms: C_35  and  O_37
REMARK   21  A    between atoms: C_38  and  O_40
REMARK   22  A    between atoms: C_42  and  N_44
REMARK   23  A    between atoms: C_49  and  O_50
REMARK   24  A    between atoms: O_50  and  C_51
REMARK   25  A    between atoms: N_53  and  C_54
REMARK   26  A    between atoms: C_54  and  C_55
REMARK   27  A    between atoms: C_55  and  C_56
REMARK   28  A    between atoms: C_56  and  N_57
REMARK   29  A    between atoms: N_60  and  C_61
REMARK   30  A    between atoms: C_61  and  C_62
REMARK   31  A    between atoms: C_62  and  C_63
REMARK   32  A    between atoms: C_63  and  N_64
REMARK   33  A    between atoms: C_65  and  C_67
REMARK   34  A    between atoms: C_69  and  O_70
REMARK   35  A    between atoms: O_70  and  C_71
REMARK   36  A    between atoms: C_74  and  C_76
REMARK   37  A    between atoms: C_76  and  O_77
REMARK   38  A    between atoms: C_78  and  O_80
REMARK   39  A    between atoms: C_81  and  O_83
REMARK   40  A    between atoms: C_84  and  O_86
REMARK   41  A    between atoms: C_88  and  N_90
REMARK                            x       y       z     vdW  Elec       q    Type
REMARK                         _______ _______ _______ _____ _____    ______ ____
ROOT
ATOM      1  C   UNL     1       6.840  -5.511  28.405  0.00  0.00    +0.127 C 
ENDROOT
BRANCH   1   2
ATOM      2  N   UNL     1       6.405  -4.098  28.399  0.00  0.00    -0.322 NA
ATOM      3  H   UNL     1       6.004  -3.862  29.308  0.00  0.00    +0.119 HD
ATOM      4  H   UNL     1       7.233  -3.508  28.308  0.00  0.00    +0.119 HD
ENDBRANCH   1   2
BRANCH   1   5
ATOM      5  C   UNL     1       6.805  -6.097  26.984  0.00  0.00    +0.255 C 
BRANCH   5   6
ATOM      6  O   UNL     1       6.352  -5.095  26.057  0.00  0.00    -0.449 OA
BRANCH   6   7
ATOM      7  C   UNL     1       5.021  -5.036  25.837  0.00  0.00    +0.400 C 
ATOM      8  N   UNL     1       4.575  -3.788  26.143  0.00  0.00    -0.281 N 
ATOM      9  H   UNL     1       5.272  -3.116  26.432  0.00  0.00    +0.152 HD
ATOM     10  O   UNL     1       4.321  -5.951  25.429  0.00  0.00    -0.226 OA
BRANCH   8  11
ATOM     11  C   UNL     1       3.171  -3.473  26.212  0.00  0.00    +0.109 C 
BRANCH  11  12
ATOM     12  C   UNL     1       2.904  -2.000  26.513  0.00  0.00    +0.034 C 
BRANCH  12  13
ATOM     13  C   UNL     1       2.583  -1.831  28.006  0.00  0.00    +0.086 C 
BRANCH  13  14
ATOM     14  N   UNL     1       1.349  -1.075  28.287  0.00  0.00    -0.300 NA
ATOM     15  C   UNL     1       1.013  -0.198  27.137  0.00  0.00    +0.100 C 
ATOM     16  C   UNL     1       1.910   1.065  26.992  0.00  0.00    +0.100 C 
ATOM     17  N   UNL     1       2.048   1.887  28.221  0.00  0.00    -0.300 NA
ATOM     18  C   UNL     1       2.392   0.986  29.341  0.00  0.00    +0.100 C 
ATOM     19  C   UNL     1       1.448  -0.228  29.495  0.00  0.00    +0.100 C 
BRANCH  17  20
ATOM     20  C   UNL     1       0.822   2.673  28.467  0.00  0.00    +0.086 C 
BRANCH  20  21
ATOM     21  C   UNL     1       1.054   4.144  28.861  0.00  0.00    +0.034 C 
BRANCH  21  22
ATOM     22  C   UNL     1       2.530   4.521  28.924  0.00  0.00    +0.106 C 
BRANCH  22  23
ATOM     23  N   UNL     1       3.065   4.876  27.615  0.00  0.00    -0.311 N 
ATOM     24  H   UNL     1       3.330   4.111  27.011  0.00  0.00    +0.149 HD
ATOM     25  C   UNL     1       2.915   6.136  27.072  0.00  0.00    +0.244 C 
ATOM     26  O   UNL     1       2.456   7.090  27.690  0.00  0.00    -0.270 OA
BRANCH  25  27
ATOM     27  C   UNL     1       3.232   6.278  25.618  0.00  0.00    +0.047 A 
ATOM     28  C   UNL     1       4.553   6.050  25.221  0.00  0.00    +0.097 A 
ATOM     29  C   UNL     1       4.903   6.286  23.893  0.00  0.00    +0.277 A 
ATOM     30  C   UNL     1       3.975   6.721  22.941  0.00  0.00    +0.130 A 
ATOM     31  C   UNL     1       2.636   6.835  23.305  0.00  0.00    +0.131 A 
ATOM     32  C   UNL     1       2.272   6.635  24.651  0.00  0.00    +0.059 A 
BRANCH  29  33
ATOM     33  N   UNL     1       6.263   6.031  23.463  0.00  0.00    +0.080 N 
ATOM     34  O   UNL     1       7.129   5.971  24.344  0.00  0.00    +0.041 OA
ATOM     35  O   UNL     1       6.448   5.856  22.251  0.00  0.00    -0.576 OA
ENDBRANCH  29  33
BRANCH  31  36
ATOM     36  O   UNL     1       1.602   7.098  22.441  0.00  0.00    -0.461 OA
BRANCH  36  37
ATOM     37  C   UNL     1       1.035   5.998  21.692  0.00  0.00    +0.339 C 
ATOM     38  C   UNL     1       1.883   5.778  20.411  0.00  0.00    +0.214 C 
ATOM     39  C   UNL     1       1.611   4.402  19.780  0.00  0.00    +0.180 C 
ATOM     40  C   UNL     1       1.661   3.282  20.819  0.00  0.00    +0.177 C 
ATOM     41  C   UNL     1       0.656   3.625  21.923  0.00  0.00    +0.179 C 
ATOM     42  O   UNL     1       1.002   4.858  22.548  0.00  0.00    -0.331 OA
BRANCH  40  43
ATOM     43  O   UNL     1       1.361   2.056  20.141  0.00  0.00    -0.386 OA
ATOM     44  H   UNL     1       0.518   2.204  19.654  0.00  0.00    +0.210 HD
ENDBRANCH  40  43
BRANCH  38  45
ATOM     45  O   UNL     1       1.571   6.826  19.468  0.00  0.00    -0.383 OA
ATOM     46  H   UNL     1       0.888   7.400  19.862  0.00  0.00    +0.210 HD
ENDBRANCH  38  45
BRANCH  39  47
ATOM     47  O   UNL     1       2.555   4.130  18.736  0.00  0.00    -0.386 OA
ATOM     48  H   UNL     1       2.904   3.235  18.932  0.00  0.00    +0.210 HD
ENDBRANCH  39  47
BRANCH  41  49
ATOM     49  C   UNL     1       0.640   2.573  23.036  0.00  0.00    +0.190 C 
BRANCH  49  50
ATOM     50  O   UNL     1       1.575   2.880  24.063  0.00  0.00    -0.392 OA
ATOM     51  H   UNL     1       1.201   2.512  24.887  0.00  0.00    +0.210 HD
ENDBRANCH  49  50
ENDBRANCH  41  49
ENDBRANCH  36  37
ENDBRANCH  31  36
ENDBRANCH  25  27
ENDBRANCH  22  23
ENDBRANCH  21  22
ENDBRANCH  20  21
ENDBRANCH  17  20
ENDBRANCH  13  14
ENDBRANCH  12  13
ENDBRANCH  11  12
ENDBRANCH   8  11
ENDBRANCH   6   7
ENDBRANCH   5   6
ENDBRANCH   1   5
BRANCH   1  52
ATOM     52  C   UNL     1       5.985  -6.363  29.373  0.00  0.00    +0.255 C 
BRANCH  52  53
ATOM     53  O   UNL     1       4.654  -5.836  29.525  0.00  0.00    -0.449 OA
BRANCH  53  54
ATOM     54  C   UNL     1       3.686  -6.628  28.997  0.00  0.00    +0.400 C 
ATOM     55  N   UNL     1       2.485  -6.296  29.529  0.00  0.00    -0.281 N 
ATOM     56  H   UNL     1       2.501  -5.558  30.221  0.00  0.00    +0.152 HD
ATOM     57  O   UNL     1       3.872  -7.533  28.198  0.00  0.00    -0.226 OA
BRANCH  55  58
ATOM     58  C   UNL     1       1.376  -7.215  29.500  0.00  0.00    +0.109 C 
BRANCH  58  59
ATOM     59  C   UNL     1       0.449  -6.922  28.319  0.00  0.00    +0.034 C 
BRANCH  59  60
ATOM     60  C   UNL     1       0.481  -8.021  27.246  0.00  0.00    +0.086 C 
BRANCH  60  61
ATOM     61  N   UNL     1       1.636  -7.928  26.333  0.00  0.00    -0.300 NA
ATOM     62  C   UNL     1       1.689  -6.594  25.687  0.00  0.00    +0.100 C 
ATOM     63  C   UNL     1       0.617  -6.358  24.591  0.00  0.00    +0.100 C 
ATOM     64  N   UNL     1       0.515  -7.434  23.580  0.00  0.00    -0.300 NA
ATOM     65  C   UNL     1       0.443  -8.739  24.270  0.00  0.00    +0.100 C 
ATOM     66  C   UNL     1       1.594  -8.957  25.272  0.00  0.00    +0.100 C 
BRANCH  64  67
ATOM     67  C   UNL     1       1.635  -7.363  22.625  0.00  0.00    +0.086 C 
BRANCH  67  68
ATOM     68  C   UNL     1       2.896  -6.749  23.236  0.00  0.00    +0.034 C 
BRANCH  68  69
ATOM     69  C   UNL     1       3.820  -6.211  22.150  0.00  0.00    +0.106 C 
BRANCH  69  70
ATOM     70  N   UNL     1       4.557  -5.061  22.619  0.00  0.00    -0.311 N 
ATOM     71  H   UNL     1       4.217  -4.590  23.446  0.00  0.00    +0.149 HD
ATOM     72  C   UNL     1       5.755  -4.715  22.046  0.00  0.00    +0.244 C 
ATOM     73  O   UNL     1       6.278  -5.318  21.115  0.00  0.00    -0.270 OA
BRANCH  72  74
ATOM     74  C   UNL     1       6.444  -3.553  22.644  0.00  0.00    +0.047 A 
ATOM     75  C   UNL     1       7.838  -3.467  22.707  0.00  0.00    +0.097 A 
ATOM     76  C   UNL     1       8.417  -2.336  23.297  0.00  0.00    +0.277 A 
ATOM     77  C   UNL     1       7.615  -1.318  23.831  0.00  0.00    +0.130 A 
ATOM     78  C   UNL     1       6.224  -1.433  23.786  0.00  0.00    +0.131 A 
ATOM     79  C   UNL     1       5.642  -2.540  23.178  0.00  0.00    +0.059 A 
BRANCH  76  80
ATOM     80  N   UNL     1       9.878  -2.225  23.359  0.00  0.00    +0.080 N 
ATOM     81  O   UNL     1      10.501  -3.166  23.874  0.00  0.00    +0.041 OA
ATOM     82  O   UNL     1      10.403  -1.206  22.891  0.00  0.00    -0.576 OA
ENDBRANCH  76  80
BRANCH  78  83
ATOM     83  O   UNL     1       5.518  -0.398  24.330  0.00  0.00    -0.461 OA
BRANCH  83  84
ATOM     84  C   UNL     1       6.078   0.913  24.143  0.00  0.00    +0.339 C 
ATOM     85  C   UNL     1       6.759   1.322  25.467  0.00  0.00    +0.214 C 
ATOM     86  C   UNL     1       7.467   2.671  25.276  0.00  0.00    +0.180 C 
ATOM     87  C   UNL     1       8.405   2.631  24.064  0.00  0.00    +0.177 C 
ATOM     88  C   UNL     1       7.629   2.172  22.824  0.00  0.00    +0.179 C 
ATOM     89  O   UNL     1       7.015   0.896  23.059  0.00  0.00    -0.331 OA
BRANCH  85  90
ATOM     90  O   UNL     1       5.788   1.388  26.527  0.00  0.00    -0.383 OA
ATOM     91  H   UNL     1       6.219   1.709  27.335  0.00  0.00    +0.210 HD
ENDBRANCH  85  90
BRANCH  86  92
ATOM     92  O   UNL     1       8.207   3.027  26.448  0.00  0.00    -0.386 OA
ATOM     93  H   UNL     1       8.385   3.986  26.386  0.00  0.00    +0.210 HD
ENDBRANCH  86  92
BRANCH  87  94
ATOM     94  O   UNL     1       9.000   3.923  23.898  0.00  0.00    -0.386 OA
ATOM     95  H   UNL     1       8.666   4.330  23.078  0.00  0.00    +0.210 HD
ENDBRANCH  87  94
BRANCH  88  96
ATOM     96  C   UNL     1       8.555   2.037  21.609  0.00  0.00    +0.190 C 
BRANCH  96  97
ATOM     97  O   UNL     1       9.892   1.806  22.049  0.00  0.00    -0.392 OA
ATOM     98  H   UNL     1       9.844   1.697  23.018  0.00  0.00    +0.210 HD
ENDBRANCH  96  97
ENDBRANCH  88  96
ENDBRANCH  83  84
ENDBRANCH  78  83
ENDBRANCH  72  74
ENDBRANCH  69  70
ENDBRANCH  68  69
ENDBRANCH  67  68
ENDBRANCH  64  67
ENDBRANCH  60  61
ENDBRANCH  59  60
ENDBRANCH  58  59
ENDBRANCH  55  58
ENDBRANCH  53  54
ENDBRANCH  52  53
ENDBRANCH   1  52
TORSDOF 41
ENDMDL
MODEL 3
REMARK VINA RESULT:      -2.8      2.291     10.487
REMARK  Name = 
REMARK  41 active torsions:
REMARK  status: ('A' for Active; 'I' for Inactive)
REMARK    1  A    between atoms: N_1  and  C_2
REMARK    2  A    between atoms: C_2  and  C_3
REMARK    3  A    between atoms: C_2  and  C_49
REMARK    4  A    between atoms: C_3  and  O_4
REMARK    5  A    between atoms: O_4  and  C_5
REMARK    6  A    between atoms: N_7  and  C_8
REMARK    7  A    between atoms: C_8  and  C_9
REMARK    8  A    between atoms: C_9  and  C_10
REMARK    9  A    between atoms: C_10  and  N_11
REMARK   10  A    between atoms: N_14  and  C_15
REMARK   11  A    between atoms: C_15  and  C_16
REMARK   12  A    between atoms: C_16  and  C_17
REMARK   13  A    between atoms: C_17  and  N_18
REMARK   14  A    between atoms: C_19  and  C_21
REMARK   15  A    between atoms: C_23  and  O_24
REMARK   16  A    between atoms: O_24  and  C_25
REMARK   17  A    between atoms: C_28  and  C_30
REMARK   18  A    between atoms: C_30  and  O_31
REMARK   19  A    between atoms: C_32  and  O_34
REMARK   20  A    between atoms: C_35  and  O_37
REMARK   21  A    between atoms: C_38  and  O_40
REMARK   22  A    between atoms: C_42  and  N_44
REMARK   23  A    between atoms: C_49  and  O_50
REMARK   24  A    between atoms: O_50  and  C_51
REMARK   25  A    between atoms: N_53  and  C_54
REMARK   26  A    between atoms: C_54  and  C_55
REMARK   27  A    between atoms: C_55  and  C_56
REMARK   28  A    between atoms: C_56  and  N_57
REMARK   29  A    between atoms: N_60  and  C_61
REMARK   30  A    between atoms: C_61  and  C_62
REMARK   31  A    between atoms: C_62  and  C_63
REMARK   32  A    between atoms: C_63  and  N_64
REMARK   33  A    between atoms: C_65  and  C_67
REMARK   34  A    between atoms: C_69  and  O_70
REMARK   35  A    between atoms: O_70  and  C_71
REMARK   36  A    between atoms: C_74  and  C_76
REMARK   37  A    between atoms: C_76  and  O_77
REMARK   38  A    between atoms: C_78  and  O_80
REMARK   39  A    between atoms: C_81  and  O_83
REMARK   40  A    between atoms: C_84  and  O_86
REMARK   41  A    between atoms: C_88  and  N_90
REMARK                            x       y       z     vdW  Elec       q    Type
REMARK                         _______ _______ _______ _____ _____    ______ ____
ROOT
ATOM      1  C   UNL     1       7.009   4.688  28.179  0.00  0.00    +0.127 C 
ENDROOT
BRANCH   1   2
ATOM      2  N   UNL     1       6.639   4.199  26.834  0.00  0.00    -0.322 NA
ATOM      3  H   UNL     1       7.171   3.354  26.621  0.00  0.00    +0.119 HD
ATOM      4  H   UNL     1       5.662   3.904  26.858  0.00  0.00    +0.119 HD
ENDBRANCH   1   2
BRANCH   1   5
ATOM      5  C   UNL     1       6.501   3.728  29.267  0.00  0.00    +0.255 C 
BRANCH   5   6
ATOM      6  O   UNL     1       5.270   4.227  29.819  0.00  0.00    -0.449 OA
BRANCH   6   7
ATOM      7  C   UNL     1       4.170   3.470  29.620  0.00  0.00    +0.400 C 
ATOM      8  N   UNL     1       4.082   3.151  28.301  0.00  0.00    -0.281 N 
ATOM      9  H   UNL     1       4.834   3.473  27.706  0.00  0.00    +0.152 HD
ATOM     10  O   UNL     1       3.375   3.123  30.480  0.00  0.00    -0.226 OA
BRANCH   8  11
ATOM     11  C   UNL     1       2.910   2.529  27.740  0.00  0.00    +0.109 C 
BRANCH  11  12
ATOM     12  C   UNL     1       1.620   2.943  28.444  0.00  0.00    +0.034 C 
BRANCH  12  13
ATOM     13  C   UNL     1       0.795   1.692  28.781  0.00  0.00    +0.086 C 
BRANCH  13  14
ATOM     14  N   UNL     1       1.308   0.441  28.197  0.00  0.00    -0.300 NA
ATOM     15  C   UNL     1       0.548  -0.720  28.725  0.00  0.00    +0.100 C 
ATOM     16  C   UNL     1       0.885  -1.112  30.192  0.00  0.00    +0.100 C 
ATOM     17  N   UNL     1       2.331  -1.290  30.482  0.00  0.00    -0.300 NA
ATOM     18  C   UNL     1       3.055  -0.115  29.953  0.00  0.00    +0.100 C 
ATOM     19  C   UNL     1       2.742   0.213  28.476  0.00  0.00    +0.100 C 
BRANCH  17  20
ATOM     20  C   UNL     1       2.823  -2.569  29.930  0.00  0.00    +0.086 C 
BRANCH  20  21
ATOM     21  C   UNL     1       1.731  -3.608  29.611  0.00  0.00    +0.034 C 
BRANCH  21  22
ATOM     22  C   UNL     1       0.892  -3.239  28.391  0.00  0.00    +0.106 C 
BRANCH  22  23
ATOM     23  N   UNL     1       0.995  -4.233  27.329  0.00  0.00    -0.311 N 
ATOM     24  H   UNL     1       1.433  -3.934  26.470  0.00  0.00    +0.149 HD
ATOM     25  C   UNL     1       0.831  -5.583  27.564  0.00  0.00    +0.244 C 
ATOM     26  O   UNL     1       0.448  -6.045  28.633  0.00  0.00    -0.270 OA
BRANCH  25  27
ATOM     27  C   UNL     1       1.262  -6.507  26.469  0.00  0.00    +0.047 A 
ATOM     28  C   UNL     1       0.884  -7.849  26.572  0.00  0.00    +0.097 A 
ATOM     29  C   UNL     1       1.368  -8.754  25.630  0.00  0.00    +0.277 A 
ATOM     30  C   UNL     1       2.199  -8.363  24.575  0.00  0.00    +0.130 A 
ATOM     31  C   UNL     1       2.480  -7.010  24.401  0.00  0.00    +0.131 A 
ATOM     32  C   UNL     1       2.030  -6.087  25.365  0.00  0.00    +0.059 A 
BRANCH  29  33
ATOM     33  N   UNL     1       0.964 -10.144  25.710  0.00  0.00    +0.080 N 
ATOM     34  O   UNL     1       0.842 -10.629  26.842  0.00  0.00    +0.041 OA
ATOM     35  O   UNL     1       0.737 -10.728  24.642  0.00  0.00    -0.576 OA
ENDBRANCH  29  33
BRANCH  31  36
ATOM     36  O   UNL     1       3.148  -6.473  23.329  0.00  0.00    -0.461 OA
BRANCH  36  37
ATOM     37  C   UNL     1       4.460  -5.904  23.551  0.00  0.00    +0.339 C 
ATOM     38  C   UNL     1       5.383  -6.306  22.370  0.00  0.00    +0.214 C 
ATOM     39  C   UNL     1       6.643  -5.428  22.311  0.00  0.00    +0.180 C 
ATOM     40  C   UNL     1       6.305  -3.942  22.422  0.00  0.00    +0.177 C 
ATOM     41  C   UNL     1       5.515  -3.740  23.720  0.00  0.00    +0.179 C 
ATOM     42  O   UNL     1       4.306  -4.494  23.691  0.00  0.00    -0.331 OA
BRANCH  40  43
ATOM     43  O   UNL     1       7.541  -3.218  22.394  0.00  0.00    -0.386 OA
ATOM     44  H   UNL     1       7.464  -2.505  23.068  0.00  0.00    +0.210 HD
ENDBRANCH  40  43
BRANCH  38  45
ATOM     45  O   UNL     1       5.752  -7.693  22.526  0.00  0.00    -0.383 OA
ATOM     46  H   UNL     1       6.605  -7.733  22.995  0.00  0.00    +0.210 HD
ENDBRANCH  38  45
BRANCH  39  47
ATOM     47  O   UNL     1       7.368  -5.665  21.096  0.00  0.00    -0.386 OA
ATOM     48  H   UNL     1       7.515  -4.776  20.708  0.00  0.00    +0.210 HD
ENDBRANCH  39  47
BRANCH  41  49
ATOM     49  C   UNL     1       5.101  -2.279  23.922  0.00  0.00    +0.190 C 
BRANCH  49  50
ATOM     50  O   UNL     1       4.370  -2.101  25.128  0.00  0.00    -0.392 OA
ATOM     51  H   UNL     1       3.522  -2.570  25.002  0.00  0.00    +0.210 HD
ENDBRANCH  49  50
ENDBRANCH  41  49
ENDBRANCH  36  37
ENDBRANCH  31  36
ENDBRANCH  25  27
ENDBRANCH  22  23
ENDBRANCH  21  22
ENDBRANCH  20  21
ENDBRANCH  17  20
ENDBRANCH  13  14
ENDBRANCH  12  13
ENDBRANCH  11  12
ENDBRANCH   8  11
ENDBRANCH   6   7
ENDBRANCH   5   6
ENDBRANCH   1   5
BRANCH   1  52
ATOM     52  C   UNL     1       6.483   6.124  28.424  0.00  0.00    +0.255 C 
BRANCH  52  53
ATOM     53  O   UNL     1       7.008   7.061  27.466  0.00  0.00    -0.449 OA
BRANCH  53  54
ATOM     54  C   UNL     1       8.360   7.027  27.347  0.00  0.00    +0.400 C 
ATOM     55  N   UNL     1       8.705   7.108  26.039  0.00  0.00    -0.281 N 
ATOM     56  H   UNL     1       7.936   7.156  25.385  0.00  0.00    +0.152 HD
ATOM     57  O   UNL     1       9.146   6.898  28.273  0.00  0.00    -0.226 OA
BRANCH  55  58
ATOM     58  C   UNL     1       9.998   6.668  25.580  0.00  0.00    +0.109 C 
BRANCH  58  59
ATOM     59  C   UNL     1      10.001   6.452  24.066  0.00  0.00    +0.034 C 
BRANCH  59  60
ATOM     60  C   UNL     1       8.788   7.087  23.370  0.00  0.00    +0.086 C 
BRANCH  60  61
ATOM     61  N   UNL     1       8.092   6.178  22.439  0.00  0.00    -0.300 NA
ATOM     62  C   UNL     1       6.847   6.803  21.928  0.00  0.00    +0.100 C 
ATOM     63  C   UNL     1       5.687   6.877  22.954  0.00  0.00    +0.100 C 
ATOM     64  N   UNL     1       5.394   5.606  23.655  0.00  0.00    -0.300 NA
ATOM     65  C   UNL     1       6.658   5.035  24.164  0.00  0.00    +0.100 C 
ATOM     66  C   UNL     1       7.739   4.890  23.073  0.00  0.00    +0.100 C 
BRANCH  64  67
ATOM     67  C   UNL     1       4.671   4.675  22.771  0.00  0.00    +0.086 C 
BRANCH  67  68
ATOM     68  C   UNL     1       3.397   4.121  23.411  0.00  0.00    +0.034 C 
BRANCH  68  69
ATOM     69  C   UNL     1       3.562   2.648  23.764  0.00  0.00    +0.106 C 
BRANCH  69  70
ATOM     70  N   UNL     1       4.953   2.259  23.737  0.00  0.00    -0.311 N 
ATOM     71  H   UNL     1       5.561   2.739  23.089  0.00  0.00    +0.149 HD
ATOM     72  C   UNL     1       5.452   1.377  24.662  0.00  0.00    +0.244 C 
ATOM     73  O   UNL     1       4.788   0.851  25.547  0.00  0.00    -0.270 OA
BRANCH  72  74
ATOM     74  C   UNL     1       6.900   1.097  24.570  0.00  0.00    +0.047 A 
ATOM     75  C   UNL     1       7.787   1.968  23.932  0.00  0.00    +0.097 A 
ATOM     76  C   UNL     1       9.144   1.629  23.879  0.00  0.00    +0.277 A 
ATOM     77  C   UNL     1       9.604   0.428  24.440  0.00  0.00    +0.130 A 
ATOM     78  C   UNL     1       8.701  -0.445  25.048  0.00  0.00    +0.131 A 
ATOM     79  C   UNL     1       7.356  -0.102  25.127  0.00  0.00    +0.059 A 
BRANCH  76  80
ATOM     80  N   UNL     1      10.089   2.539  23.224  0.00  0.00    +0.080 N 
ATOM     81  O   UNL     1      10.578   3.447  23.913  0.00  0.00    +0.041 OA
ATOM     82  O   UNL     1      10.348   2.346  22.029  0.00  0.00    -0.576 OA
ENDBRANCH  76  80
BRANCH  78  83
ATOM     83  O   UNL     1       9.232  -1.591  25.567  0.00  0.00    -0.461 OA
BRANCH  83  84
ATOM     84  C   UNL     1       8.369  -2.741  25.567  0.00  0.00    +0.339 C 
ATOM     85  C   UNL     1       9.266  -3.997  25.540  0.00  0.00    +0.214 C 
ATOM     86  C   UNL     1       8.386  -5.250  25.653  0.00  0.00    +0.180 C 
ATOM     87  C   UNL     1       7.456  -5.159  26.867  0.00  0.00    +0.177 C 
ATOM     88  C   UNL     1       6.651  -3.856  26.806  0.00  0.00    +0.179 C 
ATOM     89  O   UNL     1       7.531  -2.724  26.730  0.00  0.00    -0.331 OA
BRANCH  85  90
ATOM     90  O   UNL     1      10.055  -4.020  24.338  0.00  0.00    -0.383 OA
ATOM     91  H   UNL     1       9.464  -4.051  23.568  0.00  0.00    +0.210 HD
ENDBRANCH  85  90
BRANCH  86  92
ATOM     92  O   UNL     1       9.191  -6.430  25.748  0.00  0.00    -0.386 OA
ATOM     93  H   UNL     1       8.595  -7.154  26.022  0.00  0.00    +0.210 HD
ENDBRANCH  86  92
BRANCH  87  94
ATOM     94  O   UNL     1       6.622  -6.323  26.898  0.00  0.00    -0.386 OA
ATOM     95  H   UNL     1       6.588  -6.672  27.807  0.00  0.00    +0.210 HD
ENDBRANCH  87  94
BRANCH  88  96
ATOM     96  C   UNL     1       5.770  -3.689  28.051  0.00  0.00    +0.190 C 
BRANCH  96  97
ATOM     97  O   UNL     1       4.831  -4.760  28.120  0.00  0.00    -0.392 OA
ATOM     98  H   UNL     1       5.133  -5.340  28.844  0.00  0.00    +0.210 HD
ENDBRANCH  96  97
ENDBRANCH  88  96
ENDBRANCH  83  84
ENDBRANCH  78  83
ENDBRANCH  72  74
ENDBRANCH  69  70
ENDBRANCH  68  69
ENDBRANCH  67  68
ENDBRANCH  64  67
ENDBRANCH  60  61
ENDBRANCH  59  60
ENDBRANCH  58  59
ENDBRANCH  55  58
ENDBRANCH  53  54
ENDBRANCH  52  53
ENDBRANCH   1  52
TORSDOF 41
ENDMDL
MODEL 4
REMARK VINA RESULT:      -1.9      2.179      9.759
REMARK  Name = 
REMARK  41 active torsions:
REMARK  status: ('A' for Active; 'I' for Inactive)
REMARK    1  A    between atoms: N_1  and  C_2
REMARK    2  A    between atoms: C_2  and  C_3
REMARK    3  A    between atoms: C_2  and  C_49
REMARK    4  A    between atoms: C_3  and  O_4
REMARK    5  A    between atoms: O_4  and  C_5
REMARK    6  A    between atoms: N_7  and  C_8
REMARK    7  A    between atoms: C_8  and  C_9
REMARK    8  A    between atoms: C_9  and  C_10
REMARK    9  A    between atoms: C_10  and  N_11
REMARK   10  A    between atoms: N_14  and  C_15
REMARK   11  A    between atoms: C_15  and  C_16
REMARK   12  A    between atoms: C_16  and  C_17
REMARK   13  A    between atoms: C_17  and  N_18
REMARK   14  A    between atoms: C_19  and  C_21
REMARK   15  A    between atoms: C_23  and  O_24
REMARK   16  A    between atoms: O_24  and  C_25
REMARK   17  A    between atoms: C_28  and  C_30
REMARK   18  A    between atoms: C_30  and  O_31
REMARK   19  A    between atoms: C_32  and  O_34
REMARK   20  A    between atoms: C_35  and  O_37
REMARK   21  A    between atoms: C_38  and  O_40
REMARK   22  A    between atoms: C_42  and  N_44
REMARK   23  A    between atoms: C_49  and  O_50
REMARK   24  A    between atoms: O_50  and  C_51
REMARK   25  A    between atoms: N_53  and  C_54
REMARK   26  A    between atoms: C_54  and  C_55
REMARK   27  A    between atoms: C_55  and  C_56
REMARK   28  A    between atoms: C_56  and  N_57
REMARK   29  A    between atoms: N_60  and  C_61
REMARK   30  A    between atoms: C_61  and  C_62
REMARK   31  A    between atoms: C_62  and  C_63
REMARK   32  A    between atoms: C_63  and  N_64
REMARK   33  A    between atoms: C_65  and  C_67
REMARK   34  A    between atoms: C_69  and  O_70
REMARK   35  A    between atoms: O_70  and  C_71
REMARK   36  A    between atoms: C_74  and  C_76
REMARK   37  A    between atoms: C_76  and  O_77
REMARK   38  A    between atoms: C_78  and  O_80
REMARK   39  A    between atoms: C_81  and  O_83
REMARK   40  A    between atoms: C_84  and  O_86
REMARK   41  A    between atoms: C_88  and  N_90
REMARK                            x       y       z     vdW  Elec       q    Type
REMARK                         _______ _______ _______ _____ _____    ______ ____
ROOT
ATOM      1  C   UNL     1       7.447  -1.133  26.783  0.00  0.00    +0.127 C 
ENDROOT
BRANCH   1   2
ATOM      2  N   UNL     1       8.631  -1.216  25.902  0.00  0.00    -0.322 NA
ATOM      3  H   UNL     1       9.249  -1.960  26.231  0.00  0.00    +0.119 HD
ATOM      4  H   UNL     1       8.320  -1.512  24.976  0.00  0.00    +0.119 HD
ENDBRANCH   1   2
BRANCH   1   5
ATOM      5  C   UNL     1       6.168  -0.913  25.959  0.00  0.00    +0.255 C 
BRANCH   5   6
ATOM      6  O   UNL     1       5.200  -1.924  26.286  0.00  0.00    -0.449 OA
BRANCH   6   7
ATOM      7  C   UNL     1       4.175  -1.543  27.080  0.00  0.00    +0.400 C 
ATOM      8  N   UNL     1       3.026  -1.546  26.353  0.00  0.00    -0.281 N 
ATOM      9  H   UNL     1       3.097  -1.856  25.394  0.00  0.00    +0.152 HD
ATOM     10  O   UNL     1       4.258  -1.243  28.261  0.00  0.00    -0.226 OA
BRANCH   8  11
ATOM     11  C   UNL     1       1.799  -0.988  26.861  0.00  0.00    +0.109 C 
BRANCH  11  12
ATOM     12  C   UNL     1       0.684  -2.022  26.998  0.00  0.00    +0.034 C 
BRANCH  12  13
ATOM     13  C   UNL     1       1.012  -3.250  26.136  0.00  0.00    +0.086 C 
BRANCH  13  14
ATOM     14  N   UNL     1       2.030  -4.148  26.708  0.00  0.00    -0.300 NA
ATOM     15  C   UNL     1       1.909  -5.504  26.114  0.00  0.00    +0.100 C 
ATOM     16  C   UNL     1       0.698  -6.337  26.622  0.00  0.00    +0.100 C 
ATOM     17  N   UNL     1       0.568  -6.428  28.099  0.00  0.00    -0.300 NA
ATOM     18  C   UNL     1       0.683  -5.064  28.656  0.00  0.00    +0.100 C 
ATOM     19  C   UNL     1       1.928  -4.282  28.177  0.00  0.00    +0.100 C 
BRANCH  17  20
ATOM     20  C   UNL     1       1.565  -7.366  28.655  0.00  0.00    +0.086 C 
BRANCH  20  21
ATOM     21  C   UNL     1       2.785  -6.705  29.325  0.00  0.00    +0.034 C 
BRANCH  21  22
ATOM     22  C   UNL     1       4.108  -7.358  28.937  0.00  0.00    +0.106 C 
BRANCH  22  23
ATOM     23  N   UNL     1       4.890  -6.524  28.032  0.00  0.00    -0.311 N 
ATOM     24  H   UNL     1       5.612  -5.957  28.449  0.00  0.00    +0.149 HD
ATOM     25  C   UNL     1       4.900  -6.726  26.666  0.00  0.00    +0.244 C 
ATOM     26  O   UNL     1       4.158  -7.513  26.091  0.00  0.00    -0.270 OA
BRANCH  25  27
ATOM     27  C   UNL     1       5.966  -6.014  25.896  0.00  0.00    +0.047 A 
ATOM     28  C   UNL     1       7.148  -5.698  26.574  0.00  0.00    +0.097 A 
ATOM     29  C   UNL     1       8.111  -4.934  25.917  0.00  0.00    +0.277 A 
ATOM     30  C   UNL     1       7.947  -4.493  24.600  0.00  0.00    +0.130 A 
ATOM     31  C   UNL     1       6.826  -4.906  23.885  0.00  0.00    +0.131 A 
ATOM     32  C   UNL     1       5.826  -5.647  24.544  0.00  0.00    +0.059 A 
BRANCH  29  33
ATOM     33  N   UNL     1       9.351  -4.619  26.599  0.00  0.00    +0.080 N 
ATOM     34  O   UNL     1       9.347  -3.633  27.345  0.00  0.00    +0.041 OA
ATOM     35  O   UNL     1      10.308  -5.383  26.410  0.00  0.00    -0.576 OA
ENDBRANCH  29  33
BRANCH  31  36
ATOM     36  O   UNL     1       6.615  -4.679  22.547  0.00  0.00    -0.461 OA
BRANCH  36  37
ATOM     37  C   UNL     1       7.097  -3.440  21.976  0.00  0.00    +0.339 C 
ATOM     38  C   UNL     1       6.154  -2.289  22.416  0.00  0.00    +0.214 C 
ATOM     39  C   UNL     1       6.804  -0.911  22.205  0.00  0.00    +0.180 C 
ATOM     40  C   UNL     1       8.225  -0.864  22.762  0.00  0.00    +0.177 C 
ATOM     41  C   UNL     1       9.024  -1.992  22.099  0.00  0.00    +0.179 C 
ATOM     42  O   UNL     1       8.445  -3.258  22.403  0.00  0.00    -0.331 OA
BRANCH  40  43
ATOM     43  O   UNL     1       8.751   0.440  22.485  0.00  0.00    -0.386 OA
ATOM     44  H   UNL     1       9.633   0.485  22.919  0.00  0.00    +0.210 HD
ENDBRANCH  40  43
BRANCH  38  45
ATOM     45  O   UNL     1       4.930  -2.382  21.655  0.00  0.00    -0.383 OA
ATOM     46  H   UNL     1       4.345  -3.027  22.092  0.00  0.00    +0.210 HD
ENDBRANCH  38  45
BRANCH  39  47
ATOM     47  O   UNL     1       6.014   0.118  22.817  0.00  0.00    -0.386 OA
ATOM     48  H   UNL     1       5.150  -0.303  23.011  0.00  0.00    +0.210 HD
ENDBRANCH  39  47
BRANCH  41  49
ATOM     49  C   UNL     1      10.468  -2.051  22.606  0.00  0.00    +0.190 C 
BRANCH  49  50
ATOM     50  O   UNL     1      10.557  -2.706  23.866  0.00  0.00    -0.392 OA
ATOM     51  H   UNL     1      11.049  -2.099  24.451  0.00  0.00    +0.210 HD
ENDBRANCH  49  50
ENDBRANCH  41  49
ENDBRANCH  36  37
ENDBRANCH  31  36
ENDBRANCH  25  27
ENDBRANCH  22  23
ENDBRANCH  21  22
ENDBRANCH  20  21
ENDBRANCH  17  20
ENDBRANCH  13  14
ENDBRANCH  12  13
ENDBRANCH  11  12
ENDBRANCH   8  11
ENDBRANCH   6   7
ENDBRANCH   5   6
ENDBRANCH   1   5
BRANCH   1  52
ATOM     52  C   UNL     1       7.612  -0.023  27.850  0.00  0.00    +0.255 C 
BRANCH  52  53
ATOM     53  O   UNL     1       7.119   1.248  27.388  0.00  0.00    -0.449 OA
BRANCH  53  54
ATOM     54  C   UNL     1       6.058   1.716  28.092  0.00  0.00    +0.400 C 
ATOM     55  N   UNL     1       6.160   1.325  29.385  0.00  0.00    -0.281 N 
ATOM     56  H   UNL     1       6.963   0.753  29.608  0.00  0.00    +0.152 HD
ATOM     57  O   UNL     1       5.127   2.355  27.624  0.00  0.00    -0.226 OA
BRANCH  55  58
ATOM     58  C   UNL     1       5.006   1.293  30.248  0.00  0.00    +0.109 C 
BRANCH  58  59
ATOM     59  C   UNL     1       3.776   1.869  29.545  0.00  0.00    +0.034 C 
BRANCH  59  60
ATOM     60  C   UNL     1       2.571   2.031  30.485  0.00  0.00    +0.086 C 
BRANCH  60  61
ATOM     61  N   UNL     1       1.279   2.148  29.783  0.00  0.00    -0.300 NA
ATOM     62  C   UNL     1       1.390   1.646  28.391  0.00  0.00    +0.100 C 
ATOM     63  C   UNL     1       2.167   2.575  27.423  0.00  0.00    +0.100 C 
ATOM     64  N   UNL     1       1.738   3.991  27.443  0.00  0.00    -0.300 NA
ATOM     65  C   UNL     1       1.664   4.453  28.845  0.00  0.00    +0.100 C 
ATOM     66  C   UNL     1       0.793   3.544  29.735  0.00  0.00    +0.100 C 
BRANCH  64  67
ATOM     67  C   UNL     1       0.462   4.163  26.726  0.00  0.00    +0.086 C 
BRANCH  67  68
ATOM     68  C   UNL     1       0.591   3.914  25.222  0.00  0.00    +0.034 C 
BRANCH  68  69
ATOM     69  C   UNL     1       1.444   4.990  24.563  0.00  0.00    +0.106 C 
BRANCH  69  70
ATOM     70  N   UNL     1       2.760   5.044  25.154  0.00  0.00    -0.311 N 
ATOM     71  H   UNL     1       3.412   4.310  24.916  0.00  0.00    +0.149 HD
ATOM     72  C   UNL     1       3.152   6.131  25.894  0.00  0.00    +0.244 C 
ATOM     73  O   UNL     1       2.446   7.107  26.121  0.00  0.00    -0.270 OA
BRANCH  72  74
ATOM     74  C   UNL     1       4.539   6.098  26.402  0.00  0.00    +0.047 A 
ATOM     75  C   UNL     1       4.853   5.623  27.679  0.00  0.00    +0.097 A 
ATOM     76  C   UNL     1       6.190   5.631  28.091  0.00  0.00    +0.277 A 
ATOM     77  C   UNL     1       7.197   6.124  27.248  0.00  0.00    +0.130 A 
ATOM     78  C   UNL     1       6.864   6.622  25.987  0.00  0.00    +0.131 A 
ATOM     79  C   UNL     1       5.541   6.592  25.560  0.00  0.00    +0.059 A 
BRANCH  76  80
ATOM     80  N   UNL     1       6.536   5.124  29.423  0.00  0.00    +0.080 N 
ATOM     81  O   UNL     1       5.603   4.888  30.205  0.00  0.00    +0.041 OA
ATOM     82  O   UNL     1       7.734   4.955  29.687  0.00  0.00    -0.576 OA
ENDBRANCH  76  80
BRANCH  78  83
ATOM     83  O   UNL     1       7.903   7.083  25.230  0.00  0.00    -0.461 OA
BRANCH  83  84
ATOM     84  C   UNL     1       8.250   6.288  24.084  0.00  0.00    +0.339 C 
ATOM     85  C   UNL     1       9.543   5.517  24.425  0.00  0.00    +0.214 C 
ATOM     86  C   UNL     1       9.887   4.570  23.267  0.00  0.00    +0.180 C 
ATOM     87  C   UNL     1       8.691   3.679  22.914  0.00  0.00    +0.177 C 
ATOM     88  C   UNL     1       7.460   4.551  22.639  0.00  0.00    +0.179 C 
ATOM     89  O   UNL     1       7.177   5.392  23.768  0.00  0.00    -0.331 OA
BRANCH  85  90
ATOM     90  O   UNL     1      10.618   6.438  24.682  0.00  0.00    -0.383 OA
ATOM     91  H   UNL     1      11.044   6.675  23.843  0.00  0.00    +0.210 HD
ENDBRANCH  85  90
BRANCH  86  92
ATOM     92  O   UNL     1      11.016   3.753  23.597  0.00  0.00    -0.386 OA
ATOM     93  H   UNL     1      11.452   3.524  22.752  0.00  0.00    +0.210 HD
ENDBRANCH  86  92
BRANCH  87  94
ATOM     94  O   UNL     1       9.044   2.853  21.799  0.00  0.00    -0.386 OA
ATOM     95  H   UNL     1       9.711   3.309  21.255  0.00  0.00    +0.210 HD
ENDBRANCH  87  94
BRANCH  88  96
ATOM     96  C   UNL     1       6.221   3.690  22.366  0.00  0.00    +0.190 C 
BRANCH  96  97
ATOM     97  O   UNL     1       5.600   3.338  23.601  0.00  0.00    -0.392 OA
ATOM     98  H   UNL     1       4.730   3.780  23.604  0.00  0.00    +0.210 HD
ENDBRANCH  96  97
ENDBRANCH  88  96
ENDBRANCH  83  84
ENDBRANCH  78  83
ENDBRANCH  72  74
ENDBRANCH  69  70
ENDBRANCH  68  69
ENDBRANCH  67  68
ENDBRANCH  64  67
ENDBRANCH  60  61
ENDBRANCH  59  60
ENDBRANCH  58  59
ENDBRANCH  55  58
ENDBRANCH  53  54
ENDBRANCH  52  53
ENDBRANCH   1  52
TORSDOF 41
ENDMDL
MODEL 5
REMARK VINA RESULT:      -1.4      1.578      2.265
REMARK  Name = 
REMARK  41 active torsions:
REMARK  status: ('A' for Active; 'I' for Inactive)
REMARK    1  A    between atoms: N_1  and  C_2
REMARK    2  A    between atoms: C_2  and  C_3
REMARK    3  A    between atoms: C_2  and  C_49
REMARK    4  A    between atoms: C_3  and  O_4
REMARK    5  A    between atoms: O_4  and  C_5
REMARK    6  A    between atoms: N_7  and  C_8
REMARK    7  A    between atoms: C_8  and  C_9
REMARK    8  A    between atoms: C_9  and  C_10
REMARK    9  A    between atoms: C_10  and  N_11
REMARK   10  A    between atoms: N_14  and  C_15
REMARK   11  A    between atoms: C_15  and  C_16
REMARK   12  A    between atoms: C_16  and  C_17
REMARK   13  A    between atoms: C_17  and  N_18
REMARK   14  A    between atoms: C_19  and  C_21
REMARK   15  A    between atoms: C_23  and  O_24
REMARK   16  A    between atoms: O_24  and  C_25
REMARK   17  A    between atoms: C_28  and  C_30
REMARK   18  A    between atoms: C_30  and  O_31
REMARK   19  A    between atoms: C_32  and  O_34
REMARK   20  A    between atoms: C_35  and  O_37
REMARK   21  A    between atoms: C_38  and  O_40
REMARK   22  A    between atoms: C_42  and  N_44
REMARK   23  A    between atoms: C_49  and  O_50
REMARK   24  A    between atoms: O_50  and  C_51
REMARK   25  A    between atoms: N_53  and  C_54
REMARK   26  A    between atoms: C_54  and  C_55
REMARK   27  A    between atoms: C_55  and  C_56
REMARK   28  A    between atoms: C_56  and  N_57
REMARK   29  A    between atoms: N_60  and  C_61
REMARK   30  A    between atoms: C_61  and  C_62
REMARK   31  A    between atoms: C_62  and  C_63
REMARK   32  A    between atoms: C_63  and  N_64
REMARK   33  A    between atoms: C_65  and  C_67
REMARK   34  A    between atoms: C_69  and  O_70
REMARK   35  A    between atoms: O_70  and  C_71
REMARK   36  A    between atoms: C_74  and  C_76
REMARK   37  A    between atoms: C_76  and  O_77
REMARK   38  A    between atoms: C_78  and  O_80
REMARK   39  A    between atoms: C_81  and  O_83
REMARK   40  A    between atoms: C_84  and  O_86
REMARK   41  A    between atoms: C_88  and  N_90
REMARK                            x       y       z     vdW  Elec       q    Type
REMARK                         _______ _______ _______ _____ _____    ______ ____
ROOT
ATOM      1  C   UNL     1       7.902  -2.393  22.660  0.00  0.00    +0.127 C 
ENDROOT
BRANCH   1   2
ATOM      2  N   UNL     1       7.089  -2.663  23.865  0.00  0.00    -0.322 NA
ATOM      3  H   UNL     1       6.583  -1.817  24.130  0.00  0.00    +0.119 HD
ATOM      4  H   UNL     1       6.369  -3.343  23.619  0.00  0.00    +0.119 HD
ENDBRANCH   1   2
BRANCH   1   5
ATOM      5  C   UNL     1       8.032  -0.881  22.417  0.00  0.00    +0.255 C 
BRANCH   5   6
ATOM      6  O   UNL     1       7.725  -0.167  23.627  0.00  0.00    -0.449 OA
BRANCH   6   7
ATOM      7  C   UNL     1       6.465   0.308  23.743  0.00  0.00    +0.400 C 
ATOM      8  N   UNL     1       6.373   1.049  24.879  0.00  0.00    -0.281 N 
ATOM      9  H   UNL     1       7.222   1.163  25.416  0.00  0.00    +0.152 HD
ATOM     10  O   UNL     1       5.551   0.109  22.958  0.00  0.00    -0.226 OA
BRANCH   8  11
ATOM     11  C   UNL     1       5.108   1.514  25.388  0.00  0.00    +0.109 C 
BRANCH  11  12
ATOM     12  C   UNL     1       4.657   0.768  26.641  0.00  0.00    +0.034 C 
BRANCH  12  13
ATOM     13  C   UNL     1       4.905   1.643  27.878  0.00  0.00    +0.086 C 
BRANCH  13  14
ATOM     14  N   UNL     1       4.599   3.072  27.692  0.00  0.00    -0.300 NA
ATOM     15  C   UNL     1       4.757   3.801  28.977  0.00  0.00    +0.100 C 
ATOM     16  C   UNL     1       3.623   3.557  30.013  0.00  0.00    +0.100 C 
ATOM     17  N   UNL     1       2.243   3.751  29.497  0.00  0.00    -0.300 NA
ATOM     18  C   UNL     1       2.118   3.006  28.226  0.00  0.00    +0.100 C 
ATOM     19  C   UNL     1       3.227   3.314  27.195  0.00  0.00    +0.100 C 
BRANCH  17  20
ATOM     20  C   UNL     1       1.933   5.189  29.358  0.00  0.00    +0.086 C 
BRANCH  20  21
ATOM     21  C   UNL     1       0.975   5.544  28.204  0.00  0.00    +0.034 C 
BRANCH  21  22
ATOM     22  C   UNL     1       1.430   6.759  27.401  0.00  0.00    +0.106 C 
BRANCH  22  23
ATOM     23  N   UNL     1       2.869   6.974  27.496  0.00  0.00    -0.311 N 
ATOM     24  H   UNL     1       3.294   6.814  28.397  0.00  0.00    +0.149 HD
ATOM     25  C   UNL     1       3.678   7.056  26.379  0.00  0.00    +0.244 C 
ATOM     26  O   UNL     1       3.249   7.100  25.232  0.00  0.00    -0.270 OA
BRANCH  25  27
ATOM     27  C   UNL     1       5.152   6.968  26.617  0.00  0.00    +0.047 A 
ATOM     28  C   UNL     1       5.582   6.772  27.934  0.00  0.00    +0.097 A 
ATOM     29  C   UNL     1       6.949   6.802  28.202  0.00  0.00    +0.277 A 
ATOM     30  C   UNL     1       7.904   6.997  27.199  0.00  0.00    +0.130 A 
ATOM     31  C   UNL     1       7.486   7.073  25.873  0.00  0.00    +0.131 A 
ATOM     32  C   UNL     1       6.107   7.082  25.588  0.00  0.00    +0.059 A 
BRANCH  29  33
ATOM     33  N   UNL     1       7.409   6.577  29.558  0.00  0.00    +0.080 N 
ATOM     34  O   UNL     1       8.626   6.669  29.760  0.00  0.00    +0.041 OA
ATOM     35  O   UNL     1       6.546   6.345  30.415  0.00  0.00    -0.576 OA
ENDBRANCH  29  33
BRANCH  31  36
ATOM     36  O   UNL     1       8.319   7.108  24.783  0.00  0.00    -0.461 OA
BRANCH  36  37
ATOM     37  C   UNL     1       7.941   6.357  23.604  0.00  0.00    +0.339 C 
ATOM     38  C   UNL     1       8.618   4.962  23.665  0.00  0.00    +0.214 C 
ATOM     39  C   UNL     1       7.961   3.970  22.690  0.00  0.00    +0.180 C 
ATOM     40  C   UNL     1       6.438   3.983  22.809  0.00  0.00    +0.177 C 
ATOM     41  C   UNL     1       5.965   5.423  22.582  0.00  0.00    +0.179 C 
ATOM     42  O   UNL     1       6.517   6.291  23.567  0.00  0.00    -0.331 OA
BRANCH  40  43
ATOM     43  O   UNL     1       5.925   3.060  21.842  0.00  0.00    -0.386 OA
ATOM     44  H   UNL     1       5.385   2.404  22.338  0.00  0.00    +0.210 HD
ENDBRANCH  40  43
BRANCH  38  45
ATOM     45  O   UNL     1      10.018   5.116  23.347  0.00  0.00    -0.383 OA
ATOM     46  H   UNL     1      10.542   4.760  24.088  0.00  0.00    +0.210 HD
ENDBRANCH  38  45
BRANCH  39  47
ATOM     47  O   UNL     1       8.449   2.641  22.918  0.00  0.00    -0.386 OA
ATOM     48  H   UNL     1       9.106   2.730  23.640  0.00  0.00    +0.210 HD
ENDBRANCH  39  47
BRANCH  41  49
ATOM     49  C   UNL     1       4.444   5.556  22.703  0.00  0.00    +0.190 C 
BRANCH  49  50
ATOM     50  O   UNL     1       3.936   4.809  23.801  0.00  0.00    -0.392 OA
ATOM     51  H   UNL     1       3.281   4.189  23.426  0.00  0.00    +0.210 HD
ENDBRANCH  49  50
ENDBRANCH  41  49
ENDBRANCH  36  37
ENDBRANCH  31  36
ENDBRANCH  25  27
ENDBRANCH  22  23
ENDBRANCH  21  22
ENDBRANCH  20  21
ENDBRANCH  17  20
ENDBRANCH  13  14
ENDBRANCH  12  13
ENDBRANCH  11  12
ENDBRANCH   8  11
ENDBRANCH   6   7
ENDBRANCH   5   6
ENDBRANCH   1   5
BRANCH   1  52
ATOM     52  C   UNL     1       7.319  -3.103  21.413  0.00  0.00    +0.255 C 
BRANCH  52  53
ATOM     53  O   UNL     1       5.943  -3.477  21.600  0.00  0.00    -0.449 OA
BRANCH  53  54
ATOM     54  C   UNL     1       5.766  -4.783  21.922  0.00  0.00    +0.400 C 
ATOM     55  N   UNL     1       4.844  -4.890  22.909  0.00  0.00    -0.281 N 
ATOM     56  H   UNL     1       4.465  -4.017  23.250  0.00  0.00    +0.152 HD
ATOM     57  O   UNL     1       6.379  -5.720  21.431  0.00  0.00    -0.226 OA
BRANCH  55  58
ATOM     58  C   UNL     1       4.770  -6.066  23.738  0.00  0.00    +0.109 C 
BRANCH  58  59
ATOM     59  C   UNL     1       3.738  -7.057  23.197  0.00  0.00    +0.034 C 
BRANCH  59  60
ATOM     60  C   UNL     1       2.437  -6.377  22.744  0.00  0.00    +0.086 C 
BRANCH  60  61
ATOM     61  N   UNL     1       1.215  -7.086  23.166  0.00  0.00    -0.300 NA
ATOM     62  C   UNL     1       0.553  -6.371  24.285  0.00  0.00    +0.100 C 
ATOM     63  C   UNL     1       1.272  -6.494  25.653  0.00  0.00    +0.100 C 
ATOM     64  N   UNL     1       1.632  -7.875  26.044  0.00  0.00    -0.300 NA
ATOM     65  C   UNL     1       2.307  -8.538  24.909  0.00  0.00    +0.100 C 
ATOM     66  C   UNL     1       1.494  -8.471  23.600  0.00  0.00    +0.100 C 
BRANCH  64  67
ATOM     67  C   UNL     1       0.443  -8.616  26.503  0.00  0.00    +0.086 C 
BRANCH  67  68
ATOM     68  C   UNL     1       0.780  -9.696  27.533  0.00  0.00    +0.034 C 
BRANCH  68  69
ATOM     69  C   UNL     1       1.112  -9.074  28.884  0.00  0.00    +0.106 C 
BRANCH  69  70
ATOM     70  N   UNL     1       2.151  -8.079  28.757  0.00  0.00    -0.311 N 
ATOM     71  H   UNL     1       3.059  -8.387  28.440  0.00  0.00    +0.149 HD
ATOM     72  C   UNL     1       1.868  -6.747  28.920  0.00  0.00    +0.244 C 
ATOM     73  O   UNL     1       0.759  -6.301  29.189  0.00  0.00    -0.270 OA
BRANCH  72  74
ATOM     74  C   UNL     1       2.999  -5.818  28.713  0.00  0.00    +0.047 A 
ATOM     75  C   UNL     1       2.952  -4.485  29.128  0.00  0.00    +0.097 A 
ATOM     76  C   UNL     1       4.062  -3.665  28.889  0.00  0.00    +0.277 A 
ATOM     77  C   UNL     1       5.194  -4.166  28.229  0.00  0.00    +0.130 A 
ATOM     78  C   UNL     1       5.213  -5.493  27.795  0.00  0.00    +0.131 A 
ATOM     79  C   UNL     1       4.125  -6.320  28.053  0.00  0.00    +0.059 A 
BRANCH  76  80
ATOM     80  N   UNL     1       4.033  -2.267  29.330  0.00  0.00    +0.080 N 
ATOM     81  O   UNL     1       3.626  -1.420  28.519  0.00  0.00    +0.041 OA
ATOM     82  O   UNL     1       4.409  -2.013  30.481  0.00  0.00    -0.576 OA
ENDBRANCH  76  80
BRANCH  78  83
ATOM     83  O   UNL     1       6.352  -5.900  27.161  0.00  0.00    -0.461 OA
BRANCH  83  84
ATOM     84  C   UNL     1       7.429  -4.948  27.127  0.00  0.00    +0.339 C 
ATOM     85  C   UNL     1       8.240  -5.206  25.839  0.00  0.00    +0.214 C 
ATOM     86  C   UNL     1       9.335  -4.138  25.708  0.00  0.00    +0.180 C 
ATOM     87  C   UNL     1       8.741  -2.729  25.814  0.00  0.00    +0.177 C 
ATOM     88  C   UNL     1       7.926  -2.607  27.108  0.00  0.00    +0.179 C 
ATOM     89  O   UNL     1       6.905  -3.615  27.155  0.00  0.00    -0.331 OA
BRANCH  85  90
ATOM     90  O   UNL     1       8.802  -6.530  25.861  0.00  0.00    -0.383 OA
ATOM     91  H   UNL     1       8.154  -7.146  26.238  0.00  0.00    +0.210 HD
ENDBRANCH  85  90
BRANCH  86  92
ATOM     92  O   UNL     1      10.033  -4.275  24.465  0.00  0.00    -0.386 OA
ATOM     93  H   UNL     1      10.904  -4.664  24.676  0.00  0.00    +0.210 HD
ENDBRANCH  86  92
BRANCH  87  94
ATOM     94  O   UNL     1       9.805  -1.773  25.738  0.00  0.00    -0.386 OA
ATOM     95  H   UNL     1      10.465  -2.074  25.089  0.00  0.00    +0.210 HD
ENDBRANCH  87  94
BRANCH  88  96
ATOM     96  C   UNL     1       7.245  -1.236  27.207  0.00  0.00    +0.190 C 
BRANCH  96  97
ATOM     97  O   UNL     1       8.036  -0.258  26.534  0.00  0.00    -0.392 OA
ATOM     98  H   UNL     1       7.770   0.606  26.901  0.00  0.00    +0.210 HD
ENDBRANCH  96  97
ENDBRANCH  88  96
ENDBRANCH  83  84
ENDBRANCH  78  83
ENDBRANCH  72  74
ENDBRANCH  69  70
ENDBRANCH  68  69
ENDBRANCH  67  68
ENDBRANCH  64  67
ENDBRANCH  60  61
ENDBRANCH  59  60
ENDBRANCH  58  59
ENDBRANCH  55  58
ENDBRANCH  53  54
ENDBRANCH  52  53
ENDBRANCH   1  52
TORSDOF 41
ENDMDL
MODEL 6
REMARK VINA RESULT:      -0.5      2.658      5.618
REMARK  Name = 
REMARK  41 active torsions:
REMARK  status: ('A' for Active; 'I' for Inactive)
REMARK    1  A    between atoms: N_1  and  C_2
REMARK    2  A    between atoms: C_2  and  C_3
REMARK    3  A    between atoms: C_2  and  C_49
REMARK    4  A    between atoms: C_3  and  O_4
REMARK    5  A    between atoms: O_4  and  C_5
REMARK    6  A    between atoms: N_7  and  C_8
REMARK    7  A    between atoms: C_8  and  C_9
REMARK    8  A    between atoms: C_9  and  C_10
REMARK    9  A    between atoms: C_10  and  N_11
REMARK   10  A    between atoms: N_14  and  C_15
REMARK   11  A    between atoms: C_15  and  C_16
REMARK   12  A    between atoms: C_16  and  C_17
REMARK   13  A    between atoms: C_17  and  N_18
REMARK   14  A    between atoms: C_19  and  C_21
REMARK   15  A    between atoms: C_23  and  O_24
REMARK   16  A    between atoms: O_24  and  C_25
REMARK   17  A    between atoms: C_28  and  C_30
REMARK   18  A    between atoms: C_30  and  O_31
REMARK   19  A    between atoms: C_32  and  O_34
REMARK   20  A    between atoms: C_35  and  O_37
REMARK   21  A    between atoms: C_38  and  O_40
REMARK   22  A    between atoms: C_42  and  N_44
REMARK   23  A    between atoms: C_49  and  O_50
REMARK   24  A    between atoms: O_50  and  C_51
REMARK   25  A    between atoms: N_53  and  C_54
REMARK   26  A    between atoms: C_54  and  C_55
REMARK   27  A    between atoms: C_55  and  C_56
REMARK   28  A    between atoms: C_56  and  N_57
REMARK   29  A    between atoms: N_60  and  C_61
REMARK   30  A    between atoms: C_61  and  C_62
REMARK   31  A    between atoms: C_62  and  C_63
REMARK   32  A    between atoms: C_63  and  N_64
REMARK   33  A    between atoms: C_65  and  C_67
REMARK   34  A    between atoms: C_69  and  O_70
REMARK   35  A    between atoms: O_70  and  C_71
REMARK   36  A    between atoms: C_74  and  C_76
REMARK   37  A    between atoms: C_76  and  O_77
REMARK   38  A    between atoms: C_78  and  O_80
REMARK   39  A    between atoms: C_81  and  O_83
REMARK   40  A    between atoms: C_84  and  O_86
REMARK   41  A    between atoms: C_88  and  N_90
REMARK                            x       y       z     vdW  Elec       q    Type
REMARK                         _______ _______ _______ _____ _____    ______ ____
ROOT
ATOM      1  C   UNL     1      10.713  -2.761  23.535  0.00  0.00    +0.127 C 
ENDROOT
BRANCH   1   2
ATOM      2  N   UNL     1      12.143  -3.084  23.345  0.00  0.00    -0.322 NA
ATOM      3  H   UNL     1      12.250  -4.091  23.214  0.00  0.00    +0.119 HD
ATOM      4  H   UNL     1      12.452  -2.663  22.468  0.00  0.00    +0.119 HD
ENDBRANCH   1   2
BRANCH   1   5
ATOM      5  C   UNL     1      10.481  -1.244  23.452  0.00  0.00    +0.255 C 
BRANCH   5   6
ATOM      6  O   UNL     1       9.743  -0.930  22.259  0.00  0.00    -0.449 OA
BRANCH   6   7
ATOM      7  C   UNL     1       8.789   0.019  22.372  0.00  0.00    +0.400 C 
ATOM      8  N   UNL     1       8.646   0.651  21.177  0.00  0.00    -0.281 N 
ATOM      9  H   UNL     1       9.212   0.308  20.413  0.00  0.00    +0.152 HD
ATOM     10  O   UNL     1       8.151   0.276  23.382  0.00  0.00    -0.226 OA
BRANCH   8  11
ATOM     11  C   UNL     1       7.857   1.847  21.033  0.00  0.00    +0.109 C 
BRANCH  11  12
ATOM     12  C   UNL     1       7.588   2.549  22.362  0.00  0.00    +0.034 C 
BRANCH  12  13
ATOM     13  C   UNL     1       7.275   4.031  22.107  0.00  0.00    +0.086 C 
BRANCH  13  14
ATOM     14  N   UNL     1       8.274   4.971  22.645  0.00  0.00    -0.300 NA
ATOM     15  C   UNL     1       8.702   4.543  24.001  0.00  0.00    +0.100 C 
ATOM     16  C   UNL     1       7.660   4.801  25.128  0.00  0.00    +0.100 C 
ATOM     17  N   UNL     1       7.123   6.184  25.188  0.00  0.00    -0.300 NA
ATOM     18  C   UNL     1       6.699   6.573  23.826  0.00  0.00    +0.100 C 
ATOM     19  C   UNL     1       7.776   6.360  22.738  0.00  0.00    +0.100 C 
BRANCH  17  20
ATOM     20  C   UNL     1       8.118   7.108  25.770  0.00  0.00    +0.086 C 
BRANCH  20  21
ATOM     21  C   UNL     1       8.937   6.536  26.942  0.00  0.00    +0.034 C 
BRANCH  21  22
ATOM     22  C   UNL     1       8.274   6.754  28.299  0.00  0.00    +0.106 C 
BRANCH  22  23
ATOM     23  N   UNL     1       6.839   6.988  28.180  0.00  0.00    -0.311 N 
ATOM     24  H   UNL     1       6.537   7.568  27.411  0.00  0.00    +0.149 HD
ATOM     25  C   UNL     1       5.908   6.213  28.842  0.00  0.00    +0.244 C 
ATOM     26  O   UNL     1       6.200   5.372  29.684  0.00  0.00    -0.270 OA
BRANCH  25  27
ATOM     27  C   UNL     1       4.487   6.356  28.398  0.00  0.00    +0.047 A 
ATOM     28  C   UNL     1       3.490   6.187  29.364  0.00  0.00    +0.097 A 
ATOM     29  C   UNL     1       2.157   6.199  28.959  0.00  0.00    +0.277 A 
ATOM     30  C   UNL     1       1.782   6.398  27.626  0.00  0.00    +0.130 A 
ATOM     31  C   UNL     1       2.765   6.685  26.683  0.00  0.00    +0.131 A 
ATOM     32  C   UNL     1       4.119   6.640  27.068  0.00  0.00    +0.059 A 
BRANCH  29  33
ATOM     33  N   UNL     1       1.113   6.049  29.953  0.00  0.00    +0.080 N 
ATOM     34  O   UNL     1       0.934   4.914  30.412  0.00  0.00    +0.041 OA
ATOM     35  O   UNL     1       0.506   7.073  30.292  0.00  0.00    -0.576 OA
ENDBRANCH  29  33
BRANCH  31  36
ATOM     36  O   UNL     1       2.529   7.052  25.381  0.00  0.00    -0.461 OA
BRANCH  36  37
ATOM     37  C   UNL     1       1.880   6.099  24.506  0.00  0.00    +0.339 C 
ATOM     38  C   UNL     1       2.835   5.779  23.325  0.00  0.00    +0.214 C 
ATOM     39  C   UNL     1       2.412   4.498  22.586  0.00  0.00    +0.180 C 
ATOM     40  C   UNL     1       2.135   3.350  23.554  0.00  0.00    +0.177 C 
ATOM     41  C   UNL     1       1.070   3.826  24.549  0.00  0.00    +0.179 C 
ATOM     42  O   UNL     1       1.541   4.952  25.283  0.00  0.00    -0.331 OA
BRANCH  40  43
ATOM     43  O   UNL     1       1.717   2.223  22.774  0.00  0.00    -0.386 OA
ATOM     44  H   UNL     1       1.566   1.484  23.407  0.00  0.00    +0.210 HD
ENDBRANCH  40  43
BRANCH  38  45
ATOM     45  O   UNL     1       2.832   6.900  22.415  0.00  0.00    -0.383 OA
ATOM     46  H   UNL     1       3.118   7.693  22.904  0.00  0.00    +0.210 HD
ENDBRANCH  38  45
BRANCH  39  47
ATOM     47  O   UNL     1       3.421   4.101  21.647  0.00  0.00    -0.386 OA
ATOM     48  H   UNL     1       4.129   4.776  21.731  0.00  0.00    +0.210 HD
ENDBRANCH  39  47
BRANCH  41  49
ATOM     49  C   UNL     1       0.731   2.753  25.588  0.00  0.00    +0.190 C 
BRANCH  49  50
ATOM     50  O   UNL     1       0.524   1.482  24.984  0.00  0.00    -0.392 OA
ATOM     51  H   UNL     1       1.034   1.493  24.151  0.00  0.00    +0.210 HD
ENDBRANCH  49  50
ENDBRANCH  41  49
ENDBRANCH  36  37
ENDBRANCH  31  36
ENDBRANCH  25  27
ENDBRANCH  22  23
ENDBRANCH  21  22
ENDBRANCH  20  21
ENDBRANCH  17  20
ENDBRANCH  13  14
ENDBRANCH  12  13
ENDBRANCH  11  12
ENDBRANCH   8  11
ENDBRANCH   6   7
ENDBRANCH   5   6
ENDBRANCH   1   5
BRANCH   1  52
ATOM     52  C   UNL     1      10.178  -3.327  24.874  0.00  0.00    +0.255 C 
BRANCH  52  53
ATOM     53  O   UNL     1       8.906  -3.980  24.714  0.00  0.00    -0.449 OA
BRANCH  53  54
ATOM     54  C   UNL     1       8.123  -3.938  25.822  0.00  0.00    +0.400 C 
ATOM     55  N   UNL     1       7.829  -5.199  26.221  0.00  0.00    -0.281 N 
ATOM     56  H   UNL     1       8.205  -5.940  25.645  0.00  0.00    +0.152 HD
ATOM     57  O   UNL     1       7.707  -2.920  26.353  0.00  0.00    -0.226 OA
BRANCH  55  58
ATOM     58  C   UNL     1       6.698  -5.468  27.072  0.00  0.00    +0.109 C 
BRANCH  58  59
ATOM     59  C   UNL     1       5.639  -6.292  26.336  0.00  0.00    +0.034 C 
BRANCH  59  60
ATOM     60  C   UNL     1       4.699  -7.044  27.291  0.00  0.00    +0.086 C 
BRANCH  60  61
ATOM     61  N   UNL     1       3.528  -6.256  27.718  0.00  0.00    -0.300 NA
ATOM     62  C   UNL     1       3.472  -6.157  29.197  0.00  0.00    +0.100 C 
ATOM     63  C   UNL     1       3.042  -7.460  29.921  0.00  0.00    +0.100 C 
ATOM     64  N   UNL     1       1.817  -8.093  29.384  0.00  0.00    -0.300 NA
ATOM     65  C   UNL     1       1.928  -8.189  27.914  0.00  0.00    +0.100 C 
ATOM     66  C   UNL     1       2.256  -6.840  27.243  0.00  0.00    +0.100 C 
BRANCH  64  67
ATOM     67  C   UNL     1       0.615  -7.354  29.811  0.00  0.00    +0.086 C 
BRANCH  67  68
ATOM     68  C   UNL     1       0.948  -6.019  30.479  0.00  0.00    +0.034 C 
BRANCH  68  69
ATOM     69  C   UNL     1       0.475  -4.850  29.624  0.00  0.00    +0.106 C 
BRANCH  69  70
ATOM     70  N   UNL     1       1.445  -4.525  28.606  0.00  0.00    -0.311 N 
ATOM     71  H   UNL     1       2.141  -5.222  28.381  0.00  0.00    +0.149 HD
ATOM     72  C   UNL     1       1.332  -3.370  27.873  0.00  0.00    +0.244 C 
ATOM     73  O   UNL     1       0.443  -2.541  28.020  0.00  0.00    -0.270 OA
BRANCH  72  74
ATOM     74  C   UNL     1       2.353  -3.171  26.823  0.00  0.00    +0.047 A 
ATOM     75  C   UNL     1       2.436  -3.999  25.700  0.00  0.00    +0.097 A 
ATOM     76  C   UNL     1       3.435  -3.750  24.752  0.00  0.00    +0.277 A 
ATOM     77  C   UNL     1       4.349  -2.702  24.933  0.00  0.00    +0.130 A 
ATOM     78  C   UNL     1       4.270  -1.902  26.075  0.00  0.00    +0.131 A 
ATOM     79  C   UNL     1       3.264  -2.127  27.007  0.00  0.00    +0.059 A 
BRANCH  76  80
ATOM     80  N   UNL     1       3.527  -4.602  23.562  0.00  0.00    +0.080 N 
ATOM     81  O   UNL     1       4.524  -4.464  22.836  0.00  0.00    +0.041 OA
ATOM     82  O   UNL     1       2.613  -5.410  23.353  0.00  0.00    -0.576 OA
ENDBRANCH  76  80
BRANCH  78  83
ATOM     83  O   UNL     1       5.199  -0.905  26.174  0.00  0.00    -0.461 OA
BRANCH  83  84
ATOM     84  C   UNL     1       5.230  -0.195  27.423  0.00  0.00    +0.339 C 
ATOM     85  C   UNL     1       6.519   0.654  27.445  0.00  0.00    +0.214 C 
ATOM     86  C   UNL     1       6.536   1.515  28.716  0.00  0.00    +0.180 C 
ATOM     87  C   UNL     1       5.241   2.323  28.848  0.00  0.00    +0.177 C 
ATOM     88  C   UNL     1       4.034   1.381  28.770  0.00  0.00    +0.179 C 
ATOM     89  O   UNL     1       4.063   0.627  27.549  0.00  0.00    -0.331 OA
BRANCH  85  90
ATOM     90  O   UNL     1       7.677  -0.197  27.375  0.00  0.00    -0.383 OA
ATOM     91  H   UNL     1       7.443  -1.018  26.913  0.00  0.00    +0.210 HD
ENDBRANCH  85  90
BRANCH  86  92
ATOM     92  O   UNL     1       7.660   2.402  28.714  0.00  0.00    -0.386 OA
ATOM     93  H   UNL     1       8.400   1.917  29.130  0.00  0.00    +0.210 HD
ENDBRANCH  86  92
BRANCH  87  94
ATOM     94  O   UNL     1       5.284   3.067  30.071  0.00  0.00    -0.386 OA
ATOM     95  H   UNL     1       4.418   3.485  30.226  0.00  0.00    +0.210 HD
ENDBRANCH  87  94
BRANCH  88  96
ATOM     96  C   UNL     1       2.716   2.164  28.812  0.00  0.00    +0.190 C 
BRANCH  96  97
ATOM     97  O   UNL     1       2.267   2.275  30.162  0.00  0.00    -0.392 OA
ATOM     98  H   UNL     1       1.804   1.441  30.364  0.00  0.00    +0.210 HD
ENDBRANCH  96  97
ENDBRANCH  88  96
ENDBRANCH  83  84
ENDBRANCH  78  83
ENDBRANCH  72  74
ENDBRANCH  69  70
ENDBRANCH  68  69
ENDBRANCH  67  68
ENDBRANCH  64  67
ENDBRANCH  60  61
ENDBRANCH  59  60
ENDBRANCH  58  59
ENDBRANCH  55  58
ENDBRANCH  53  54
ENDBRANCH  52  53
ENDBRANCH   1  52
TORSDOF 41
ENDMDL
