MODEL 1
REMARK VINA RESULT:      -6.7      0.000      0.000
REMARK  Name = 
REMARK  9 active torsions:
REMARK  status: ('A' for Active; 'I' for Inactive)
REMARK    1  A    between atoms: C_1  and  C_2
REMARK    2  A    between atoms: C_2  and  C_3
REMARK    3  A    between atoms: C_3  and  C_5
REMARK    4  A    between atoms: N_16  and  C_17
REMARK    5  A    between atoms: C_17  and  C_18
REMARK    6  A    between atoms: C_18  and  N_19
REMARK    7  A    between atoms: N_22  and  C_23
REMARK    8  A    between atoms: C_23  and  C_24
REMARK    9  A    between atoms: C_24  and  O_25
REMARK                            x       y       z     vdW  Elec       q    Type
REMARK                         _______ _______ _______ _____ _____    ______ ____
ROOT
ATOM      1  C   UNL     1      10.055   2.146  23.308  0.00  0.00    +0.019 A 
ATOM      2  C   UNL     1       9.914   1.752  21.981  0.00  0.00    +0.012 A 
ATOM      3  C   UNL     1       9.617   0.425  21.699  0.00  0.00    +0.017 A 
ATOM      4  C   UNL     1       9.430  -0.519  22.727  0.00  0.00    +0.034 A 
ATOM      5  S   UNL     1       9.033  -2.147  22.158  0.00  0.00    -0.086 S 
ATOM      6  C   UNL     1       8.457  -2.915  23.645  0.00  0.00    +0.034 A 
ATOM      7  C   UNL     1       7.744  -4.121  23.454  0.00  0.00    +0.017 A 
ATOM      8  C   UNL     1       7.274  -4.857  24.535  0.00  0.00    +0.001 A 
ATOM      9  C   UNL     1       7.561  -4.417  25.812  0.00  0.00    +0.002 A 
ATOM     10  C   UNL     1       8.278  -3.222  25.997  0.00  0.00    +0.024 A 
ATOM     11  C   UNL     1       8.691  -2.395  24.930  0.00  0.00    +0.048 A 
ATOM     12  N   UNL     1       9.284  -1.094  25.144  0.00  0.00    -0.297 N 
ATOM     13  C   UNL     1       9.546  -0.156  24.086  0.00  0.00    +0.049 A 
ATOM     14  C   UNL     1       9.913   1.191  24.336  0.00  0.00    +0.036 A 
ENDROOT
BRANCH   1  15
ATOM     15  C   UNL     1      10.323   3.574  23.670  0.00  0.00    +0.163 C 
ATOM     16  O   UNL     1       9.428   4.240  24.188  0.00  0.00    -0.292 OA
BRANCH  15  18
ATOM     17  C   UNL     1      11.788   5.644  23.648  0.00  0.00    +0.012 C 
ATOM     18  C   UNL     1      11.696   4.155  23.363  0.00  0.00    +0.076 C 
ENDBRANCH  15  18
ENDBRANCH   1  15
BRANCH  12  19
ATOM     19  C   UNL     1       8.962  -0.473  26.464  0.00  0.00    +0.126 C 
BRANCH  19  20
ATOM     20  C   UNL     1       7.438  -0.384  26.814  0.00  0.00    +0.104 C 
BRANCH  20  21
ATOM     21  N   UNL     1       6.975   1.025  26.995  0.00  0.00    -0.298 NA
ATOM     22  C   UNL     1       5.655   1.158  27.671  0.00  0.00    +0.100 C 
ATOM     23  C   UNL     1       4.374   0.992  26.784  0.00  0.00    +0.100 C 
ATOM     24  N   UNL     1       4.423   1.475  25.377  0.00  0.00    -0.298 NA
ATOM     25  C   UNL     1       5.764   1.214  24.835  0.00  0.00    +0.100 C 
ATOM     26  C   UNL     1       6.883   1.774  25.732  0.00  0.00    +0.100 C 
BRANCH  24  27
ATOM     27  C   UNL     1       4.037   2.895  25.228  0.00  0.00    +0.112 C 
BRANCH  27  28
ATOM     28  C   UNL     1       4.085   3.331  23.748  0.00  0.00    +0.171 C 
BRANCH  28  29
ATOM     29  O   UNL     1       3.010   2.721  23.030  0.00  0.00    -0.394 OA
ATOM     30  H   UNL     1       3.096   3.056  22.114  0.00  0.00    +0.209 HD
ENDBRANCH  28  29
ENDBRANCH  27  28
ENDBRANCH  24  27
ENDBRANCH  20  21
ENDBRANCH  19  20
ENDBRANCH  12  19
TORSDOF 8
ENDMDL
MODEL 2
REMARK VINA RESULT:      -6.3      3.202      7.590
REMARK  Name = 
REMARK  9 active torsions:
REMARK  status: ('A' for Active; 'I' for Inactive)
REMARK    1  A    between atoms: C_1  and  C_2
REMARK    2  A    between atoms: C_2  and  C_3
REMARK    3  A    between atoms: C_3  and  C_5
REMARK    4  A    between atoms: N_16  and  C_17
REMARK    5  A    between atoms: C_17  and  C_18
REMARK    6  A    between atoms: C_18  and  N_19
REMARK    7  A    between atoms: N_22  and  C_23
REMARK    8  A    between atoms: C_23  and  C_24
REMARK    9  A    between atoms: C_24  and  O_25
REMARK                            x       y       z     vdW  Elec       q    Type
REMARK                         _______ _______ _______ _____ _____    ______ ____
ROOT
ATOM      1  C   UNL     1       4.438   4.223  23.440  0.00  0.00    +0.019 A 
ATOM      2  C   UNL     1       4.401   5.519  23.944  0.00  0.00    +0.012 A 
ATOM      3  C   UNL     1       5.584   6.117  24.360  0.00  0.00    +0.017 A 
ATOM      4  C   UNL     1       6.818   5.447  24.256  0.00  0.00    +0.034 A 
ATOM      5  S   UNL     1       8.208   6.391  24.816  0.00  0.00    -0.086 S 
ATOM      6  C   UNL     1       9.561   5.461  24.153  0.00  0.00    +0.034 A 
ATOM      7  C   UNL     1      10.800   6.143  24.139  0.00  0.00    +0.017 A 
ATOM      8  C   UNL     1      11.957   5.519  23.691  0.00  0.00    +0.001 A 
ATOM      9  C   UNL     1      11.891   4.194  23.306  0.00  0.00    +0.002 A 
ATOM     10  C   UNL     1      10.659   3.518  23.331  0.00  0.00    +0.024 A 
ATOM     11  C   UNL     1       9.443   4.140  23.687  0.00  0.00    +0.048 A 
ATOM     12  N   UNL     1       8.166   3.476  23.553  0.00  0.00    -0.297 N 
ATOM     13  C   UNL     1       6.902   4.140  23.733  0.00  0.00    +0.049 A 
ATOM     14  C   UNL     1       5.668   3.537  23.378  0.00  0.00    +0.036 A 
ENDROOT
BRANCH   1  15
ATOM     15  C   UNL     1       3.201   3.552  22.929  0.00  0.00    +0.163 C 
ATOM     16  O   UNL     1       2.617   2.742  23.648  0.00  0.00    -0.292 OA
BRANCH  15  18
ATOM     17  C   UNL     1       1.842   2.805  20.923  0.00  0.00    +0.012 C 
ATOM     18  C   UNL     1       2.720   3.888  21.525  0.00  0.00    +0.076 C 
ENDBRANCH  15  18
ENDBRANCH   1  15
BRANCH  12  19
ATOM     19  C   UNL     1       8.148   2.354  22.567  0.00  0.00    +0.126 C 
BRANCH  19  20
ATOM     20  C   UNL     1       7.912   0.929  23.172  0.00  0.00    +0.104 C 
BRANCH  20  21
ATOM     21  N   UNL     1       9.177   0.144  23.294  0.00  0.00    -0.298 NA
ATOM     22  C   UNL     1       9.328  -0.941  22.285  0.00  0.00    +0.100 C 
ATOM     23  C   UNL     1       8.612  -2.304  22.582  0.00  0.00    +0.100 C 
ATOM     24  N   UNL     1       8.514  -2.755  23.997  0.00  0.00    -0.298 NA
ATOM     25  C   UNL     1       8.303  -1.579  24.854  0.00  0.00    +0.100 C 
ATOM     26  C   UNL     1       9.351  -0.478  24.616  0.00  0.00    +0.100 C 
BRANCH  24  27
ATOM     27  C   UNL     1       9.676  -3.556  24.441  0.00  0.00    +0.112 C 
BRANCH  27  28
ATOM     28  C   UNL     1       9.229  -4.740  25.326  0.00  0.00    +0.171 C 
BRANCH  28  29
ATOM     29  O   UNL     1      10.279  -5.705  25.407  0.00  0.00    -0.394 OA
ATOM     30  H   UNL     1       9.884  -6.470  25.874  0.00  0.00    +0.209 HD
ENDBRANCH  28  29
ENDBRANCH  27  28
ENDBRANCH  24  27
ENDBRANCH  20  21
ENDBRANCH  19  20
ENDBRANCH  12  19
TORSDOF 8
ENDMDL
MODEL 3
REMARK VINA RESULT:      -6.3      1.993      2.853
REMARK  Name = 
REMARK  9 active torsions:
REMARK  status: ('A' for Active; 'I' for Inactive)
REMARK    1  A    between atoms: C_1  and  C_2
REMARK    2  A    between atoms: C_2  and  C_3
REMARK    3  A    between atoms: C_3  and  C_5
REMARK    4  A    between atoms: N_16  and  C_17
REMARK    5  A    between atoms: C_17  and  C_18
REMARK    6  A    between atoms: C_18  and  N_19
REMARK    7  A    between atoms: N_22  and  C_23
REMARK    8  A    between atoms: C_23  and  C_24
REMARK    9  A    between atoms: C_24  and  O_25
REMARK                            x       y       z     vdW  Elec       q    Type
REMARK                         _______ _______ _______ _____ _____    ______ ____
ROOT
ATOM      1  C   UNL     1       9.335   0.010  22.818  0.00  0.00    +0.019 A 
ATOM      2  C   UNL     1      10.146  -1.040  22.398  0.00  0.00    +0.012 A 
ATOM      3  C   UNL     1      10.108  -2.242  23.091  0.00  0.00    +0.017 A 
ATOM      4  C   UNL     1       9.248  -2.426  24.192  0.00  0.00    +0.034 A 
ATOM      5  S   UNL     1       9.333  -4.038  24.920  0.00  0.00    -0.086 S 
ATOM      6  C   UNL     1       7.877  -4.051  25.926  0.00  0.00    +0.034 A 
ATOM      7  C   UNL     1       7.478  -5.331  26.377  0.00  0.00    +0.017 A 
ATOM      8  C   UNL     1       6.380  -5.487  27.215  0.00  0.00    +0.001 A 
ATOM      9  C   UNL     1       5.710  -4.360  27.648  0.00  0.00    +0.002 A 
ATOM     10  C   UNL     1       6.116  -3.089  27.205  0.00  0.00    +0.024 A 
ATOM     11  C   UNL     1       7.164  -2.892  26.279  0.00  0.00    +0.048 A 
ATOM     12  N   UNL     1       7.462  -1.596  25.713  0.00  0.00    -0.297 N 
ATOM     13  C   UNL     1       8.397  -1.394  24.638  0.00  0.00    +0.049 A 
ATOM     14  C   UNL     1       8.508  -0.160  23.947  0.00  0.00    +0.036 A 
ENDROOT
BRANCH   1  15
ATOM     15  C   UNL     1       9.298   1.309  22.075  0.00  0.00    +0.163 C 
ATOM     16  O   UNL     1       8.317   1.578  21.383  0.00  0.00    -0.292 OA
BRANCH  15  18
ATOM     17  C   UNL     1      10.519   3.014  23.501  0.00  0.00    +0.012 C 
ATOM     18  C   UNL     1      10.493   2.246  22.191  0.00  0.00    +0.076 C 
ENDBRANCH  15  18
ENDBRANCH   1  15
BRANCH  12  19
ATOM     19  C   UNL     1       6.326  -0.627  25.743  0.00  0.00    +0.126 C 
BRANCH  19  20
ATOM     20  C   UNL     1       6.464   0.542  26.776  0.00  0.00    +0.104 C 
BRANCH  20  21
ATOM     21  N   UNL     1       5.603   1.713  26.431  0.00  0.00    -0.298 NA
ATOM     22  C   UNL     1       5.047   1.683  25.050  0.00  0.00    +0.100 C 
ATOM     23  C   UNL     1       5.972   2.191  23.892  0.00  0.00    +0.100 C 
ATOM     24  N   UNL     1       6.911   3.310  24.178  0.00  0.00    -0.298 NA
ATOM     25  C   UNL     1       7.419   3.160  25.549  0.00  0.00    +0.100 C 
ATOM     26  C   UNL     1       6.290   3.005  26.584  0.00  0.00    +0.100 C 
BRANCH  24  27
ATOM     27  C   UNL     1       6.320   4.647  23.955  0.00  0.00    +0.112 C 
BRANCH  27  28
ATOM     28  C   UNL     1       7.095   5.423  22.868  0.00  0.00    +0.171 C 
BRANCH  28  29
ATOM     29  O   UNL     1       7.683   4.504  21.945  0.00  0.00    -0.394 OA
ATOM     30  H   UNL     1       8.547   4.266  22.341  0.00  0.00    +0.209 HD
ENDBRANCH  28  29
ENDBRANCH  27  28
ENDBRANCH  24  27
ENDBRANCH  20  21
ENDBRANCH  19  20
ENDBRANCH  12  19
TORSDOF 8
ENDMDL
MODEL 4
REMARK VINA RESULT:      -6.3      1.646      2.308
REMARK  Name = 
REMARK  9 active torsions:
REMARK  status: ('A' for Active; 'I' for Inactive)
REMARK    1  A    between atoms: C_1  and  C_2
REMARK    2  A    between atoms: C_2  and  C_3
REMARK    3  A    between atoms: C_3  and  C_5
REMARK    4  A    between atoms: N_16  and  C_17
REMARK    5  A    between atoms: C_17  and  C_18
REMARK    6  A    between atoms: C_18  and  N_19
REMARK    7  A    between atoms: N_22  and  C_23
REMARK    8  A    between atoms: C_23  and  C_24
REMARK    9  A    between atoms: C_24  and  O_25
REMARK                            x       y       z     vdW  Elec       q    Type
REMARK                         _______ _______ _______ _____ _____    ______ ____
ROOT
ATOM      1  C   UNL     1       9.910  -0.400  23.543  0.00  0.00    +0.019 A 
ATOM      2  C   UNL     1       9.681  -0.637  22.191  0.00  0.00    +0.012 A 
ATOM      3  C   UNL     1       8.973  -1.770  21.814  0.00  0.00    +0.017 A 
ATOM      4  C   UNL     1       8.461  -2.667  22.772  0.00  0.00    +0.034 A 
ATOM      5  S   UNL     1       7.567  -4.032  22.087  0.00  0.00    -0.086 S 
ATOM      6  C   UNL     1       6.733  -4.665  23.514  0.00  0.00    +0.034 A 
ATOM      7  C   UNL     1       5.670  -5.555  23.236  0.00  0.00    +0.017 A 
ATOM      8  C   UNL     1       4.958  -6.165  24.261  0.00  0.00    +0.001 A 
ATOM      9  C   UNL     1       5.340  -5.931  25.567  0.00  0.00    +0.002 A 
ATOM     10  C   UNL     1       6.404  -5.053  25.838  0.00  0.00    +0.024 A 
ATOM     11  C   UNL     1       7.092  -4.338  24.834  0.00  0.00    +0.048 A 
ATOM     12  N   UNL     1       8.073  -3.322  25.141  0.00  0.00    -0.297 N 
ATOM     13  C   UNL     1       8.655  -2.453  24.153  0.00  0.00    +0.049 A 
ATOM     14  C   UNL     1       9.436  -1.321  24.500  0.00  0.00    +0.036 A 
ENDROOT
BRANCH   1  15
ATOM     15  C   UNL     1      10.622   0.833  24.006  0.00  0.00    +0.163 C 
ATOM     16  O   UNL     1      11.504   0.733  24.859  0.00  0.00    -0.292 OA
BRANCH  15  18
ATOM     17  C   UNL     1       9.063   2.827  24.162  0.00  0.00    +0.012 C 
ATOM     18  C   UNL     1      10.212   2.173  23.413  0.00  0.00    +0.076 C 
ENDBRANCH  15  18
ENDBRANCH   1  15
BRANCH  12  19
ATOM     19  C   UNL     1       7.939  -2.719  26.502  0.00  0.00    +0.126 C 
BRANCH  19  20
ATOM     20  C   UNL     1       6.565  -2.030  26.802  0.00  0.00    +0.104 C 
BRANCH  20  21
ATOM     21  N   UNL     1       6.711  -0.573  27.102  0.00  0.00    -0.298 NA
ATOM     22  C   UNL     1       5.553   0.026  27.821  0.00  0.00    +0.100 C 
ATOM     23  C   UNL     1       4.319   0.464  26.958  0.00  0.00    +0.100 C 
ATOM     24  N   UNL     1       4.568   0.997  25.591  0.00  0.00    -0.298 NA
ATOM     25  C   UNL     1       5.693   0.262  24.996  0.00  0.00    +0.100 C 
ATOM     26  C   UNL     1       6.937   0.248  25.902  0.00  0.00    +0.100 C 
BRANCH  24  27
ATOM     27  C   UNL     1       4.791   2.459  25.562  0.00  0.00    +0.112 C 
BRANCH  27  28
ATOM     28  C   UNL     1       4.919   2.972  24.111  0.00  0.00    +0.171 C 
BRANCH  28  29
ATOM     29  O   UNL     1       3.756   2.608  23.366  0.00  0.00    -0.394 OA
ATOM     30  H   UNL     1       3.063   3.236  23.657  0.00  0.00    +0.209 HD
ENDBRANCH  28  29
ENDBRANCH  27  28
ENDBRANCH  24  27
ENDBRANCH  20  21
ENDBRANCH  19  20
ENDBRANCH  12  19
TORSDOF 8
ENDMDL
MODEL 5
REMARK VINA RESULT:      -5.9      3.266      6.961
REMARK  Name = 
REMARK  9 active torsions:
REMARK  status: ('A' for Active; 'I' for Inactive)
REMARK    1  A    between atoms: C_1  and  C_2
REMARK    2  A    between atoms: C_2  and  C_3
REMARK    3  A    between atoms: C_3  and  C_5
REMARK    4  A    between atoms: N_16  and  C_17
REMARK    5  A    between atoms: C_17  and  C_18
REMARK    6  A    between atoms: C_18  and  N_19
REMARK    7  A    between atoms: N_22  and  C_23
REMARK    8  A    between atoms: C_23  and  C_24
REMARK    9  A    between atoms: C_24  and  O_25
REMARK                            x       y       z     vdW  Elec       q    Type
REMARK                         _______ _______ _______ _____ _____    ______ ____
ROOT
ATOM      1  C   UNL     1       6.670  -4.659  24.813  0.00  0.00    +0.019 A 
ATOM      2  C   UNL     1       5.756  -5.643  25.175  0.00  0.00    +0.012 A 
ATOM      3  C   UNL     1       4.851  -5.383  26.196  0.00  0.00    +0.017 A 
ATOM      4  C   UNL     1       4.824  -4.136  26.850  0.00  0.00    +0.034 A 
ATOM      5  S   UNL     1       3.580  -3.998  28.102  0.00  0.00    -0.086 S 
ATOM      6  C   UNL     1       3.545  -2.251  28.379  0.00  0.00    +0.034 A 
ATOM      7  C   UNL     1       2.411  -1.783  29.084  0.00  0.00    +0.017 A 
ATOM      8  C   UNL     1       2.275  -0.440  29.414  0.00  0.00    +0.001 A 
ATOM      9  C   UNL     1       3.296   0.431  29.089  0.00  0.00    +0.002 A 
ATOM     10  C   UNL     1       4.425  -0.041  28.397  0.00  0.00    +0.024 A 
ATOM     11  C   UNL     1       4.561  -1.375  27.958  0.00  0.00    +0.048 A 
ATOM     12  N   UNL     1       5.651  -1.804  27.112  0.00  0.00    -0.297 N 
ATOM     13  C   UNL     1       5.720  -3.105  26.501  0.00  0.00    +0.049 A 
ATOM     14  C   UNL     1       6.672  -3.426  25.499  0.00  0.00    +0.036 A 
ENDROOT
BRANCH   1  15
ATOM     15  C   UNL     1       7.632  -4.868  23.685  0.00  0.00    +0.163 C 
ATOM     16  O   UNL     1       8.781  -5.232  23.936  0.00  0.00    -0.292 OA
BRANCH  15  18
ATOM     17  C   UNL     1       6.785  -5.873  21.517  0.00  0.00    +0.012 C 
ATOM     18  C   UNL     1       7.154  -4.603  22.265  0.00  0.00    +0.076 C 
ENDBRANCH  15  18
ENDBRANCH   1  15
BRANCH  12  19
ATOM     19  C   UNL     1       6.296  -0.709  26.324  0.00  0.00    +0.126 C 
BRANCH  19  20
ATOM     20  C   UNL     1       7.831  -0.516  26.570  0.00  0.00    +0.104 C 
BRANCH  20  21
ATOM     21  N   UNL     1       8.459   0.393  25.565  0.00  0.00    -0.298 NA
ATOM     22  C   UNL     1       7.640   0.620  24.343  0.00  0.00    +0.100 C 
ATOM     23  C   UNL     1       7.719  -0.464  23.213  0.00  0.00    +0.100 C 
ATOM     24  N   UNL     1       9.016  -1.161  22.993  0.00  0.00    -0.298 NA
ATOM     25  C   UNL     1       9.667  -1.366  24.295  0.00  0.00    +0.100 C 
ATOM     26  C   UNL     1       9.781  -0.067  25.112  0.00  0.00    +0.100 C 
BRANCH  24  27
ATOM     27  C   UNL     1       9.904  -0.462  22.039  0.00  0.00    +0.112 C 
BRANCH  27  28
ATOM     28  C   UNL     1       9.166   0.701  21.343  0.00  0.00    +0.171 C 
BRANCH  28  29
ATOM     29  O   UNL     1       9.872   1.923  21.564  0.00  0.00    -0.394 OA
ATOM     30  H   UNL     1      10.273   2.144  20.698  0.00  0.00    +0.209 HD
ENDBRANCH  28  29
ENDBRANCH  27  28
ENDBRANCH  24  27
ENDBRANCH  20  21
ENDBRANCH  19  20
ENDBRANCH  12  19
TORSDOF 8
ENDMDL
MODEL 6
REMARK VINA RESULT:      -5.9      3.103      7.290
REMARK  Name = 
REMARK  9 active torsions:
REMARK  status: ('A' for Active; 'I' for Inactive)
REMARK    1  A    between atoms: C_1  and  C_2
REMARK    2  A    between atoms: C_2  and  C_3
REMARK    3  A    between atoms: C_3  and  C_5
REMARK    4  A    between atoms: N_16  and  C_17
REMARK    5  A    between atoms: C_17  and  C_18
REMARK    6  A    between atoms: C_18  and  N_19
REMARK    7  A    between atoms: N_22  and  C_23
REMARK    8  A    between atoms: C_23  and  C_24
REMARK    9  A    between atoms: C_24  and  O_25
REMARK                            x       y       z     vdW  Elec       q    Type
REMARK                         _______ _______ _______ _____ _____    ______ ____
ROOT
ATOM      1  C   UNL     1       5.077  -0.749  26.460  0.00  0.00    +0.019 A 
ATOM      2  C   UNL     1       4.475   0.354  27.059  0.00  0.00    +0.012 A 
ATOM      3  C   UNL     1       5.133   1.577  27.038  0.00  0.00    +0.017 A 
ATOM      4  C   UNL     1       6.380   1.727  26.401  0.00  0.00    +0.034 A 
ATOM      5  S   UNL     1       7.037   3.369  26.465  0.00  0.00    -0.086 S 
ATOM      6  C   UNL     1       8.317   3.289  25.245  0.00  0.00    +0.034 A 
ATOM      7  C   UNL     1       8.809   4.544  24.816  0.00  0.00    +0.017 A 
ATOM      8  C   UNL     1       9.848   4.632  23.898  0.00  0.00    +0.001 A 
ATOM      9  C   UNL     1      10.435   3.466  23.446  0.00  0.00    +0.002 A 
ATOM     10  C   UNL     1       9.949   2.221  23.883  0.00  0.00    +0.024 A 
ATOM     11  C   UNL     1       8.836   2.084  24.739  0.00  0.00    +0.048 A 
ATOM     12  N   UNL     1       8.252   0.799  25.049  0.00  0.00    -0.297 N 
ATOM     13  C   UNL     1       7.015   0.639  25.766  0.00  0.00    +0.049 A 
ATOM     14  C   UNL     1       6.346  -0.608  25.862  0.00  0.00    +0.036 A 
ENDROOT
BRANCH   1  15
ATOM     15  C   UNL     1       4.388  -2.077  26.408  0.00  0.00    +0.163 C 
ATOM     16  O   UNL     1       3.498  -2.260  25.579  0.00  0.00    -0.292 OA
BRANCH  15  18
ATOM     17  C   UNL     1       4.301  -4.534  27.030  0.00  0.00    +0.012 C 
ATOM     18  C   UNL     1       4.806  -3.150  27.403  0.00  0.00    +0.076 C 
ENDBRANCH  15  18
ENDBRANCH   1  15
BRANCH  12  19
ATOM     19  C   UNL     1       8.535  -0.272  24.046  0.00  0.00    +0.126 C 
BRANCH  19  20
ATOM     20  C   UNL     1       9.480  -1.421  24.535  0.00  0.00    +0.104 C 
BRANCH  20  21
ATOM     21  N   UNL     1       9.349  -2.659  23.709  0.00  0.00    -0.298 NA
ATOM     22  C   UNL     1       8.236  -2.624  22.720  0.00  0.00    +0.100 C 
ATOM     23  C   UNL     1       6.801  -2.980  23.241  0.00  0.00    +0.100 C 
ATOM     24  N   UNL     1       6.674  -4.007  24.312  0.00  0.00    -0.298 NA
ATOM     25  C   UNL     1       7.808  -3.867  25.236  0.00  0.00    +0.100 C 
ATOM     26  C   UNL     1       9.166  -3.878  24.512  0.00  0.00    +0.100 C 
BRANCH  24  27
ATOM     27  C   UNL     1       6.556  -5.387  23.792  0.00  0.00    +0.112 C 
BRANCH  27  28
ATOM     28  C   UNL     1       5.663  -5.431  22.533  0.00  0.00    +0.171 C 
BRANCH  28  29
ATOM     29  O   UNL     1       6.024  -6.552  21.724  0.00  0.00    -0.394 OA
ATOM     30  H   UNL     1       5.540  -7.310  22.112  0.00  0.00    +0.209 HD
ENDBRANCH  28  29
ENDBRANCH  27  28
ENDBRANCH  24  27
ENDBRANCH  20  21
ENDBRANCH  19  20
ENDBRANCH  12  19
TORSDOF 8
ENDMDL
MODEL 7
REMARK VINA RESULT:      -5.9      2.505      4.202
REMARK  Name = 
REMARK  9 active torsions:
REMARK  status: ('A' for Active; 'I' for Inactive)
REMARK    1  A    between atoms: C_1  and  C_2
REMARK    2  A    between atoms: C_2  and  C_3
REMARK    3  A    between atoms: C_3  and  C_5
REMARK    4  A    between atoms: N_16  and  C_17
REMARK    5  A    between atoms: C_17  and  C_18
REMARK    6  A    between atoms: C_18  and  N_19
REMARK    7  A    between atoms: N_22  and  C_23
REMARK    8  A    between atoms: C_23  and  C_24
REMARK    9  A    between atoms: C_24  and  O_25
REMARK                            x       y       z     vdW  Elec       q    Type
REMARK                         _______ _______ _______ _____ _____    ______ ____
ROOT
ATOM      1  C   UNL     1       8.676  -2.529  22.425  0.00  0.00    +0.019 A 
ATOM      2  C   UNL     1       7.822  -3.100  21.486  0.00  0.00    +0.012 A 
ATOM      3  C   UNL     1       6.960  -4.114  21.885  0.00  0.00    +0.017 A 
ATOM      4  C   UNL     1       6.916  -4.553  23.223  0.00  0.00    +0.034 A 
ATOM      5  S   UNL     1       5.733  -5.833  23.530  0.00  0.00    -0.086 S 
ATOM      6  C   UNL     1       5.641  -5.818  25.297  0.00  0.00    +0.034 A 
ATOM      7  C   UNL     1       4.526  -6.499  25.840  0.00  0.00    +0.017 A 
ATOM      8  C   UNL     1       4.352  -6.609  27.214  0.00  0.00    +0.001 A 
ATOM      9  C   UNL     1       5.319  -6.086  28.050  0.00  0.00    +0.002 A 
ATOM     10  C   UNL     1       6.430  -5.419  27.505  0.00  0.00    +0.024 A 
ATOM     11  C   UNL     1       6.598  -5.200  26.121  0.00  0.00    +0.048 A 
ATOM     12  N   UNL     1       7.660  -4.376  25.591  0.00  0.00    -0.297 N 
ATOM     13  C   UNL     1       7.751  -3.986  24.209  0.00  0.00    +0.049 A 
ATOM     14  C   UNL     1       8.663  -3.000  23.754  0.00  0.00    +0.036 A 
ENDROOT
BRANCH   1  15
ATOM     15  C   UNL     1       9.587  -1.398  22.059  0.00  0.00    +0.163 C 
ATOM     16  O   UNL     1      10.799  -1.523  22.234  0.00  0.00    -0.292 OA
BRANCH  15  18
ATOM     17  C   UNL     1       9.763   1.123  21.859  0.00  0.00    +0.012 C 
ATOM     18  C   UNL     1       8.973  -0.124  21.499  0.00  0.00    +0.076 C 
ENDBRANCH  15  18
ENDBRANCH   1  15
BRANCH  12  19
ATOM     19  C   UNL     1       8.219  -3.383  26.557  0.00  0.00    +0.126 C 
BRANCH  19  20
ATOM     20  C   UNL     1       7.383  -2.070  26.733  0.00  0.00    +0.104 C 
BRANCH  20  21
ATOM     21  N   UNL     1       8.244  -0.874  26.982  0.00  0.00    -0.298 NA
ATOM     22  C   UNL     1       7.576   0.218  27.742  0.00  0.00    +0.100 C 
ATOM     23  C   UNL     1       6.669   1.207  26.931  0.00  0.00    +0.100 C 
ATOM     24  N   UNL     1       7.068   1.548  25.538  0.00  0.00    -0.298 NA
ATOM     25  C   UNL     1       7.647   0.353  24.908  0.00  0.00    +0.100 C 
ATOM     26  C   UNL     1       8.774  -0.272  25.750  0.00  0.00    +0.100 C 
BRANCH  24  27
ATOM     27  C   UNL     1       7.979   2.710  25.455  0.00  0.00    +0.112 C 
BRANCH  27  28
ATOM     28  C   UNL     1       7.664   3.574  24.214  0.00  0.00    +0.171 C 
BRANCH  28  29
ATOM     29  O   UNL     1       8.882   3.991  23.594  0.00  0.00    -0.394 OA
ATOM     30  H   UNL     1       8.919   4.959  23.734  0.00  0.00    +0.209 HD
ENDBRANCH  28  29
ENDBRANCH  27  28
ENDBRANCH  24  27
ENDBRANCH  20  21
ENDBRANCH  19  20
ENDBRANCH  12  19
TORSDOF 8
ENDMDL
MODEL 8
REMARK VINA RESULT:      -5.8      2.920      6.480
REMARK  Name = 
REMARK  9 active torsions:
REMARK  status: ('A' for Active; 'I' for Inactive)
REMARK    1  A    between atoms: C_1  and  C_2
REMARK    2  A    between atoms: C_2  and  C_3
REMARK    3  A    between atoms: C_3  and  C_5
REMARK    4  A    between atoms: N_16  and  C_17
REMARK    5  A    between atoms: C_17  and  C_18
REMARK    6  A    between atoms: C_18  and  N_19
REMARK    7  A    between atoms: N_22  and  C_23
REMARK    8  A    between atoms: C_23  and  C_24
REMARK    9  A    between atoms: C_24  and  O_25
REMARK                            x       y       z     vdW  Elec       q    Type
REMARK                         _______ _______ _______ _____ _____    ______ ____
ROOT
ATOM      1  C   UNL     1       4.062   3.809  23.996  0.00  0.00    +0.019 A 
ATOM      2  C   UNL     1       4.738   4.861  23.385  0.00  0.00    +0.012 A 
ATOM      3  C   UNL     1       6.127   4.869  23.397  0.00  0.00    +0.017 A 
ATOM      4  C   UNL     1       6.861   3.823  23.990  0.00  0.00    +0.034 A 
ATOM      5  S   UNL     1       8.617   4.010  23.875  0.00  0.00    -0.086 S 
ATOM      6  C   UNL     1       9.178   2.386  24.299  0.00  0.00    +0.034 A 
ATOM      7  C   UNL     1      10.526   2.117  23.968  0.00  0.00    +0.017 A 
ATOM      8  C   UNL     1      11.114   0.899  24.287  0.00  0.00    +0.001 A 
ATOM      9  C   UNL     1      10.373  -0.034  24.983  0.00  0.00    +0.002 A 
ATOM     10  C   UNL     1       9.035   0.241  25.318  0.00  0.00    +0.024 A 
ATOM     11  C   UNL     1       8.370   1.424  24.931  0.00  0.00    +0.048 A 
ATOM     12  N   UNL     1       6.954   1.621  25.144  0.00  0.00    -0.297 N 
ATOM     13  C   UNL     1       6.214   2.729  24.602  0.00  0.00    +0.049 A 
ATOM     14  C   UNL     1       4.797   2.785  24.628  0.00  0.00    +0.036 A 
ENDROOT
BRANCH   1  15
ATOM     15  C   UNL     1       2.568   3.724  23.966  0.00  0.00    +0.163 C 
ATOM     16  O   UNL     1       2.033   2.672  23.619  0.00  0.00    -0.292 OA
BRANCH  15  18
ATOM     17  C   UNL     1       1.803   5.248  25.843  0.00  0.00    +0.012 C 
ATOM     18  C   UNL     1       1.764   4.957  24.353  0.00  0.00    +0.076 C 
ENDBRANCH  15  18
ENDBRANCH   1  15
BRANCH  12  19
ATOM     19  C   UNL     1       6.167   0.360  25.297  0.00  0.00    +0.126 C 
BRANCH  19  20
ATOM     20  C   UNL     1       6.181  -0.598  24.058  0.00  0.00    +0.104 C 
BRANCH  20  21
ATOM     21  N   UNL     1       5.939  -2.023  24.435  0.00  0.00    -0.298 NA
ATOM     22  C   UNL     1       7.125  -2.718  25.009  0.00  0.00    +0.100 C 
ATOM     23  C   UNL     1       8.173  -3.302  24.001  0.00  0.00    +0.100 C 
ATOM     24  N   UNL     1       7.680  -3.844  22.706  0.00  0.00    -0.298 NA
ATOM     25  C   UNL     1       6.558  -3.015  22.244  0.00  0.00    +0.100 C 
ATOM     26  C   UNL     1       5.465  -2.849  23.315  0.00  0.00    +0.100 C 
BRANCH  24  27
ATOM     27  C   UNL     1       7.315  -5.276  22.769  0.00  0.00    +0.112 C 
BRANCH  27  28
ATOM     28  C   UNL     1       6.957  -5.820  21.369  0.00  0.00    +0.171 C 
BRANCH  28  29
ATOM     29  O   UNL     1       5.618  -6.317  21.372  0.00  0.00    -0.394 OA
ATOM     30  H   UNL     1       5.583  -6.945  22.123  0.00  0.00    +0.209 HD
ENDBRANCH  28  29
ENDBRANCH  27  28
ENDBRANCH  24  27
ENDBRANCH  20  21
ENDBRANCH  19  20
ENDBRANCH  12  19
TORSDOF 8
ENDMDL
MODEL 9
REMARK VINA RESULT:      -5.8      2.803      6.028
REMARK  Name = 
REMARK  9 active torsions:
REMARK  status: ('A' for Active; 'I' for Inactive)
REMARK    1  A    between atoms: C_1  and  C_2
REMARK    2  A    between atoms: C_2  and  C_3
REMARK    3  A    between atoms: C_3  and  C_5
REMARK    4  A    between atoms: N_16  and  C_17
REMARK    5  A    between atoms: C_17  and  C_18
REMARK    6  A    between atoms: C_18  and  N_19
REMARK    7  A    between atoms: N_22  and  C_23
REMARK    8  A    between atoms: C_23  and  C_24
REMARK    9  A    between atoms: C_24  and  O_25
REMARK                            x       y       z     vdW  Elec       q    Type
REMARK                         _______ _______ _______ _____ _____    ______ ____
ROOT
ATOM      1  C   UNL     1       7.257  -4.520  25.421  0.00  0.00    +0.019 A 
ATOM      2  C   UNL     1       7.462  -4.957  24.117  0.00  0.00    +0.012 A 
ATOM      3  C   UNL     1       7.840  -4.037  23.147  0.00  0.00    +0.017 A 
ATOM      4  C   UNL     1       8.045  -2.680  23.466  0.00  0.00    +0.034 A 
ATOM      5  S   UNL     1       8.549  -1.679  22.096  0.00  0.00    -0.086 S 
ATOM      6  C   UNL     1       9.119  -0.216  22.913  0.00  0.00    +0.034 A 
ATOM      7  C   UNL     1       9.903   0.646  22.111  0.00  0.00    +0.017 A 
ATOM      8  C   UNL     1      10.377   1.854  22.607  0.00  0.00    +0.001 A 
ATOM      9  C   UNL     1      10.026   2.229  23.889  0.00  0.00    +0.002 A 
ATOM     10  C   UNL     1       9.239   1.373  24.679  0.00  0.00    +0.024 A 
ATOM     11  C   UNL     1       8.816   0.097  24.250  0.00  0.00    +0.048 A 
ATOM     12  N   UNL     1       8.147  -0.833  25.131  0.00  0.00    -0.297 N 
ATOM     13  C   UNL     1       7.867  -2.201  24.780  0.00  0.00    +0.049 A 
ATOM     14  C   UNL     1       7.419  -3.154  25.730  0.00  0.00    +0.036 A 
ENDROOT
BRANCH   1  15
ATOM     15  C   UNL     1       6.900  -5.479  26.515  0.00  0.00    +0.163 C 
ATOM     16  O   UNL     1       7.679  -5.635  27.455  0.00  0.00    -0.292 OA
BRANCH  15  18
ATOM     17  C   UNL     1       4.383  -5.329  26.253  0.00  0.00    +0.012 C 
ATOM     18  C   UNL     1       5.587  -6.241  26.411  0.00  0.00    +0.076 C 
ENDBRANCH  15  18
ENDBRANCH   1  15
BRANCH  12  19
ATOM     19  C   UNL     1       8.391  -0.599  26.586  0.00  0.00    +0.126 C 
BRANCH  19  20
ATOM     20  C   UNL     1       7.232   0.118  27.358  0.00  0.00    +0.104 C 
BRANCH  20  21
ATOM     21  N   UNL     1       6.020   0.320  26.508  0.00  0.00    -0.298 NA
ATOM     22  C   UNL     1       5.500   1.715  26.498  0.00  0.00    +0.100 C 
ATOM     23  C   UNL     1       4.573   2.144  27.688  0.00  0.00    +0.100 C 
ATOM     24  N   UNL     1       3.660   1.125  28.273  0.00  0.00    -0.298 NA
ATOM     25  C   UNL     1       4.341  -0.177  28.269  0.00  0.00    +0.100 C 
ATOM     26  C   UNL     1       4.895  -0.550  26.882  0.00  0.00    +0.100 C 
BRANCH  24  27
ATOM     27  C   UNL     1       2.344   1.059  27.600  0.00  0.00    +0.112 C 
BRANCH  27  28
ATOM     28  C   UNL     1       1.410   0.053  28.307  0.00  0.00    +0.171 C 
BRANCH  28  29
ATOM     29  O   UNL     1       0.828   0.664  29.461  0.00  0.00    -0.394 OA
ATOM     30  H   UNL     1      -0.080   0.297  29.510  0.00  0.00    +0.209 HD
ENDBRANCH  28  29
ENDBRANCH  27  28
ENDBRANCH  24  27
ENDBRANCH  20  21
ENDBRANCH  19  20
ENDBRANCH  12  19
TORSDOF 8
ENDMDL
