MODEL 1
REMARK VINA RESULT:      -6.5      0.000      0.000
REMARK  Name = 
REMARK  13 active torsions:
REMARK  status: ('A' for Active; 'I' for Inactive)
REMARK    1  A    between atoms: C_1  and  O_2
REMARK    2  A    between atoms: O_2  and  C_3
REMARK    3  A    between atoms: C_5  and  O_6
REMARK    4  A    between atoms: O_6  and  C_7
REMARK    5  A    between atoms: C_9  and  O_10
REMARK    6  A    between atoms: O_10  and  C_11
REMARK    7  A    between atoms: C_11  and  C_13
REMARK    8  A    between atoms: C_11  and  C_16
REMARK    9  A    between atoms: C_13  and  O_14
REMARK   10  A    between atoms: C_16  and  O_17
REMARK   11  A    between atoms: C_16  and  C_19
REMARK   12  A    between atoms: C_16  and  C_25
REMARK   13  A    between atoms: O_17  and  C_18
REMARK                            x       y       z     vdW  Elec       q    Type
REMARK                         _______ _______ _______ _____ _____    ______ ____
ROOT
ATOM      1  C   UNL     1       7.526  -3.206  25.452  0.00  0.00    +0.325 C 
ENDROOT
BRANCH   1   2
ATOM      2  C   UNL     1       7.681  -1.942  26.319  0.00  0.00    +0.350 C 
ATOM      3  O   UNL     1       6.728  -1.257  26.687  0.00  0.00    -0.247 OA
BRANCH   2   4
ATOM      4  O   UNL     1       8.923  -1.658  26.762  0.00  0.00    -0.478 OA
ATOM      5  H   UNL     1       9.614  -1.696  26.062  0.00  0.00    +0.295 HD
ENDBRANCH   2   4
ENDBRANCH   1   2
BRANCH   1   6
ATOM      6  O   UNL     1       6.117  -3.301  25.212  0.00  0.00    -0.444 OA
BRANCH   6   9
ATOM      7  C   UNL     1       4.014  -6.013  24.746  0.00  0.00    +0.224 A 
ATOM      8  N   UNL     1       4.600  -4.823  24.586  0.00  0.00    -0.159 NA
ATOM      9  C   UNL     1       5.474  -4.463  25.526  0.00  0.00    +0.325 A 
ATOM     10  N   UNL     1       5.875  -5.213  26.555  0.00  0.00    -0.159 NA
ATOM     11  C   UNL     1       5.237  -6.391  26.675  0.00  0.00    +0.224 A 
ATOM     12  C   UNL     1       4.284  -6.849  25.796  0.00  0.00    +0.134 A 
BRANCH   7  14
ATOM     13  C   UNL     1       2.281  -5.378  23.312  0.00  0.00    +0.279 C 
ATOM     14  O   UNL     1       3.097  -6.441  23.808  0.00  0.00    -0.479 OA
ENDBRANCH   7  14
BRANCH  11  15
ATOM     15  O   UNL     1       5.539  -7.233  27.728  0.00  0.00    -0.479 OA
ATOM     16  C   UNL     1       5.724  -6.553  28.966  0.00  0.00    +0.279 C 
ENDBRANCH  11  15
ENDBRANCH   6   9
ENDBRANCH   1   6
BRANCH   1  17
ATOM     17  C   UNL     1       8.315  -3.210  24.070  0.00  0.00    +0.166 C 
BRANCH  17  18
ATOM     18  C   UNL     1       8.565  -1.750  23.596  0.00  0.00    -0.007 A 
ATOM     19  C   UNL     1       9.865  -1.279  23.328  0.00  0.00    +0.007 A 
ATOM     20  C   UNL     1      10.080  -0.062  22.671  0.00  0.00    +0.000 A 
ATOM     21  C   UNL     1       9.010   0.740  22.320  0.00  0.00    +0.000 A 
ATOM     22  C   UNL     1       7.719   0.362  22.663  0.00  0.00    +0.000 A 
ATOM     23  C   UNL     1       7.496  -0.872  23.302  0.00  0.00    +0.007 A 
ENDBRANCH  17  18
BRANCH  17  24
ATOM     24  C   UNL     1       7.639  -4.081  22.960  0.00  0.00    -0.007 A 
ATOM     25  C   UNL     1       7.755  -5.486  22.967  0.00  0.00    +0.007 A 
ATOM     26  C   UNL     1       6.908  -6.289  22.187  0.00  0.00    +0.000 A 
ATOM     27  C   UNL     1       5.963  -5.710  21.343  0.00  0.00    +0.000 A 
ATOM     28  C   UNL     1       5.923  -4.332  21.220  0.00  0.00    +0.000 A 
ATOM     29  C   UNL     1       6.772  -3.539  21.995  0.00  0.00    +0.007 A 
ENDBRANCH  17  24
BRANCH  17  30
ATOM     30  O   UNL     1       9.653  -3.773  24.339  0.00  0.00    -0.363 OA
ATOM     31  C   UNL     1       9.788  -4.770  25.351  0.00  0.00    +0.195 C 
ENDBRANCH  17  30
ENDBRANCH   1  17
TORSDOF 10
ENDMDL
MODEL 2
REMARK VINA RESULT:      -6.4      0.293      2.311
REMARK  Name = 
REMARK  13 active torsions:
REMARK  status: ('A' for Active; 'I' for Inactive)
REMARK    1  A    between atoms: C_1  and  O_2
REMARK    2  A    between atoms: O_2  and  C_3
REMARK    3  A    between atoms: C_5  and  O_6
REMARK    4  A    between atoms: O_6  and  C_7
REMARK    5  A    between atoms: C_9  and  O_10
REMARK    6  A    between atoms: O_10  and  C_11
REMARK    7  A    between atoms: C_11  and  C_13
REMARK    8  A    between atoms: C_11  and  C_16
REMARK    9  A    between atoms: C_13  and  O_14
REMARK   10  A    between atoms: C_16  and  O_17
REMARK   11  A    between atoms: C_16  and  C_19
REMARK   12  A    between atoms: C_16  and  C_25
REMARK   13  A    between atoms: O_17  and  C_18
REMARK                            x       y       z     vdW  Elec       q    Type
REMARK                         _______ _______ _______ _____ _____    ______ ____
ROOT
ATOM      1  C   UNL     1       7.470  -3.395  25.480  0.00  0.00    +0.325 C 
ENDROOT
BRANCH   1   2
ATOM      2  C   UNL     1       7.602  -2.144  26.369  0.00  0.00    +0.350 C 
ATOM      3  O   UNL     1       6.637  -1.492  26.761  0.00  0.00    -0.247 OA
BRANCH   2   4
ATOM      4  O   UNL     1       8.841  -1.838  26.804  0.00  0.00    -0.478 OA
ATOM      5  H   UNL     1       9.235  -2.517  27.398  0.00  0.00    +0.295 HD
ENDBRANCH   2   4
ENDBRANCH   1   2
BRANCH   1   6
ATOM      6  O   UNL     1       6.066  -3.490  25.208  0.00  0.00    -0.444 OA
BRANCH   6   9
ATOM      7  C   UNL     1       5.232  -6.448  26.803  0.00  0.00    +0.224 A 
ATOM      8  N   UNL     1       5.875  -5.323  26.476  0.00  0.00    -0.159 NA
ATOM      9  C   UNL     1       5.441  -4.689  25.387  0.00  0.00    +0.325 A 
ATOM     10  N   UNL     1       4.380  -5.027  24.652  0.00  0.00    -0.159 NA
ATOM     11  C   UNL     1       3.785  -6.176  25.017  0.00  0.00    +0.224 A 
ATOM     12  C   UNL     1       4.172  -6.942  26.092  0.00  0.00    +0.134 A 
BRANCH   7  14
ATOM     13  C   UNL     1       6.144  -6.305  28.950  0.00  0.00    +0.279 C 
ATOM     14  O   UNL     1       5.636  -7.153  27.919  0.00  0.00    -0.479 OA
ENDBRANCH   7  14
BRANCH  11  15
ATOM     15  O   UNL     1       2.700  -6.648  24.302  0.00  0.00    -0.479 OA
ATOM     16  C   UNL     1       2.601  -6.099  22.991  0.00  0.00    +0.279 C 
ENDBRANCH  11  15
ENDBRANCH   6   9
ENDBRANCH   1   6
BRANCH   1  17
ATOM     17  C   UNL     1       8.289  -3.376  24.116  0.00  0.00    +0.166 C 
BRANCH  17  18
ATOM     18  C   UNL     1       8.565  -1.908  23.682  0.00  0.00    -0.007 A 
ATOM     19  C   UNL     1       9.876  -1.444  23.462  0.00  0.00    +0.007 A 
ATOM     20  C   UNL     1      10.121  -0.215  22.839  0.00  0.00    +0.000 A 
ATOM     21  C   UNL     1       9.069   0.605  22.476  0.00  0.00    +0.000 A 
ATOM     22  C   UNL     1       7.765   0.232  22.773  0.00  0.00    +0.000 A 
ATOM     23  C   UNL     1       7.513  -1.014  23.377  0.00  0.00    +0.007 A 
ENDBRANCH  17  18
BRANCH  17  24
ATOM     24  C   UNL     1       7.627  -4.213  22.971  0.00  0.00    -0.007 A 
ATOM     25  C   UNL     1       7.731  -5.618  22.945  0.00  0.00    +0.007 A 
ATOM     26  C   UNL     1       6.893  -6.394  22.128  0.00  0.00    +0.000 A 
ATOM     27  C   UNL     1       5.970  -5.785  21.280  0.00  0.00    +0.000 A 
ATOM     28  C   UNL     1       5.945  -4.405  21.191  0.00  0.00    +0.000 A 
ATOM     29  C   UNL     1       6.784  -3.639  22.003  0.00  0.00    +0.007 A 
ENDBRANCH  17  24
BRANCH  17  30
ATOM     30  O   UNL     1       9.614  -3.961  24.401  0.00  0.00    -0.363 OA
ATOM     31  C   UNL     1       9.730  -4.922  25.450  0.00  0.00    +0.195 C 
ENDBRANCH  17  30
ENDBRANCH   1  17
TORSDOF 10
ENDMDL
MODEL 3
REMARK VINA RESULT:      -6.4      2.230      5.875
REMARK  Name = 
REMARK  13 active torsions:
REMARK  status: ('A' for Active; 'I' for Inactive)
REMARK    1  A    between atoms: C_1  and  O_2
REMARK    2  A    between atoms: O_2  and  C_3
REMARK    3  A    between atoms: C_5  and  O_6
REMARK    4  A    between atoms: O_6  and  C_7
REMARK    5  A    between atoms: C_9  and  O_10
REMARK    6  A    between atoms: O_10  and  C_11
REMARK    7  A    between atoms: C_11  and  C_13
REMARK    8  A    between atoms: C_11  and  C_16
REMARK    9  A    between atoms: C_13  and  O_14
REMARK   10  A    between atoms: C_16  and  O_17
REMARK   11  A    between atoms: C_16  and  C_19
REMARK   12  A    between atoms: C_16  and  C_25
REMARK   13  A    between atoms: O_17  and  C_18
REMARK                            x       y       z     vdW  Elec       q    Type
REMARK                         _______ _______ _______ _____ _____    ______ ____
ROOT
ATOM      1  C   UNL     1       6.515  -4.368  26.068  0.00  0.00    +0.325 C 
ENDROOT
BRANCH   1   2
ATOM      2  C   UNL     1       6.963  -5.134  27.327  0.00  0.00    +0.350 C 
ATOM      3  O   UNL     1       6.436  -4.987  28.428  0.00  0.00    -0.247 OA
BRANCH   2   4
ATOM      4  O   UNL     1       7.912  -6.077  27.157  0.00  0.00    -0.478 OA
ATOM      5  H   UNL     1       8.830  -5.751  27.302  0.00  0.00    +0.295 HD
ENDBRANCH   2   4
ENDBRANCH   1   2
BRANCH   1   6
ATOM      6  O   UNL     1       7.675  -4.358  25.228  0.00  0.00    -0.444 OA
BRANCH   6   9
ATOM      7  C   UNL     1       9.534  -1.990  23.515  0.00  0.00    +0.224 A 
ATOM      8  N   UNL     1       8.967  -3.151  23.855  0.00  0.00    -0.159 NA
ATOM      9  C   UNL     1       8.330  -3.178  25.026  0.00  0.00    +0.325 A 
ATOM     10  N   UNL     1       8.137  -2.138  25.840  0.00  0.00    -0.159 NA
ATOM     11  C   UNL     1       8.746  -1.002  25.455  0.00  0.00    +0.224 A 
ATOM     12  C   UNL     1       9.469  -0.865  24.293  0.00  0.00    +0.134 A 
BRANCH   7  14
ATOM     13  C   UNL     1       9.742  -0.821  21.502  0.00  0.00    +0.279 C 
ATOM     14  O   UNL     1      10.211  -1.898  22.316  0.00  0.00    -0.479 OA
ENDBRANCH   7  14
BRANCH  11  15
ATOM     15  O   UNL     1       8.650   0.131  26.241  0.00  0.00    -0.479 OA
ATOM     16  C   UNL     1       7.961   1.206  25.609  0.00  0.00    +0.279 C 
ENDBRANCH  11  15
ENDBRANCH   6   9
ENDBRANCH   1   6
BRANCH   1  17
ATOM     17  C   UNL     1       5.276  -4.978  25.279  0.00  0.00    +0.166 C 
BRANCH  17  18
ATOM     18  C   UNL     1       5.515  -4.866  23.746  0.00  0.00    -0.007 A 
ATOM     19  C   UNL     1       5.400  -3.633  23.075  0.00  0.00    +0.007 A 
ATOM     20  C   UNL     1       5.849  -3.473  21.759  0.00  0.00    +0.000 A 
ATOM     21  C   UNL     1       6.366  -4.550  21.063  0.00  0.00    +0.000 A 
ATOM     22  C   UNL     1       6.396  -5.807  21.652  0.00  0.00    +0.000 A 
ATOM     23  C   UNL     1       5.968  -5.968  22.983  0.00  0.00    +0.007 A 
ENDBRANCH  17  18
BRANCH  17  24
ATOM     24  C   UNL     1       3.897  -4.374  25.704  0.00  0.00    -0.007 A 
ATOM     25  C   UNL     1       3.817  -3.366  26.686  0.00  0.00    +0.007 A 
ATOM     26  C   UNL     1       2.653  -2.599  26.847  0.00  0.00    +0.000 A 
ATOM     27  C   UNL     1       1.524  -2.853  26.071  0.00  0.00    +0.000 A 
ATOM     28  C   UNL     1       1.536  -3.924  25.195  0.00  0.00    +0.000 A 
ATOM     29  C   UNL     1       2.696  -4.687  25.043  0.00  0.00    +0.007 A 
ENDBRANCH  17  24
BRANCH  17  30
ATOM     30  O   UNL     1       5.249  -6.425  25.571  0.00  0.00    -0.363 OA
ATOM     31  C   UNL     1       4.245  -6.930  26.450  0.00  0.00    +0.195 C 
ENDBRANCH  17  30
ENDBRANCH   1  17
TORSDOF 10
ENDMDL
MODEL 4
REMARK VINA RESULT:      -6.3      2.326      5.437
REMARK  Name = 
REMARK  13 active torsions:
REMARK  status: ('A' for Active; 'I' for Inactive)
REMARK    1  A    between atoms: C_1  and  O_2
REMARK    2  A    between atoms: O_2  and  C_3
REMARK    3  A    between atoms: C_5  and  O_6
REMARK    4  A    between atoms: O_6  and  C_7
REMARK    5  A    between atoms: C_9  and  O_10
REMARK    6  A    between atoms: O_10  and  C_11
REMARK    7  A    between atoms: C_11  and  C_13
REMARK    8  A    between atoms: C_11  and  C_16
REMARK    9  A    between atoms: C_13  and  O_14
REMARK   10  A    between atoms: C_16  and  O_17
REMARK   11  A    between atoms: C_16  and  C_19
REMARK   12  A    between atoms: C_16  and  C_25
REMARK   13  A    between atoms: O_17  and  C_18
REMARK                            x       y       z     vdW  Elec       q    Type
REMARK                         _______ _______ _______ _____ _____    ______ ____
ROOT
ATOM      1  C   UNL     1       8.676  -1.412  23.356  0.00  0.00    +0.325 C 
ENDROOT
BRANCH   1   2
ATOM      2  C   UNL     1       9.823  -1.463  22.330  0.00  0.00    +0.350 C 
ATOM      3  O   UNL     1      10.909  -1.993  22.559  0.00  0.00    -0.247 OA
BRANCH   2   4
ATOM      4  O   UNL     1       9.556  -0.986  21.097  0.00  0.00    -0.478 OA
ATOM      5  H   UNL     1       8.709  -1.313  20.717  0.00  0.00    +0.295 HD
ENDBRANCH   2   4
ENDBRANCH   1   2
BRANCH   1   6
ATOM      6  O   UNL     1       8.850  -2.597  24.142  0.00  0.00    -0.444 OA
BRANCH   6   9
ATOM      7  C   UNL     1       6.811  -5.214  25.137  0.00  0.00    +0.224 A 
ATOM      8  N   UNL     1       7.766  -4.279  25.144  0.00  0.00    -0.159 NA
ATOM      9  C   UNL     1       7.952  -3.615  24.004  0.00  0.00    +0.325 A 
ATOM     10  N   UNL     1       7.220  -3.739  22.894  0.00  0.00    -0.159 NA
ATOM     11  C   UNL     1       6.288  -4.707  22.940  0.00  0.00    +0.224 A 
ATOM     12  C   UNL     1       6.036  -5.489  24.043  0.00  0.00    +0.134 A 
BRANCH   7  14
ATOM     13  C   UNL     1       6.872  -5.202  27.473  0.00  0.00    +0.279 C 
ATOM     14  O   UNL     1       6.572  -5.939  26.286  0.00  0.00    -0.479 OA
ENDBRANCH   7  14
BRANCH  11  15
ATOM     15  O   UNL     1       5.498  -4.955  21.833  0.00  0.00    -0.479 OA
ATOM     16  C   UNL     1       6.161  -5.699  20.816  0.00  0.00    +0.279 C 
ENDBRANCH  11  15
ENDBRANCH   6   9
ENDBRANCH   1   6
BRANCH   1  17
ATOM     17  C   UNL     1       8.637  -0.133  24.302  0.00  0.00    +0.166 C 
BRANCH  17  18
ATOM     18  C   UNL     1       7.544  -0.312  25.394  0.00  0.00    -0.007 A 
ATOM     19  C   UNL     1       7.828  -0.098  26.756  0.00  0.00    +0.007 A 
ATOM     20  C   UNL     1       6.807  -0.014  27.711  0.00  0.00    +0.000 A 
ATOM     21  C   UNL     1       5.489  -0.200  27.340  0.00  0.00    +0.000 A 
ATOM     22  C   UNL     1       5.177  -0.520  26.026  0.00  0.00    +0.000 A 
ATOM     23  C   UNL     1       6.197  -0.582  25.058  0.00  0.00    +0.007 A 
ENDBRANCH  17  18
BRANCH  17  24
ATOM     24  C   UNL     1       8.480   1.219  23.529  0.00  0.00    -0.007 A 
ATOM     25  C   UNL     1       7.761   1.284  22.319  0.00  0.00    +0.007 A 
ATOM     26  C   UNL     1       7.341   2.514  21.789  0.00  0.00    +0.000 A 
ATOM     27  C   UNL     1       7.673   3.709  22.424  0.00  0.00    +0.000 A 
ATOM     28  C   UNL     1       8.492   3.675  23.539  0.00  0.00    +0.000 A 
ATOM     29  C   UNL     1       8.910   2.448  24.058  0.00  0.00    +0.007 A 
ENDBRANCH  17  24
BRANCH  17  30
ATOM     30  O   UNL     1       9.920  -0.096  25.030  0.00  0.00    -0.363 OA
ATOM     31  C   UNL     1      10.978   0.714  24.516  0.00  0.00    +0.195 C 
ENDBRANCH  17  30
ENDBRANCH   1  17
TORSDOF 10
ENDMDL
MODEL 5
REMARK VINA RESULT:      -6.3      2.496      6.269
REMARK  Name = 
REMARK  13 active torsions:
REMARK  status: ('A' for Active; 'I' for Inactive)
REMARK    1  A    between atoms: C_1  and  O_2
REMARK    2  A    between atoms: O_2  and  C_3
REMARK    3  A    between atoms: C_5  and  O_6
REMARK    4  A    between atoms: O_6  and  C_7
REMARK    5  A    between atoms: C_9  and  O_10
REMARK    6  A    between atoms: O_10  and  C_11
REMARK    7  A    between atoms: C_11  and  C_13
REMARK    8  A    between atoms: C_11  and  C_16
REMARK    9  A    between atoms: C_13  and  O_14
REMARK   10  A    between atoms: C_16  and  O_17
REMARK   11  A    between atoms: C_16  and  C_19
REMARK   12  A    between atoms: C_16  and  C_25
REMARK   13  A    between atoms: O_17  and  C_18
REMARK                            x       y       z     vdW  Elec       q    Type
REMARK                         _______ _______ _______ _____ _____    ______ ____
ROOT
ATOM      1  C   UNL     1       8.106  -3.504  25.408  0.00  0.00    +0.325 C 
ENDROOT
BRANCH   1   2
ATOM      2  C   UNL     1       9.288  -4.432  25.747  0.00  0.00    +0.350 C 
ATOM      3  O   UNL     1      10.129  -4.779  24.920  0.00  0.00    -0.247 OA
BRANCH   2   4
ATOM      4  O   UNL     1       9.434  -4.780  27.041  0.00  0.00    -0.478 OA
ATOM      5  H   UNL     1      10.097  -5.493  27.191  0.00  0.00    +0.295 HD
ENDBRANCH   2   4
ENDBRANCH   1   2
BRANCH   1   6
ATOM      6  O   UNL     1       8.563  -2.743  24.283  0.00  0.00    -0.444 OA
BRANCH   6   9
ATOM      7  C   UNL     1       9.633   0.550  24.349  0.00  0.00    +0.224 A 
ATOM      8  N   UNL     1       9.634  -0.784  24.432  0.00  0.00    -0.159 NA
ATOM      9  C   UNL     1       8.449  -1.385  24.319  0.00  0.00    +0.325 A 
ATOM     10  N   UNL     1       7.287  -0.786  24.047  0.00  0.00    -0.159 NA
ATOM     11  C   UNL     1       7.345   0.557  23.994  0.00  0.00    +0.224 A 
ATOM     12  C   UNL     1       8.499   1.289  24.143  0.00  0.00    +0.134 A 
BRANCH   7  14
ATOM     13  C   UNL     1      10.835   2.453  23.721  0.00  0.00    +0.279 C 
ATOM     14  O   UNL     1      10.827   1.231  24.462  0.00  0.00    -0.479 OA
ENDBRANCH   7  14
BRANCH  11  15
ATOM     15  O   UNL     1       6.195   1.287  23.761  0.00  0.00    -0.479 OA
ATOM     16  C   UNL     1       5.390   1.467  24.922  0.00  0.00    +0.279 C 
ENDBRANCH  11  15
ENDBRANCH   6   9
ENDBRANCH   1   6
BRANCH   1  17
ATOM     17  C   UNL     1       6.729  -4.220  25.057  0.00  0.00    +0.166 C 
BRANCH  17  18
ATOM     18  C   UNL     1       6.687  -4.580  23.544  0.00  0.00    -0.007 A 
ATOM     19  C   UNL     1       7.182  -5.810  23.070  0.00  0.00    +0.007 A 
ATOM     20  C   UNL     1       6.927  -6.245  21.764  0.00  0.00    +0.000 A 
ATOM     21  C   UNL     1       6.228  -5.439  20.884  0.00  0.00    +0.000 A 
ATOM     22  C   UNL     1       5.818  -4.173  21.280  0.00  0.00    +0.000 A 
ATOM     23  C   UNL     1       6.050  -3.742  22.600  0.00  0.00    +0.007 A 
ENDBRANCH  17  18
BRANCH  17  24
ATOM     24  C   UNL     1       5.466  -3.413  25.504  0.00  0.00    -0.007 A 
ATOM     25  C   UNL     1       4.176  -3.790  25.080  0.00  0.00    +0.007 A 
ATOM     26  C   UNL     1       3.027  -3.289  25.714  0.00  0.00    +0.000 A 
ATOM     27  C   UNL     1       3.137  -2.362  26.749  0.00  0.00    +0.000 A 
ATOM     28  C   UNL     1       4.388  -1.878  27.090  0.00  0.00    +0.000 A 
ATOM     29  C   UNL     1       5.525  -2.376  26.452  0.00  0.00    +0.007 A 
ENDBRANCH  17  24
BRANCH  17  30
ATOM     30  O   UNL     1       6.721  -5.512  25.771  0.00  0.00    -0.363 OA
ATOM     31  C   UNL     1       6.090  -5.587  27.048  0.00  0.00    +0.195 C 
ENDBRANCH  17  30
ENDBRANCH   1  17
TORSDOF 10
ENDMDL
MODEL 6
REMARK VINA RESULT:      -6.3      2.449      6.098
REMARK  Name = 
REMARK  13 active torsions:
REMARK  status: ('A' for Active; 'I' for Inactive)
REMARK    1  A    between atoms: C_1  and  O_2
REMARK    2  A    between atoms: O_2  and  C_3
REMARK    3  A    between atoms: C_5  and  O_6
REMARK    4  A    between atoms: O_6  and  C_7
REMARK    5  A    between atoms: C_9  and  O_10
REMARK    6  A    between atoms: O_10  and  C_11
REMARK    7  A    between atoms: C_11  and  C_13
REMARK    8  A    between atoms: C_11  and  C_16
REMARK    9  A    between atoms: C_13  and  O_14
REMARK   10  A    between atoms: C_16  and  O_17
REMARK   11  A    between atoms: C_16  and  C_19
REMARK   12  A    between atoms: C_16  and  C_25
REMARK   13  A    between atoms: O_17  and  C_18
REMARK                            x       y       z     vdW  Elec       q    Type
REMARK                         _______ _______ _______ _____ _____    ______ ____
ROOT
ATOM      1  C   UNL     1       8.146  -3.659  25.416  0.00  0.00    +0.325 C 
ENDROOT
BRANCH   1   2
ATOM      2  C   UNL     1       9.365  -4.541  25.744  0.00  0.00    +0.350 C 
ATOM      3  O   UNL     1      10.194  -4.883  24.904  0.00  0.00    -0.247 OA
BRANCH   2   4
ATOM      4  O   UNL     1       9.558  -4.851  27.043  0.00  0.00    -0.478 OA
ATOM      5  H   UNL     1       9.067  -5.651  27.340  0.00  0.00    +0.295 HD
ENDBRANCH   2   4
ENDBRANCH   1   2
BRANCH   1   6
ATOM      6  O   UNL     1       8.468  -3.064  24.154  0.00  0.00    -0.444 OA
BRANCH   6   9
ATOM      7  C   UNL     1       7.384   0.220  23.974  0.00  0.00    +0.224 A 
ATOM      8  N   UNL     1       7.390  -1.115  23.933  0.00  0.00    -0.159 NA
ATOM      9  C   UNL     1       8.576  -1.706  24.076  0.00  0.00    +0.325 A 
ATOM     10  N   UNL     1       9.733  -1.093  24.338  0.00  0.00    -0.159 NA
ATOM     11  C   UNL     1       9.668   0.250  24.348  0.00  0.00    +0.224 A 
ATOM     12  C   UNL     1       8.512   0.972  24.166  0.00  0.00    +0.134 A 
BRANCH   7  14
ATOM     13  C   UNL     1       5.656   1.343  25.077  0.00  0.00    +0.279 C 
ATOM     14  O   UNL     1       6.187   0.891  23.829  0.00  0.00    -0.479 OA
ENDBRANCH   7  14
BRANCH  11  15
ATOM     15  O   UNL     1      10.813   0.993  24.567  0.00  0.00    -0.479 OA
ATOM     16  C   UNL     1      10.841   2.221  23.846  0.00  0.00    +0.279 C 
ENDBRANCH  11  15
ENDBRANCH   6   9
ENDBRANCH   1   6
BRANCH   1  17
ATOM     17  C   UNL     1       6.744  -4.406  25.323  0.00  0.00    +0.166 C 
BRANCH  17  18
ATOM     18  C   UNL     1       6.434  -4.773  23.843  0.00  0.00    -0.007 A 
ATOM     19  C   UNL     1       5.731  -3.890  23.002  0.00  0.00    +0.007 A 
ATOM     20  C   UNL     1       5.663  -4.097  21.619  0.00  0.00    +0.000 A 
ATOM     21  C   UNL     1       6.241  -5.218  21.053  0.00  0.00    +0.000 A 
ATOM     22  C   UNL     1       6.851  -6.167  21.861  0.00  0.00    +0.000 A 
ATOM     23  C   UNL     1       6.943  -5.952  23.249  0.00  0.00    +0.007 A 
ENDBRANCH  17  18
BRANCH  17  24
ATOM     24  C   UNL     1       5.566  -3.624  25.993  0.00  0.00    -0.007 A 
ATOM     25  C   UNL     1       5.807  -2.469  26.764  0.00  0.00    +0.007 A 
ATOM     26  C   UNL     1       4.766  -1.587  27.096  0.00  0.00    +0.000 A 
ATOM     27  C   UNL     1       3.455  -1.863  26.714  0.00  0.00    +0.000 A 
ATOM     28  C   UNL     1       3.177  -3.057  26.074  0.00  0.00    +0.000 A 
ATOM     29  C   UNL     1       4.216  -3.932  25.750  0.00  0.00    +0.007 A 
ENDBRANCH  17  24
BRANCH  17  30
ATOM     30  O   UNL     1       6.894  -5.694  26.027  0.00  0.00    -0.363 OA
ATOM     31  C   UNL     1       6.288  -5.852  27.309  0.00  0.00    +0.195 C 
ENDBRANCH  17  30
ENDBRANCH   1  17
TORSDOF 10
ENDMDL
MODEL 7
REMARK VINA RESULT:      -6.2      3.252      6.843
REMARK  Name = 
REMARK  13 active torsions:
REMARK  status: ('A' for Active; 'I' for Inactive)
REMARK    1  A    between atoms: C_1  and  O_2
REMARK    2  A    between atoms: O_2  and  C_3
REMARK    3  A    between atoms: C_5  and  O_6
REMARK    4  A    between atoms: O_6  and  C_7
REMARK    5  A    between atoms: C_9  and  O_10
REMARK    6  A    between atoms: O_10  and  C_11
REMARK    7  A    between atoms: C_11  and  C_13
REMARK    8  A    between atoms: C_11  and  C_16
REMARK    9  A    between atoms: C_13  and  O_14
REMARK   10  A    between atoms: C_16  and  O_17
REMARK   11  A    between atoms: C_16  and  C_19
REMARK   12  A    between atoms: C_16  and  C_25
REMARK   13  A    between atoms: O_17  and  C_18
REMARK                            x       y       z     vdW  Elec       q    Type
REMARK                         _______ _______ _______ _____ _____    ______ ____
ROOT
ATOM      1  C   UNL     1       8.446  -1.468  23.532  0.00  0.00    +0.325 C 
ENDROOT
BRANCH   1   2
ATOM      2  C   UNL     1       9.713  -1.943  22.794  0.00  0.00    +0.350 C 
ATOM      3  O   UNL     1      10.569  -2.654  23.316  0.00  0.00    -0.247 OA
BRANCH   2   4
ATOM      4  O   UNL     1       9.805  -1.630  21.486  0.00  0.00    -0.478 OA
ATOM      5  H   UNL     1      10.325  -0.814  21.306  0.00  0.00    +0.295 HD
ENDBRANCH   2   4
ENDBRANCH   1   2
BRANCH   1   6
ATOM      6  O   UNL     1       7.737  -0.694  22.558  0.00  0.00    -0.444 OA
BRANCH   6   9
ATOM      7  C   UNL     1       6.725   2.617  22.477  0.00  0.00    +0.224 A 
ATOM      8  N   UNL     1       6.714   1.286  22.358  0.00  0.00    -0.159 NA
ATOM      9  C   UNL     1       7.872   0.663  22.571  0.00  0.00    +0.325 A 
ATOM     10  N   UNL     1       9.010   1.235  22.972  0.00  0.00    -0.159 NA
ATOM     11  C   UNL     1       8.966   2.577  23.056  0.00  0.00    +0.224 A 
ATOM     12  C   UNL     1       7.842   3.332  22.815  0.00  0.00    +0.134 A 
BRANCH   7  14
ATOM     13  C   UNL     1       4.582   3.085  23.284  0.00  0.00    +0.279 C 
ATOM     14  O   UNL     1       5.557   3.320  22.266  0.00  0.00    -0.479 OA
ENDBRANCH   7  14
BRANCH  11  15
ATOM     15  O   UNL     1      10.097   3.281  23.422  0.00  0.00    -0.479 OA
ATOM     16  C   UNL     1       9.819   4.584  23.926  0.00  0.00    +0.279 C 
ENDBRANCH  11  15
ENDBRANCH   6   9
ENDBRANCH   1   6
BRANCH   1  17
ATOM     17  C   UNL     1       7.502  -2.611  24.111  0.00  0.00    +0.166 C 
BRANCH  17  18
ATOM     18  C   UNL     1       7.197  -3.661  23.005  0.00  0.00    -0.007 A 
ATOM     19  C   UNL     1       7.659  -4.988  23.107  0.00  0.00    +0.007 A 
ATOM     20  C   UNL     1       7.188  -5.992  22.254  0.00  0.00    +0.000 A 
ATOM     21  C   UNL     1       6.295  -5.688  21.243  0.00  0.00    +0.000 A 
ATOM     22  C   UNL     1       5.900  -4.372  21.041  0.00  0.00    +0.000 A 
ATOM     23  C   UNL     1       6.351  -3.363  21.911  0.00  0.00    +0.007 A 
ENDBRANCH  17  18
BRANCH  17  24
ATOM     24  C   UNL     1       6.196  -2.070  24.784  0.00  0.00    -0.007 A 
ATOM     25  C   UNL     1       5.113  -2.928  25.060  0.00  0.00    +0.007 A 
ATOM     26  C   UNL     1       4.086  -2.542  25.936  0.00  0.00    +0.000 A 
ATOM     27  C   UNL     1       4.087  -1.274  26.513  0.00  0.00    +0.000 A 
ATOM     28  C   UNL     1       5.068  -0.369  26.150  0.00  0.00    +0.000 A 
ATOM     29  C   UNL     1       6.085  -0.758  25.275  0.00  0.00    +0.007 A 
ENDBRANCH  17  24
BRANCH  17  30
ATOM     30  O   UNL     1       8.279  -3.332  25.138  0.00  0.00    -0.363 OA
ATOM     31  C   UNL     1       8.595  -2.662  26.358  0.00  0.00    +0.195 C 
ENDBRANCH  17  30
ENDBRANCH   1  17
TORSDOF 10
ENDMDL
MODEL 8
REMARK VINA RESULT:      -6.2      3.168      6.191
REMARK  Name = 
REMARK  13 active torsions:
REMARK  status: ('A' for Active; 'I' for Inactive)
REMARK    1  A    between atoms: C_1  and  O_2
REMARK    2  A    between atoms: O_2  and  C_3
REMARK    3  A    between atoms: C_5  and  O_6
REMARK    4  A    between atoms: O_6  and  C_7
REMARK    5  A    between atoms: C_9  and  O_10
REMARK    6  A    between atoms: O_10  and  C_11
REMARK    7  A    between atoms: C_11  and  C_13
REMARK    8  A    between atoms: C_11  and  C_16
REMARK    9  A    between atoms: C_13  and  O_14
REMARK   10  A    between atoms: C_16  and  O_17
REMARK   11  A    between atoms: C_16  and  C_19
REMARK   12  A    between atoms: C_16  and  C_25
REMARK   13  A    between atoms: O_17  and  C_18
REMARK                            x       y       z     vdW  Elec       q    Type
REMARK                         _______ _______ _______ _____ _____    ______ ____
ROOT
ATOM      1  C   UNL     1       7.755  -0.138  23.672  0.00  0.00    +0.325 C 
ENDROOT
BRANCH   1   2
ATOM      2  C   UNL     1       7.560   0.744  22.425  0.00  0.00    +0.350 C 
ATOM      3  O   UNL     1       8.388   0.822  21.520  0.00  0.00    -0.247 OA
BRANCH   2   4
ATOM      4  O   UNL     1       6.371   1.368  22.303  0.00  0.00    -0.478 OA
ATOM      5  H   UNL     1       5.598   0.758  22.304  0.00  0.00    +0.295 HD
ENDBRANCH   2   4
ENDBRANCH   1   2
BRANCH   1   6
ATOM      6  O   UNL     1       8.721  -1.115  23.269  0.00  0.00    -0.444 OA
BRANCH   6   9
ATOM      7  C   UNL     1       8.364  -4.488  23.973  0.00  0.00    +0.224 A 
ATOM      8  N   UNL     1       8.809  -3.228  24.003  0.00  0.00    -0.159 NA
ATOM      9  C   UNL     1       8.314  -2.403  23.080  0.00  0.00    +0.325 A 
ATOM     10  N   UNL     1       7.361  -2.699  22.192  0.00  0.00    -0.159 NA
ATOM     11  C   UNL     1       6.967  -3.985  22.196  0.00  0.00    +0.224 A 
ATOM     12  C   UNL     1       7.440  -4.937  23.069  0.00  0.00    +0.134 A 
BRANCH   7  14
ATOM     13  C   UNL     1       8.125  -5.338  26.136  0.00  0.00    +0.279 C 
ATOM     14  O   UNL     1       8.841  -5.391  24.900  0.00  0.00    -0.479 OA
ENDBRANCH   7  14
BRANCH  11  15
ATOM     15  O   UNL     1       6.015  -4.416  21.292  0.00  0.00    -0.479 OA
ATOM     16  C   UNL     1       6.121  -5.800  20.971  0.00  0.00    +0.279 C 
ENDBRANCH  11  15
ENDBRANCH   6   9
ENDBRANCH   1   6
BRANCH   1  17
ATOM     17  C   UNL     1       8.251   0.607  24.988  0.00  0.00    +0.166 C 
BRANCH  17  18
ATOM     18  C   UNL     1       7.057   0.818  25.962  0.00  0.00    -0.007 A 
ATOM     19  C   UNL     1       7.219   1.508  27.180  0.00  0.00    +0.007 A 
ATOM     20  C   UNL     1       6.117   1.917  27.939  0.00  0.00    +0.000 A 
ATOM     21  C   UNL     1       4.834   1.597  27.535  0.00  0.00    +0.000 A 
ATOM     22  C   UNL     1       4.637   0.826  26.398  0.00  0.00    +0.000 A 
ATOM     23  C   UNL     1       5.741   0.432  25.618  0.00  0.00    +0.007 A 
ENDBRANCH  17  18
BRANCH  17  24
ATOM     24  C   UNL     1       9.023   1.939  24.706  0.00  0.00    -0.007 A 
ATOM     25  C   UNL     1      10.317   1.925  24.149  0.00  0.00    +0.007 A 
ATOM     26  C   UNL     1      10.884   3.086  23.600  0.00  0.00    +0.000 A 
ATOM     27  C   UNL     1      10.197   4.297  23.641  0.00  0.00    +0.000 A 
ATOM     28  C   UNL     1       8.984   4.362  24.304  0.00  0.00    +0.000 A 
ATOM     29  C   UNL     1       8.427   3.204  24.852  0.00  0.00    +0.007 A 
ENDBRANCH  17  24
BRANCH  17  30
ATOM     30  O   UNL     1       9.171  -0.314  25.684  0.00  0.00    -0.363 OA
ATOM     31  C   UNL     1       8.659  -1.132  26.735  0.00  0.00    +0.195 C 
ENDBRANCH  17  30
ENDBRANCH   1  17
TORSDOF 10
ENDMDL
MODEL 9
REMARK VINA RESULT:      -6.1      2.348      6.057
REMARK  Name = 
REMARK  13 active torsions:
REMARK  status: ('A' for Active; 'I' for Inactive)
REMARK    1  A    between atoms: C_1  and  O_2
REMARK    2  A    between atoms: O_2  and  C_3
REMARK    3  A    between atoms: C_5  and  O_6
REMARK    4  A    between atoms: O_6  and  C_7
REMARK    5  A    between atoms: C_9  and  O_10
REMARK    6  A    between atoms: O_10  and  C_11
REMARK    7  A    between atoms: C_11  and  C_13
REMARK    8  A    between atoms: C_11  and  C_16
REMARK    9  A    between atoms: C_13  and  O_14
REMARK   10  A    between atoms: C_16  and  O_17
REMARK   11  A    between atoms: C_16  and  C_19
REMARK   12  A    between atoms: C_16  and  C_25
REMARK   13  A    between atoms: O_17  and  C_18
REMARK                            x       y       z     vdW  Elec       q    Type
REMARK                         _______ _______ _______ _____ _____    ______ ____
ROOT
ATOM      1  C   UNL     1       6.461  -4.307  26.200  0.00  0.00    +0.325 C 
ENDROOT
BRANCH   1   2
ATOM      2  C   UNL     1       7.163  -5.232  27.213  0.00  0.00    +0.350 C 
ATOM      3  O   UNL     1       6.804  -5.343  28.383  0.00  0.00    -0.247 OA
BRANCH   2   4
ATOM      4  O   UNL     1       8.148  -6.018  26.734  0.00  0.00    -0.478 OA
ATOM      5  H   UNL     1       8.472  -6.689  27.377  0.00  0.00    +0.295 HD
ENDBRANCH   2   4
ENDBRANCH   1   2
BRANCH   1   6
ATOM      6  O   UNL     1       7.498  -3.930  25.286  0.00  0.00    -0.444 OA
BRANCH   6   9
ATOM      7  C   UNL     1       7.997  -0.748  26.558  0.00  0.00    +0.224 A 
ATOM      8  N   UNL     1       7.482  -1.964  26.355  0.00  0.00    -0.159 NA
ATOM      9  C   UNL     1       7.987  -2.658  25.335  0.00  0.00    +0.325 A 
ATOM     10  N   UNL     1       9.007  -2.285  24.559  0.00  0.00    -0.159 NA
ATOM     11  C   UNL     1       9.471  -1.045  24.797  0.00  0.00    +0.224 A 
ATOM     12  C   UNL     1       8.999  -0.218  25.790  0.00  0.00    +0.134 A 
BRANCH   7  14
ATOM     13  C   UNL     1       7.007   1.282  27.157  0.00  0.00    +0.279 C 
ATOM     14  O   UNL     1       7.515   0.021  27.597  0.00  0.00    -0.479 OA
ENDBRANCH   7  14
BRANCH  11  15
ATOM     15  O   UNL     1      10.500  -0.535  24.028  0.00  0.00    -0.479 OA
ATOM     16  C   UNL     1      10.920   0.765  24.430  0.00  0.00    +0.279 C 
ENDBRANCH  11  15
ENDBRANCH   6   9
ENDBRANCH   1   6
BRANCH   1  17
ATOM     17  C   UNL     1       5.237  -4.938  25.404  0.00  0.00    +0.166 C 
BRANCH  17  18
ATOM     18  C   UNL     1       5.464  -4.788  23.872  0.00  0.00    -0.007 A 
ATOM     19  C   UNL     1       5.290  -3.550  23.224  0.00  0.00    +0.007 A 
ATOM     20  C   UNL     1       5.725  -3.346  21.910  0.00  0.00    +0.000 A 
ATOM     21  C   UNL     1       6.289  -4.385  21.193  0.00  0.00    +0.000 A 
ATOM     22  C   UNL     1       6.379  -5.650  21.759  0.00  0.00    +0.000 A 
ATOM     23  C   UNL     1       5.964  -5.854  23.089  0.00  0.00    +0.007 A 
ENDBRANCH  17  18
BRANCH  17  24
ATOM     24  C   UNL     1       3.842  -4.384  25.848  0.00  0.00    -0.007 A 
ATOM     25  C   UNL     1       3.702  -3.634  27.033  0.00  0.00    +0.007 A 
ATOM     26  C   UNL     1       2.550  -2.870  27.277  0.00  0.00    +0.000 A 
ATOM     27  C   UNL     1       1.490  -2.878  26.373  0.00  0.00    +0.000 A 
ATOM     28  C   UNL     1       1.551  -3.712  25.271  0.00  0.00    +0.000 A 
ATOM     29  C   UNL     1       2.698  -4.473  25.035  0.00  0.00    +0.007 A 
ENDBRANCH  17  24
BRANCH  17  30
ATOM     30  O   UNL     1       5.255  -6.390  25.666  0.00  0.00    -0.363 OA
ATOM     31  C   UNL     1       4.131  -6.986  26.315  0.00  0.00    +0.195 C 
ENDBRANCH  17  30
ENDBRANCH   1  17
TORSDOF 10
ENDMDL
