MODEL 1
REMARK VINA RESULT:      -6.7      0.000      0.000
REMARK  Name = 
REMARK  7 active torsions:
REMARK  status: ('A' for Active; 'I' for Inactive)
REMARK    1  A    between atoms: C_1  and  N_2
REMARK    2  A    between atoms: N_2  and  C_3
REMARK    3  A    between atoms: N_2  and  S_4
REMARK    4  A    between atoms: S_4  and  N_7
REMARK    5  A    between atoms: N_10  and  C_13
REMARK    6  A    between atoms: C_17  and  C_18
REMARK    7  A    between atoms: C_18  and  O_19
REMARK                            x       y       z     vdW  Elec       q    Type
REMARK                         _______ _______ _______ _____ _____    ______ ____
ROOT
ATOM      1  N   UNL     1       9.011  -0.620  23.812  0.00  0.00    -0.163 NA
ATOM      2  C   UNL     1       7.959   0.421  23.629  0.00  0.00    +0.129 C 
ATOM      3  C   UNL     1       8.541   1.734  23.049  0.00  0.00    +0.123 C 
ATOM      4  N   UNL     1       9.673   2.215  23.873  0.00  0.00    -0.313 N 
ATOM      5  C   UNL     1      10.729   1.200  24.103  0.00  0.00    +0.123 C 
ATOM      6  C   UNL     1      10.117  -0.096  24.670  0.00  0.00    +0.129 C 
ENDROOT
BRANCH   4   7
ATOM      7  C   UNL     1      10.101   3.542  23.806  0.00  0.00    +0.125 A 
ATOM      8  N   UNL     1      11.271   3.816  23.192  0.00  0.00    -0.215 NA
ATOM      9  C   UNL     1      11.747   5.079  23.226  0.00  0.00    +0.156 A 
ATOM     10  N   UNL     1      11.144   6.114  23.843  0.00  0.00    -0.238 NA
ATOM     11  C   UNL     1       9.982   5.825  24.437  0.00  0.00    +0.116 A 
ATOM     12  C   UNL     1       9.416   4.568  24.439  0.00  0.00    +0.063 A 
BRANCH   9  13
ATOM     13  C   UNL     1      13.062   5.376  22.532  0.00  0.00    +0.231 C 
BRANCH  13  14
ATOM     14  O   UNL     1      14.198   4.968  23.311  0.00  0.00    -0.387 OA
ATOM     15  H   UNL     1      14.068   4.009  23.461  0.00  0.00    +0.210 HD
ENDBRANCH  13  14
ENDBRANCH   9  13
ENDBRANCH   4   7
BRANCH   1  16
ATOM     16  S   UNL     1       9.472  -1.479  22.436  0.00  0.00    +0.099 S 
ATOM     17  O   UNL     1       9.001  -0.785  21.262  0.00  0.00    -0.141 OA
ATOM     18  O   UNL     1      10.854  -1.881  22.579  0.00  0.00    -0.141 OA
BRANCH  16  20
ATOM     19  C   UNL     1       8.654  -3.460  23.980  0.00  0.00    +0.132 C 
ATOM     20  N   UNL     1       8.526  -2.883  22.617  0.00  0.00    -0.172 NA
ATOM     21  C   UNL     1       7.100  -2.743  22.246  0.00  0.00    +0.132 C 
ENDBRANCH  16  20
ENDBRANCH   1  16
TORSDOF 5
ENDMDL
MODEL 2
REMARK VINA RESULT:      -6.4      1.054      1.525
REMARK  Name = 
REMARK  7 active torsions:
REMARK  status: ('A' for Active; 'I' for Inactive)
REMARK    1  A    between atoms: C_1  and  N_2
REMARK    2  A    between atoms: N_2  and  C_3
REMARK    3  A    between atoms: N_2  and  S_4
REMARK    4  A    between atoms: S_4  and  N_7
REMARK    5  A    between atoms: N_10  and  C_13
REMARK    6  A    between atoms: C_17  and  C_18
REMARK    7  A    between atoms: C_18  and  O_19
REMARK                            x       y       z     vdW  Elec       q    Type
REMARK                         _______ _______ _______ _____ _____    ______ ____
ROOT
ATOM      1  N   UNL     1       8.640  -0.237  22.932  0.00  0.00    -0.163 NA
ATOM      2  C   UNL     1       9.131   0.558  21.769  0.00  0.00    +0.129 C 
ATOM      3  C   UNL     1      10.110   1.675  22.207  0.00  0.00    +0.123 C 
ATOM      4  N   UNL     1       9.501   2.526  23.254  0.00  0.00    -0.313 N 
ATOM      5  C   UNL     1       8.973   1.772  24.416  0.00  0.00    +0.123 C 
ATOM      6  C   UNL     1       8.012   0.662  23.947  0.00  0.00    +0.129 C 
ENDROOT
BRANCH   4   7
ATOM      7  C   UNL     1       9.996   3.803  23.524  0.00  0.00    +0.125 A 
ATOM      8  N   UNL     1      11.205   4.146  23.033  0.00  0.00    -0.215 NA
ATOM      9  C   UNL     1      11.741   5.334  23.386  0.00  0.00    +0.156 A 
ATOM     10  N   UNL     1      11.162   6.226  24.214  0.00  0.00    -0.238 NA
ATOM     11  C   UNL     1       9.961   5.872  24.682  0.00  0.00    +0.116 A 
ATOM     12  C   UNL     1       9.334   4.686  24.362  0.00  0.00    +0.063 A 
BRANCH   9  13
ATOM     13  C   UNL     1      13.099   5.711  22.828  0.00  0.00    +0.231 C 
BRANCH  13  14
ATOM     14  O   UNL     1      14.141   4.833  23.283  0.00  0.00    -0.387 OA
ATOM     15  H   UNL     1      13.675   4.030  23.594  0.00  0.00    +0.210 HD
ENDBRANCH  13  14
ENDBRANCH   9  13
ENDBRANCH   4   7
BRANCH   1  16
ATOM     16  S   UNL     1       9.674  -1.430  23.524  0.00  0.00    +0.099 S 
ATOM     17  O   UNL     1      10.540  -1.879  22.460  0.00  0.00    -0.141 OA
ATOM     18  O   UNL     1      10.199  -1.000  24.801  0.00  0.00    -0.141 OA
BRANCH  16  20
ATOM     19  C   UNL     1       7.784  -3.041  22.625  0.00  0.00    +0.132 C 
ATOM     20  N   UNL     1       8.559  -2.678  23.840  0.00  0.00    -0.172 NA
ATOM     21  C   UNL     1       9.122  -3.889  24.476  0.00  0.00    +0.132 C 
ENDBRANCH  16  20
ENDBRANCH   1  16
TORSDOF 5
ENDMDL
MODEL 3
REMARK VINA RESULT:      -6.3      2.374      7.411
REMARK  Name = 
REMARK  7 active torsions:
REMARK  status: ('A' for Active; 'I' for Inactive)
REMARK    1  A    between atoms: C_1  and  N_2
REMARK    2  A    between atoms: N_2  and  C_3
REMARK    3  A    between atoms: N_2  and  S_4
REMARK    4  A    between atoms: S_4  and  N_7
REMARK    5  A    between atoms: N_10  and  C_13
REMARK    6  A    between atoms: C_17  and  C_18
REMARK    7  A    between atoms: C_18  and  O_19
REMARK                            x       y       z     vdW  Elec       q    Type
REMARK                         _______ _______ _______ _____ _____    ______ ____
ROOT
ATOM      1  N   UNL     1       9.045   1.446  22.599  0.00  0.00    -0.163 NA
ATOM      2  C   UNL     1       7.600   1.090  22.705  0.00  0.00    +0.129 C 
ATOM      3  C   UNL     1       7.392  -0.267  23.421  0.00  0.00    +0.123 C 
ATOM      4  N   UNL     1       8.188  -1.332  22.769  0.00  0.00    -0.313 N 
ATOM      5  C   UNL     1       9.627  -1.006  22.618  0.00  0.00    +0.123 C 
ATOM      6  C   UNL     1       9.800   0.354  21.912  0.00  0.00    +0.129 C 
ENDROOT
BRANCH   4   7
ATOM      7  C   UNL     1       7.880  -2.680  22.958  0.00  0.00    +0.125 A 
ATOM      8  N   UNL     1       8.512  -3.358  23.940  0.00  0.00    -0.215 NA
ATOM      9  C   UNL     1       8.307  -4.688  24.052  0.00  0.00    +0.156 A 
ATOM     10  N   UNL     1       7.512  -5.417  23.244  0.00  0.00    -0.238 NA
ATOM     11  C   UNL     1       6.889  -4.726  22.284  0.00  0.00    +0.116 A 
ATOM     12  C   UNL     1       7.029  -3.366  22.106  0.00  0.00    +0.063 A 
BRANCH   9  13
ATOM     13  C   UNL     1       9.020  -5.439  25.159  0.00  0.00    +0.231 C 
BRANCH  13  14
ATOM     14  O   UNL     1      10.448  -5.313  25.076  0.00  0.00    -0.387 OA
ATOM     15  H   UNL     1      10.747  -6.131  24.627  0.00  0.00    +0.210 HD
ENDBRANCH  13  14
ENDBRANCH   9  13
ENDBRANCH   4   7
BRANCH   1  16
ATOM     16  S   UNL     1       9.765   2.106  23.974  0.00  0.00    +0.099 S 
ATOM     17  O   UNL     1       8.769   2.249  25.009  0.00  0.00    -0.141 OA
ATOM     18  O   UNL     1      11.019   1.428  24.214  0.00  0.00    -0.141 OA
BRANCH  16  20
ATOM     19  C   UNL     1       9.384   4.714  24.134  0.00  0.00    +0.132 C 
ATOM     20  N   UNL     1      10.144   3.666  23.406  0.00  0.00    -0.172 NA
ATOM     21  C   UNL     1      11.586   3.999  23.376  0.00  0.00    +0.132 C 
ENDBRANCH  16  20
ENDBRANCH   1  16
TORSDOF 5
ENDMDL
MODEL 4
REMARK VINA RESULT:      -6.2      2.500      7.171
REMARK  Name = 
REMARK  7 active torsions:
REMARK  status: ('A' for Active; 'I' for Inactive)
REMARK    1  A    between atoms: C_1  and  N_2
REMARK    2  A    between atoms: N_2  and  C_3
REMARK    3  A    between atoms: N_2  and  S_4
REMARK    4  A    between atoms: S_4  and  N_7
REMARK    5  A    between atoms: N_10  and  C_13
REMARK    6  A    between atoms: C_17  and  C_18
REMARK    7  A    between atoms: C_18  and  O_19
REMARK                            x       y       z     vdW  Elec       q    Type
REMARK                         _______ _______ _______ _____ _____    ______ ____
ROOT
ATOM      1  N   UNL     1       9.962   1.782  24.514  0.00  0.00    -0.163 NA
ATOM      2  C   UNL     1      10.922   0.641  24.546  0.00  0.00    +0.129 C 
ATOM      3  C   UNL     1      10.407  -0.569  23.728  0.00  0.00    +0.123 C 
ATOM      4  N   UNL     1       9.049  -0.961  24.170  0.00  0.00    -0.313 N 
ATOM      5  C   UNL     1       8.070   0.152  24.180  0.00  0.00    +0.123 C 
ATOM      6  C   UNL     1       8.616   1.343  24.992  0.00  0.00    +0.129 C 
ENDROOT
BRANCH   4   7
ATOM      7  C   UNL     1       8.536  -2.228  23.886  0.00  0.00    +0.125 A 
ATOM      8  N   UNL     1       8.950  -3.276  24.629  0.00  0.00    -0.215 NA
ATOM      9  C   UNL     1       8.550  -4.519  24.285  0.00  0.00    +0.156 A 
ATOM     10  N   UNL     1       7.759  -4.812  23.235  0.00  0.00    -0.238 NA
ATOM     11  C   UNL     1       7.351  -3.760  22.518  0.00  0.00    +0.116 A 
ATOM     12  C   UNL     1       7.700  -2.457  22.805  0.00  0.00    +0.063 A 
BRANCH   9  13
ATOM     13  C   UNL     1       9.020  -5.689  25.127  0.00  0.00    +0.231 C 
BRANCH  13  14
ATOM     14  O   UNL     1      10.418  -5.610  25.444  0.00  0.00    -0.387 OA
ATOM     15  H   UNL     1      10.447  -5.341  26.386  0.00  0.00    +0.210 HD
ENDBRANCH  13  14
ENDBRANCH   9  13
ENDBRANCH   4   7
BRANCH   1  16
ATOM     16  S   UNL     1       9.988   2.754  23.135  0.00  0.00    +0.099 S 
ATOM     17  O   UNL     1      11.075   3.697  23.240  0.00  0.00    -0.141 OA
ATOM     18  O   UNL     1       9.819   1.914  21.970  0.00  0.00    -0.141 OA
BRANCH  16  20
ATOM     19  C   UNL     1       8.788   5.046  23.663  0.00  0.00    +0.132 C 
ATOM     20  N   UNL     1       8.535   3.619  23.338  0.00  0.00    -0.172 NA
ATOM     21  C   UNL     1       7.565   3.505  22.226  0.00  0.00    +0.132 C 
ENDBRANCH  16  20
ENDBRANCH   1  16
TORSDOF 5
ENDMDL
MODEL 5
REMARK VINA RESULT:      -6.1      3.551      8.576
REMARK  Name = 
REMARK  7 active torsions:
REMARK  status: ('A' for Active; 'I' for Inactive)
REMARK    1  A    between atoms: C_1  and  N_2
REMARK    2  A    between atoms: N_2  and  C_3
REMARK    3  A    between atoms: N_2  and  S_4
REMARK    4  A    between atoms: S_4  and  N_7
REMARK    5  A    between atoms: N_10  and  C_13
REMARK    6  A    between atoms: C_17  and  C_18
REMARK    7  A    between atoms: C_18  and  O_19
REMARK                            x       y       z     vdW  Elec       q    Type
REMARK                         _______ _______ _______ _____ _____    ______ ____
ROOT
ATOM      1  N   UNL     1       8.250  -0.945  23.128  0.00  0.00    -0.163 NA
ATOM      2  C   UNL     1       7.573  -0.707  24.436  0.00  0.00    +0.129 C 
ATOM      3  C   UNL     1       7.699  -1.928  25.381  0.00  0.00    +0.123 C 
ATOM      4  N   UNL     1       7.220  -3.159  24.714  0.00  0.00    -0.313 N 
ATOM      5  C   UNL     1       7.847  -3.418  23.396  0.00  0.00    +0.123 C 
ATOM      6  C   UNL     1       7.714  -2.182  22.484  0.00  0.00    +0.129 C 
ENDROOT
BRANCH   4   7
ATOM      7  C   UNL     1       6.858  -4.286  25.454  0.00  0.00    +0.125 A 
ATOM      8  N   UNL     1       5.829  -5.044  25.019  0.00  0.00    -0.215 NA
ATOM      9  C   UNL     1       5.399  -6.066  25.790  0.00  0.00    +0.156 A 
ATOM     10  N   UNL     1       5.916  -6.399  26.989  0.00  0.00    -0.238 NA
ATOM     11  C   UNL     1       6.940  -5.642  27.397  0.00  0.00    +0.116 A 
ATOM     12  C   UNL     1       7.452  -4.590  26.668  0.00  0.00    +0.063 A 
BRANCH   9  13
ATOM     13  C   UNL     1       4.243  -6.911  25.293  0.00  0.00    +0.231 C 
BRANCH  13  14
ATOM     14  O   UNL     1       4.521  -7.530  24.027  0.00  0.00    -0.387 OA
ATOM     15  H   UNL     1       5.478  -7.383  23.880  0.00  0.00    +0.210 HD
ENDBRANCH  13  14
ENDBRANCH   9  13
ENDBRANCH   4   7
BRANCH   1  16
ATOM     16  S   UNL     1       9.924  -0.747  23.096  0.00  0.00    +0.099 S 
ATOM     17  O   UNL     1      10.403  -0.526  24.440  0.00  0.00    -0.141 OA
ATOM     18  O   UNL     1      10.497  -1.764  22.242  0.00  0.00    -0.141 OA
BRANCH  16  20
ATOM     19  C   UNL     1       8.913   0.920  21.314  0.00  0.00    +0.132 C 
ATOM     20  N   UNL     1      10.045   0.730  22.258  0.00  0.00    -0.172 NA
ATOM     21  C   UNL     1      10.219   1.931  23.105  0.00  0.00    +0.132 C 
ENDBRANCH  16  20
ENDBRANCH   1  16
TORSDOF 5
ENDMDL
MODEL 6
REMARK VINA RESULT:      -6.1      3.925      5.972
REMARK  Name = 
REMARK  7 active torsions:
REMARK  status: ('A' for Active; 'I' for Inactive)
REMARK    1  A    between atoms: C_1  and  N_2
REMARK    2  A    between atoms: N_2  and  C_3
REMARK    3  A    between atoms: N_2  and  S_4
REMARK    4  A    between atoms: S_4  and  N_7
REMARK    5  A    between atoms: N_10  and  C_13
REMARK    6  A    between atoms: C_17  and  C_18
REMARK    7  A    between atoms: C_18  and  O_19
REMARK                            x       y       z     vdW  Elec       q    Type
REMARK                         _______ _______ _______ _____ _____    ______ ____
ROOT
ATOM      1  N   UNL     1       7.339  -5.417  25.020  0.00  0.00    -0.163 NA
ATOM      2  C   UNL     1       8.826  -5.293  25.020  0.00  0.00    +0.129 C 
ATOM      3  C   UNL     1       9.282  -3.818  24.898  0.00  0.00    +0.123 C 
ATOM      4  N   UNL     1       8.662  -3.173  23.718  0.00  0.00    -0.313 N 
ATOM      5  C   UNL     1       7.185  -3.298  23.665  0.00  0.00    +0.123 C 
ATOM      6  C   UNL     1       6.764  -4.775  23.799  0.00  0.00    +0.129 C 
ENDROOT
BRANCH   4   7
ATOM      7  C   UNL     1       9.200  -2.009  23.166  0.00  0.00    +0.125 A 
ATOM      8  N   UNL     1       9.839  -1.143  23.980  0.00  0.00    -0.215 NA
ATOM      9  C   UNL     1      10.259   0.038  23.477  0.00  0.00    +0.156 A 
ATOM     10  N   UNL     1      10.085   0.439  22.202  0.00  0.00    -0.238 NA
ATOM     11  C   UNL     1       9.458  -0.438  21.410  0.00  0.00    +0.116 A 
ATOM     12  C   UNL     1       9.010  -1.669  21.837  0.00  0.00    +0.063 A 
BRANCH   9  13
ATOM     13  C   UNL     1      10.977   1.004  24.399  0.00  0.00    +0.231 C 
BRANCH  13  14
ATOM     14  O   UNL     1      10.859   2.367  23.964  0.00  0.00    -0.387 OA
ATOM     15  H   UNL     1      10.631   2.871  24.773  0.00  0.00    +0.210 HD
ENDBRANCH  13  14
ENDBRANCH   9  13
ENDBRANCH   4   7
BRANCH   1  16
ATOM     16  S   UNL     1       6.553  -5.095  26.477  0.00  0.00    +0.099 S 
ATOM     17  O   UNL     1       7.534  -4.978  27.530  0.00  0.00    -0.141 OA
ATOM     18  O   UNL     1       5.553  -4.075  26.252  0.00  0.00    -0.141 OA
BRANCH  16  20
ATOM     19  C   UNL     1       5.313  -6.742  28.128  0.00  0.00    +0.132 C 
ATOM     20  N   UNL     1       5.721  -6.562  26.711  0.00  0.00    -0.172 NA
ATOM     21  C   UNL     1       4.571  -6.794  25.808  0.00  0.00    +0.132 C 
ENDBRANCH  16  20
ENDBRANCH   1  16
TORSDOF 5
ENDMDL
MODEL 7
REMARK VINA RESULT:      -5.9      2.502      7.406
REMARK  Name = 
REMARK  7 active torsions:
REMARK  status: ('A' for Active; 'I' for Inactive)
REMARK    1  A    between atoms: C_1  and  N_2
REMARK    2  A    between atoms: N_2  and  C_3
REMARK    3  A    between atoms: N_2  and  S_4
REMARK    4  A    between atoms: S_4  and  N_7
REMARK    5  A    between atoms: N_10  and  C_13
REMARK    6  A    between atoms: C_17  and  C_18
REMARK    7  A    between atoms: C_18  and  O_19
REMARK                            x       y       z     vdW  Elec       q    Type
REMARK                         _______ _______ _______ _____ _____    ______ ____
ROOT
ATOM      1  N   UNL     1       9.725   1.521  24.636  0.00  0.00    -0.163 NA
ATOM      2  C   UNL     1      10.726   0.423  24.766  0.00  0.00    +0.129 C 
ATOM      3  C   UNL     1      10.356  -0.801  23.892  0.00  0.00    +0.123 C 
ATOM      4  N   UNL     1       8.977  -1.256  24.182  0.00  0.00    -0.313 N 
ATOM      5  C   UNL     1       7.954  -0.186  24.092  0.00  0.00    +0.123 C 
ATOM      6  C   UNL     1       8.357   1.019  24.964  0.00  0.00    +0.129 C 
ENDROOT
BRANCH   4   7
ATOM      7  C   UNL     1       8.555  -2.541  23.839  0.00  0.00    +0.125 A 
ATOM      8  N   UNL     1       7.634  -2.681  22.862  0.00  0.00    -0.215 NA
ATOM      9  C   UNL     1       7.135  -3.909  22.605  0.00  0.00    +0.156 A 
ATOM     10  N   UNL     1       7.480  -5.034  23.261  0.00  0.00    -0.238 NA
ATOM     11  C   UNL     1       8.399  -4.876  24.218  0.00  0.00    +0.116 A 
ATOM     12  C   UNL     1       8.972  -3.663  24.536  0.00  0.00    +0.063 A 
BRANCH   9  13
ATOM     13  C   UNL     1       6.102  -4.055  21.505  0.00  0.00    +0.231 C 
BRANCH  13  14
ATOM     14  O   UNL     1       5.727  -5.423  21.283  0.00  0.00    -0.387 OA
ATOM     15  H   UNL     1       5.019  -5.383  20.606  0.00  0.00    +0.210 HD
ENDBRANCH  13  14
ENDBRANCH   9  13
ENDBRANCH   4   7
BRANCH   1  16
ATOM     16  S   UNL     1       9.856   2.506  23.273  0.00  0.00    +0.099 S 
ATOM     17  O   UNL     1      10.943   3.437  23.462  0.00  0.00    -0.141 OA
ATOM     18  O   UNL     1       9.759   1.680  22.090  0.00  0.00    -0.141 OA
BRANCH  16  20
ATOM     19  C   UNL     1       8.645   4.802  23.761  0.00  0.00    +0.132 C 
ATOM     20  N   UNL     1       8.402   3.385  23.385  0.00  0.00    -0.172 NA
ATOM     21  C   UNL     1       7.519   3.309  22.200  0.00  0.00    +0.132 C 
ENDBRANCH  16  20
ENDBRANCH   1  16
TORSDOF 5
ENDMDL
MODEL 8
REMARK VINA RESULT:      -5.8      2.760      7.793
REMARK  Name = 
REMARK  7 active torsions:
REMARK  status: ('A' for Active; 'I' for Inactive)
REMARK    1  A    between atoms: C_1  and  N_2
REMARK    2  A    between atoms: N_2  and  C_3
REMARK    3  A    between atoms: N_2  and  S_4
REMARK    4  A    between atoms: S_4  and  N_7
REMARK    5  A    between atoms: N_10  and  C_13
REMARK    6  A    between atoms: C_17  and  C_18
REMARK    7  A    between atoms: C_18  and  O_19
REMARK                            x       y       z     vdW  Elec       q    Type
REMARK                         _______ _______ _______ _____ _____    ______ ____
ROOT
ATOM      1  N   UNL     1       9.146   1.144  22.693  0.00  0.00    -0.163 NA
ATOM      2  C   UNL     1       7.676   0.892  22.719  0.00  0.00    +0.129 C 
ATOM      3  C   UNL     1       7.321  -0.361  23.558  0.00  0.00    +0.123 C 
ATOM      4  N   UNL     1       8.087  -1.539  23.093  0.00  0.00    -0.313 N 
ATOM      5  C   UNL     1       9.552  -1.321  23.025  0.00  0.00    +0.123 C 
ATOM      6  C   UNL     1       9.871  -0.063  22.192  0.00  0.00    +0.129 C 
ENDROOT
BRANCH   4   7
ATOM      7  C   UNL     1       7.673  -2.836  23.401  0.00  0.00    +0.125 A 
ATOM      8  N   UNL     1       7.555  -3.733  22.399  0.00  0.00    -0.215 NA
ATOM      9  C   UNL     1       7.044  -4.953  22.671  0.00  0.00    +0.156 A 
ATOM     10  N   UNL     1       6.622  -5.359  23.884  0.00  0.00    -0.238 NA
ATOM     11  C   UNL     1       6.756  -4.460  24.864  0.00  0.00    +0.116 A 
ATOM     12  C   UNL     1       7.281  -3.199  24.679  0.00  0.00    +0.063 A 
BRANCH   9  13
ATOM     13  C   UNL     1       6.917  -5.953  21.539  0.00  0.00    +0.231 C 
BRANCH  13  14
ATOM     14  O   UNL     1       5.562  -6.381  21.334  0.00  0.00    -0.387 OA
ATOM     15  H   UNL     1       5.327  -6.056  20.440  0.00  0.00    +0.210 HD
ENDBRANCH  13  14
ENDBRANCH   9  13
ENDBRANCH   4   7
BRANCH   1  16
ATOM     16  S   UNL     1       9.806   1.910  24.042  0.00  0.00    +0.099 S 
ATOM     17  O   UNL     1       8.792   2.034  25.062  0.00  0.00    -0.141 OA
ATOM     18  O   UNL     1      11.100   1.327  24.323  0.00  0.00    -0.141 OA
BRANCH  16  20
ATOM     19  C   UNL     1       9.254   4.493  24.081  0.00  0.00    +0.132 C 
ATOM     20  N   UNL     1      10.090   3.465  23.408  0.00  0.00    -0.172 NA
ATOM     21  C   UNL     1      11.507   3.891  23.374  0.00  0.00    +0.132 C 
ENDBRANCH  16  20
ENDBRANCH   1  16
TORSDOF 5
ENDMDL
MODEL 9
REMARK VINA RESULT:      -5.8      2.297      2.800
REMARK  Name = 
REMARK  7 active torsions:
REMARK  status: ('A' for Active; 'I' for Inactive)
REMARK    1  A    between atoms: C_1  and  N_2
REMARK    2  A    between atoms: N_2  and  C_3
REMARK    3  A    between atoms: N_2  and  S_4
REMARK    4  A    between atoms: S_4  and  N_7
REMARK    5  A    between atoms: N_10  and  C_13
REMARK    6  A    between atoms: C_17  and  C_18
REMARK    7  A    between atoms: C_18  and  O_19
REMARK                            x       y       z     vdW  Elec       q    Type
REMARK                         _______ _______ _______ _____ _____    ______ ____
ROOT
ATOM      1  N   UNL     1       9.531  -0.304  24.346  0.00  0.00    -0.163 NA
ATOM      2  C   UNL     1       8.296   0.390  24.813  0.00  0.00    +0.129 C 
ATOM      3  C   UNL     1       8.051   1.711  24.043  0.00  0.00    +0.123 C 
ATOM      4  N   UNL     1       9.246   2.583  24.104  0.00  0.00    -0.313 N 
ATOM      5  C   UNL     1      10.501   1.922  23.675  0.00  0.00    +0.123 C 
ATOM      6  C   UNL     1      10.710   0.607  24.451  0.00  0.00    +0.129 C 
ENDROOT
BRANCH   4   7
ATOM      7  C   UNL     1       9.153   3.952  23.846  0.00  0.00    +0.125 A 
ATOM      8  N   UNL     1       8.017   4.432  23.297  0.00  0.00    -0.215 NA
ATOM      9  C   UNL     1       7.964   5.733  22.938  0.00  0.00    +0.156 A 
ATOM     10  N   UNL     1       8.975   6.613  23.075  0.00  0.00    -0.238 NA
ATOM     11  C   UNL     1      10.087   6.120  23.629  0.00  0.00    +0.116 A 
ATOM     12  C   UNL     1      10.223   4.811  24.038  0.00  0.00    +0.063 A 
BRANCH   9  13
ATOM     13  C   UNL     1       6.683   6.262  22.323  0.00  0.00    +0.231 C 
BRANCH  13  14
ATOM     14  O   UNL     1       6.915   6.968  21.094  0.00  0.00    -0.387 OA
ATOM     15  H   UNL     1       7.045   6.266  20.422  0.00  0.00    +0.210 HD
ENDBRANCH  13  14
ENDBRANCH   9  13
ENDBRANCH   4   7
BRANCH   1  16
ATOM     16  S   UNL     1       9.402  -1.203  22.925  0.00  0.00    +0.099 S 
ATOM     17  O   UNL     1       8.793  -0.389  21.901  0.00  0.00    -0.141 OA
ATOM     18  O   UNL     1      10.648  -1.901  22.700  0.00  0.00    -0.141 OA
BRANCH  16  20
ATOM     19  C   UNL     1       7.398  -2.791  22.264  0.00  0.00    +0.132 C 
ATOM     20  N   UNL     1       8.258  -2.371  23.400  0.00  0.00    -0.172 NA
ATOM     21  C   UNL     1       8.808  -3.555  24.098  0.00  0.00    +0.132 C 
ENDBRANCH  16  20
ENDBRANCH   1  16
TORSDOF 5
ENDMDL
