MODEL 1
REMARK VINA RESULT:      -3.4      0.000      0.000
REMARK  Name = 
REMARK  7 active torsions:
REMARK  status: ('A' for Active; 'I' for Inactive)
REMARK    1  A    between atoms: O_1  and  C_2
REMARK    2  A    between atoms: C_2  and  C_4
REMARK    3  A    between atoms: C_2  and  C_6
REMARK    4  A    between atoms: C_4  and  S_5
REMARK    5  A    between atoms: C_6  and  O_8
REMARK    6  A    between atoms: C_6  and  C_9
REMARK    7  A    between atoms: C_9  and  S_10
REMARK                            x       y       z     vdW  Elec       q    Type
REMARK                         _______ _______ _______ _____ _____    ______ ____
ROOT
ATOM      1  C   UNL     1      10.138  -0.295  22.194  0.00  0.00    +0.153 C 
ENDROOT
BRANCH   1   2
ATOM      2  O   UNL     1      10.125  -1.471  21.377  0.00  0.00    -0.388 OA
ATOM      3  H   UNL     1      10.339  -2.215  21.970  0.00  0.00    +0.210 HD
ENDBRANCH   1   2
BRANCH   1   4
ATOM      4  C   UNL     1       9.206   0.766  21.564  0.00  0.00    +0.153 C 
BRANCH   4   5
ATOM      5  O   UNL     1       9.916   2.005  21.450  0.00  0.00    -0.388 OA
ATOM      6  H   UNL     1      10.410   2.115  22.283  0.00  0.00    +0.210 HD
ENDBRANCH   4   5
BRANCH   4   7
ATOM      7  C   UNL     1       7.901   0.967  22.346  0.00  0.00    +0.099 C 
BRANCH   7   8
ATOM      8  S   UNL     1       7.283   2.678  22.164  0.00  0.00    -0.176 S 
ATOM      9  H   UNL     1       6.225   2.376  21.398  0.00  0.00    +0.102 HD
ENDBRANCH   7   8
ENDBRANCH   4   7
ENDBRANCH   1   4
BRANCH   1  10
ATOM     10  C   UNL     1       9.769  -0.638  23.644  0.00  0.00    +0.099 C 
BRANCH  10  11
ATOM     11  S   UNL     1       9.635  -2.447  23.877  0.00  0.00    -0.176 S 
ATOM     12  H   UNL     1      10.953  -2.686  23.940  0.00  0.00    +0.102 HD
ENDBRANCH  10  11
ENDBRANCH   1  10
TORSDOF 7
ENDMDL
MODEL 2
REMARK VINA RESULT:      -3.3      1.185      3.637
REMARK  Name = 
REMARK  7 active torsions:
REMARK  status: ('A' for Active; 'I' for Inactive)
REMARK    1  A    between atoms: O_1  and  C_2
REMARK    2  A    between atoms: C_2  and  C_4
REMARK    3  A    between atoms: C_2  and  C_6
REMARK    4  A    between atoms: C_4  and  S_5
REMARK    5  A    between atoms: C_6  and  O_8
REMARK    6  A    between atoms: C_6  and  C_9
REMARK    7  A    between atoms: C_9  and  S_10
REMARK                            x       y       z     vdW  Elec       q    Type
REMARK                         _______ _______ _______ _____ _____    ______ ____
ROOT
ATOM      1  C   UNL     1       9.091   1.020  21.481  0.00  0.00    +0.153 C 
ENDROOT
BRANCH   1   2
ATOM      2  O   UNL     1       9.890   2.208  21.472  0.00  0.00    -0.388 OA
ATOM      3  H   UNL     1      10.548   2.087  20.763  0.00  0.00    +0.210 HD
ENDBRANCH   1   2
BRANCH   1   4
ATOM      4  C   UNL     1       9.922  -0.141  22.073  0.00  0.00    +0.153 C 
BRANCH   4   5
ATOM      5  O   UNL     1       9.728  -1.312  21.271  0.00  0.00    -0.388 OA
ATOM      6  H   UNL     1      10.579  -1.482  20.826  0.00  0.00    +0.210 HD
ENDBRANCH   4   5
BRANCH   4   7
ATOM      7  C   UNL     1       9.589  -0.438  23.542  0.00  0.00    +0.099 C 
BRANCH   7   8
ATOM      8  S   UNL     1      10.664   0.522  24.666  0.00  0.00    -0.176 S 
ATOM      9  H   UNL     1      11.264  -0.531  25.240  0.00  0.00    +0.102 HD
ENDBRANCH   7   8
ENDBRANCH   4   7
ENDBRANCH   1   4
BRANCH   1  10
ATOM     10  C   UNL     1       7.772   1.261  22.229  0.00  0.00    +0.099 C 
BRANCH  10  11
ATOM     11  S   UNL     1       7.341   3.038  22.246  0.00  0.00    -0.176 S 
ATOM     12  H   UNL     1       7.070   3.138  20.937  0.00  0.00    +0.102 HD
ENDBRANCH  10  11
ENDBRANCH   1  10
TORSDOF 7
ENDMDL
MODEL 3
REMARK VINA RESULT:      -3.3      6.002      6.839
REMARK  Name = 
REMARK  7 active torsions:
REMARK  status: ('A' for Active; 'I' for Inactive)
REMARK    1  A    between atoms: O_1  and  C_2
REMARK    2  A    between atoms: C_2  and  C_4
REMARK    3  A    between atoms: C_2  and  C_6
REMARK    4  A    between atoms: C_4  and  S_5
REMARK    5  A    between atoms: C_6  and  O_8
REMARK    6  A    between atoms: C_6  and  C_9
REMARK    7  A    between atoms: C_9  and  S_10
REMARK                            x       y       z     vdW  Elec       q    Type
REMARK                         _______ _______ _______ _____ _____    ______ ____
ROOT
ATOM      1  C   UNL     1       8.884  -5.343  25.318  0.00  0.00    +0.153 C 
ENDROOT
BRANCH   1   2
ATOM      2  O   UNL     1      10.292  -5.603  25.326  0.00  0.00    -0.388 OA
ATOM      3  H   UNL     1      10.672  -5.023  26.012  0.00  0.00    +0.210 HD
ENDBRANCH   1   2
BRANCH   1   4
ATOM      4  C   UNL     1       8.466  -4.793  26.701  0.00  0.00    +0.153 C 
BRANCH   4   5
ATOM      5  O   UNL     1       7.940  -5.865  27.492  0.00  0.00    -0.388 OA
ATOM      6  H   UNL     1       8.590  -6.029  28.199  0.00  0.00    +0.210 HD
ENDBRANCH   4   5
BRANCH   4   7
ATOM      7  C   UNL     1       7.453  -3.643  26.616  0.00  0.00    +0.099 C 
BRANCH   7   8
ATOM      8  S   UNL     1       5.837  -4.139  27.310  0.00  0.00    -0.176 S 
ATOM      9  H   UNL     1       6.320  -4.754  28.399  0.00  0.00    +0.102 HD
ENDBRANCH   7   8
ENDBRANCH   4   7
ENDBRANCH   1   4
BRANCH   1  10
ATOM     10  C   UNL     1       8.514  -4.406  24.159  0.00  0.00    +0.099 C 
BRANCH  10  11
ATOM     11  S   UNL     1       7.308  -5.197  23.035  0.00  0.00    -0.176 S 
ATOM     12  H   UNL     1       7.675  -4.531  21.931  0.00  0.00    +0.102 HD
ENDBRANCH  10  11
ENDBRANCH   1  10
TORSDOF 7
ENDMDL
MODEL 4
REMARK VINA RESULT:      -3.3      5.988      6.857
REMARK  Name = 
REMARK  7 active torsions:
REMARK  status: ('A' for Active; 'I' for Inactive)
REMARK    1  A    between atoms: O_1  and  C_2
REMARK    2  A    between atoms: C_2  and  C_4
REMARK    3  A    between atoms: C_2  and  C_6
REMARK    4  A    between atoms: C_4  and  S_5
REMARK    5  A    between atoms: C_6  and  O_8
REMARK    6  A    between atoms: C_6  and  C_9
REMARK    7  A    between atoms: C_9  and  S_10
REMARK                            x       y       z     vdW  Elec       q    Type
REMARK                         _______ _______ _______ _____ _____    ______ ____
ROOT
ATOM      1  C   UNL     1       8.454  -4.785  26.698  0.00  0.00    +0.153 C 
ENDROOT
BRANCH   1   2
ATOM      2  O   UNL     1       7.932  -5.864  27.481  0.00  0.00    -0.388 OA
ATOM      3  H   UNL     1       6.970  -5.715  27.541  0.00  0.00    +0.210 HD
ENDBRANCH   1   2
BRANCH   1   4
ATOM      4  C   UNL     1       8.892  -5.328  25.319  0.00  0.00    +0.153 C 
BRANCH   4   5
ATOM      5  O   UNL     1      10.303  -5.575  25.340  0.00  0.00    -0.388 OA
ATOM      6  H   UNL     1      10.615  -5.453  24.424  0.00  0.00    +0.210 HD
ENDBRANCH   4   5
BRANCH   4   7
ATOM      7  C   UNL     1       8.529  -4.396  24.156  0.00  0.00    +0.099 C 
BRANCH   7   8
ATOM      8  S   UNL     1       7.312  -5.181  23.040  0.00  0.00    -0.176 S 
ATOM      9  H   UNL     1       7.633  -6.449  23.333  0.00  0.00    +0.102 HD
ENDBRANCH   7   8
ENDBRANCH   4   7
ENDBRANCH   1   4
BRANCH   1  10
ATOM     10  C   UNL     1       7.432  -3.643  26.600  0.00  0.00    +0.099 C 
BRANCH  10  11
ATOM     11  S   UNL     1       5.831  -4.131  27.337  0.00  0.00    -0.176 S 
ATOM     12  H   UNL     1       5.930  -3.361  28.430  0.00  0.00    +0.102 HD
ENDBRANCH  10  11
ENDBRANCH   1  10
TORSDOF 7
ENDMDL
MODEL 5
REMARK VINA RESULT:      -3.3      0.254      3.809
REMARK  Name = 
REMARK  7 active torsions:
REMARK  status: ('A' for Active; 'I' for Inactive)
REMARK    1  A    between atoms: O_1  and  C_2
REMARK    2  A    between atoms: C_2  and  C_4
REMARK    3  A    between atoms: C_2  and  C_6
REMARK    4  A    between atoms: C_4  and  S_5
REMARK    5  A    between atoms: C_6  and  O_8
REMARK    6  A    between atoms: C_6  and  C_9
REMARK    7  A    between atoms: C_9  and  S_10
REMARK                            x       y       z     vdW  Elec       q    Type
REMARK                         _______ _______ _______ _____ _____    ______ ____
ROOT
ATOM      1  C   UNL     1       9.110   0.993  21.516  0.00  0.00    +0.153 C 
ENDROOT
BRANCH   1   2
ATOM      2  O   UNL     1       9.882   2.199  21.506  0.00  0.00    -0.388 OA
ATOM      3  H   UNL     1      10.747   1.971  21.894  0.00  0.00    +0.210 HD
ENDBRANCH   1   2
BRANCH   1   4
ATOM      4  C   UNL     1       9.989  -0.164  22.042  0.00  0.00    +0.153 C 
BRANCH   4   5
ATOM      5  O   UNL     1       9.782  -1.320  21.222  0.00  0.00    -0.388 OA
ATOM      6  H   UNL     1      10.346  -2.024  21.594  0.00  0.00    +0.210 HD
ENDBRANCH   4   5
BRANCH   4   7
ATOM      7  C   UNL     1       9.731  -0.500  23.517  0.00  0.00    +0.099 C 
BRANCH   7   8
ATOM      8  S   UNL     1       9.723  -2.308  23.787  0.00  0.00    -0.176 S 
ATOM      9  H   UNL     1      11.042  -2.491  23.636  0.00  0.00    +0.102 HD
ENDBRANCH   7   8
ENDBRANCH   4   7
ENDBRANCH   1   4
BRANCH   1  10
ATOM     10  C   UNL     1       7.818   1.184  22.323  0.00  0.00    +0.099 C 
BRANCH  10  11
ATOM     11  S   UNL     1       7.222   2.909  22.209  0.00  0.00    -0.176 S 
ATOM     12  H   UNL     1       7.240   3.160  23.526  0.00  0.00    +0.102 HD
ENDBRANCH  10  11
ENDBRANCH   1  10
TORSDOF 7
ENDMDL
MODEL 6
REMARK VINA RESULT:      -3.1      2.715      3.505
REMARK  Name = 
REMARK  7 active torsions:
REMARK  status: ('A' for Active; 'I' for Inactive)
REMARK    1  A    between atoms: O_1  and  C_2
REMARK    2  A    between atoms: C_2  and  C_4
REMARK    3  A    between atoms: C_2  and  C_6
REMARK    4  A    between atoms: C_4  and  S_5
REMARK    5  A    between atoms: C_6  and  O_8
REMARK    6  A    between atoms: C_6  and  C_9
REMARK    7  A    between atoms: C_9  and  S_10
REMARK                            x       y       z     vdW  Elec       q    Type
REMARK                         _______ _______ _______ _____ _____    ______ ____
ROOT
ATOM      1  C   UNL     1       9.036  -1.822  22.262  0.00  0.00    +0.153 C 
ENDROOT
BRANCH   1   2
ATOM      2  O   UNL     1       9.586  -1.074  21.171  0.00  0.00    -0.388 OA
ATOM      3  H   UNL     1       9.105  -0.227  21.153  0.00  0.00    +0.210 HD
ENDBRANCH   1   2
BRANCH   1   4
ATOM      4  C   UNL     1      10.059  -1.849  23.420  0.00  0.00    +0.153 C 
BRANCH   4   5
ATOM      5  O   UNL     1      10.140  -3.181  23.943  0.00  0.00    -0.388 OA
ATOM      6  H   UNL     1       9.537  -3.724  23.401  0.00  0.00    +0.210 HD
ENDBRANCH   4   5
BRANCH   4   7
ATOM      7  C   UNL     1       9.733  -0.853  24.541  0.00  0.00    +0.099 C 
BRANCH   7   8
ATOM      8  S   UNL     1      10.739   0.665  24.385  0.00  0.00    -0.176 S 
ATOM      9  H   UNL     1      11.805   0.211  25.060  0.00  0.00    +0.102 HD
ENDBRANCH   7   8
ENDBRANCH   4   7
ENDBRANCH   1   4
BRANCH   1  10
ATOM     10  C   UNL     1       7.671  -1.253  22.674  0.00  0.00    +0.099 C 
BRANCH  10  11
ATOM     11  S   UNL     1       6.393  -2.560  22.695  0.00  0.00    -0.176 S 
ATOM     12  H   UNL     1       5.511  -1.893  23.454  0.00  0.00    +0.102 HD
ENDBRANCH  10  11
ENDBRANCH   1  10
TORSDOF 7
ENDMDL
MODEL 7
REMARK VINA RESULT:      -3.1      5.127      6.327
REMARK  Name = 
REMARK  7 active torsions:
REMARK  status: ('A' for Active; 'I' for Inactive)
REMARK    1  A    between atoms: O_1  and  C_2
REMARK    2  A    between atoms: C_2  and  C_4
REMARK    3  A    between atoms: C_2  and  C_6
REMARK    4  A    between atoms: C_4  and  S_5
REMARK    5  A    between atoms: C_6  and  O_8
REMARK    6  A    between atoms: C_6  and  C_9
REMARK    7  A    between atoms: C_9  and  S_10
REMARK                            x       y       z     vdW  Elec       q    Type
REMARK                         _______ _______ _______ _____ _____    ______ ____
ROOT
ATOM      1  C   UNL     1       7.770  -4.947  25.891  0.00  0.00    +0.153 C 
ENDROOT
BRANCH   1   2
ATOM      2  O   UNL     1       8.345  -5.896  26.795  0.00  0.00    -0.388 OA
ATOM      3  H   UNL     1       8.118  -5.589  27.692  0.00  0.00    +0.210 HD
ENDBRANCH   1   2
BRANCH   1   4
ATOM      4  C   UNL     1       8.684  -4.815  24.651  0.00  0.00    +0.153 C 
BRANCH   4   5
ATOM      5  O   UNL     1       9.690  -5.834  24.701  0.00  0.00    -0.388 OA
ATOM      6  H   UNL     1       9.359  -6.515  25.315  0.00  0.00    +0.210 HD
ENDBRANCH   4   5
BRANCH   4   7
ATOM      7  C   UNL     1       9.330  -3.430  24.518  0.00  0.00    +0.099 C 
BRANCH   7   8
ATOM      8  S   UNL     1       8.572  -2.479  23.154  0.00  0.00    -0.176 S 
ATOM      9  H   UNL     1       8.672  -3.440  22.224  0.00  0.00    +0.102 HD
ENDBRANCH   7   8
ENDBRANCH   4   7
ENDBRANCH   1   4
BRANCH   1  10
ATOM     10  C   UNL     1       6.328  -5.340  25.539  0.00  0.00    +0.099 C 
BRANCH  10  11
ATOM     11  S   UNL     1       6.086  -5.398  23.727  0.00  0.00    -0.176 S 
ATOM     12  H   UNL     1       4.747  -5.448  23.758  0.00  0.00    +0.102 HD
ENDBRANCH  10  11
ENDBRANCH   1  10
TORSDOF 7
ENDMDL
MODEL 8
REMARK VINA RESULT:      -3.1      2.434      2.783
REMARK  Name = 
REMARK  7 active torsions:
REMARK  status: ('A' for Active; 'I' for Inactive)
REMARK    1  A    between atoms: O_1  and  C_2
REMARK    2  A    between atoms: C_2  and  C_4
REMARK    3  A    between atoms: C_2  and  C_6
REMARK    4  A    between atoms: C_4  and  S_5
REMARK    5  A    between atoms: C_6  and  O_8
REMARK    6  A    between atoms: C_6  and  C_9
REMARK    7  A    between atoms: C_9  and  S_10
REMARK                            x       y       z     vdW  Elec       q    Type
REMARK                         _______ _______ _______ _____ _____    ______ ____
ROOT
ATOM      1  C   UNL     1      10.156   1.300  22.501  0.00  0.00    +0.153 C 
ENDROOT
BRANCH   1   2
ATOM      2  O   UNL     1       9.660   2.170  21.477  0.00  0.00    -0.388 OA
ATOM      3  H   UNL     1      10.428   2.403  20.923  0.00  0.00    +0.210 HD
ENDBRANCH   1   2
BRANCH   1   4
ATOM      4  C   UNL     1      10.398   2.122  23.787  0.00  0.00    +0.153 C 
BRANCH   4   5
ATOM      5  O   UNL     1      10.073   1.317  24.926  0.00  0.00    -0.388 OA
ATOM      6  H   UNL     1      10.575   1.687  25.675  0.00  0.00    +0.210 HD
ENDBRANCH   4   5
BRANCH   4   7
ATOM      7  C   UNL     1       9.613   3.440  23.821  0.00  0.00    +0.099 C 
BRANCH   7   8
ATOM      8  S   UNL     1       8.200   3.333  24.976  0.00  0.00    -0.176 S 
ATOM      9  H   UNL     1       8.077   1.999  24.943  0.00  0.00    +0.102 HD
ENDBRANCH   7   8
ENDBRANCH   4   7
ENDBRANCH   1   4
BRANCH   1  10
ATOM     10  C   UNL     1       9.203   0.115  22.712  0.00  0.00    +0.099 C 
BRANCH  10  11
ATOM     11  S   UNL     1      10.088  -1.477  22.549  0.00  0.00    -0.176 S 
ATOM     12  H   UNL     1      11.246  -1.059  23.081  0.00  0.00    +0.102 HD
ENDBRANCH  10  11
ENDBRANCH   1  10
TORSDOF 7
ENDMDL
MODEL 9
REMARK VINA RESULT:      -3.1      4.693      5.509
REMARK  Name = 
REMARK  7 active torsions:
REMARK  status: ('A' for Active; 'I' for Inactive)
REMARK    1  A    between atoms: O_1  and  C_2
REMARK    2  A    between atoms: C_2  and  C_4
REMARK    3  A    between atoms: C_2  and  C_6
REMARK    4  A    between atoms: C_4  and  S_5
REMARK    5  A    between atoms: C_6  and  O_8
REMARK    6  A    between atoms: C_6  and  C_9
REMARK    7  A    between atoms: C_9  and  S_10
REMARK                            x       y       z     vdW  Elec       q    Type
REMARK                         _______ _______ _______ _____ _____    ______ ____
ROOT
ATOM      1  C   UNL     1       9.277  -4.388  25.202  0.00  0.00    +0.153 C 
ENDROOT
BRANCH   1   2
ATOM      2  O   UNL     1      10.210  -5.438  24.919  0.00  0.00    -0.388 OA
ATOM      3  H   UNL     1       9.681  -6.191  24.597  0.00  0.00    +0.210 HD
ENDBRANCH   1   2
BRANCH   1   4
ATOM      4  C   UNL     1       8.197  -4.363  24.097  0.00  0.00    +0.153 C 
BRANCH   4   5
ATOM      5  O   UNL     1       8.282  -5.570  23.331  0.00  0.00    -0.388 OA
ATOM      6  H   UNL     1       9.227  -5.698  23.126  0.00  0.00    +0.210 HD
ENDBRANCH   4   5
BRANCH   4   7
ATOM      7  C   UNL     1       8.297  -3.138  23.178  0.00  0.00    +0.099 C 
BRANCH   7   8
ATOM      8  S   UNL     1       9.738  -2.102  23.619  0.00  0.00    -0.176 S 
ATOM      9  H   UNL     1      10.334  -3.001  24.415  0.00  0.00    +0.102 HD
ENDBRANCH   7   8
ENDBRANCH   4   7
ENDBRANCH   1   4
BRANCH   1  10
ATOM     10  C   UNL     1       8.694  -4.549  26.613  0.00  0.00    +0.099 C 
BRANCH  10  11
ATOM     11  S   UNL     1       7.032  -3.795  26.727  0.00  0.00    -0.176 S 
ATOM     12  H   UNL     1       6.521  -4.692  27.583  0.00  0.00    +0.102 HD
ENDBRANCH  10  11
ENDBRANCH   1  10
TORSDOF 7
ENDMDL
