MODEL 1
REMARK VINA RESULT:      -5.8      0.000      0.000
REMARK  Name = 
REMARK  5 active torsions:
REMARK  status: ('A' for Active; 'I' for Inactive)
REMARK    1  A    between atoms: C_1  and  C_2
REMARK    2  A    between atoms: C_2  and  O_4
REMARK    3  A    between atoms: O_4  and  N_5
REMARK    4  A    between atoms: C_6  and  C_8
REMARK    5  A    between atoms: C_9  and  O_10
REMARK                            x       y       z     vdW  Elec       q    Type
REMARK                         _______ _______ _______ _____ _____    ______ ____
ROOT
ATOM      1  N   UNL     1      11.154   3.747  23.181  0.00  0.00    -0.141 N 
ATOM      2  H   UNL     1      11.500   3.470  22.263  0.00  0.00    +0.196 HD
ATOM      3  C   UNL     1      10.147   3.047  23.803  0.00  0.00    +0.279 C 
ATOM      4  O   UNL     1       9.305   3.549  24.546  0.00  0.00    -0.267 OA
ENDROOT
BRANCH   3   5
ATOM      5  C   UNL     1      10.078   1.590  23.522  0.00  0.00    +0.081 A 
ATOM      6  C   UNL     1      10.333   0.643  24.525  0.00  0.00    +0.017 A 
ATOM      7  C   UNL     1      10.212  -0.722  24.250  0.00  0.00    +0.001 A 
ATOM      8  C   UNL     1       9.845  -1.150  22.974  0.00  0.00    +0.004 A 
ATOM      9  C   UNL     1       9.585  -0.216  21.971  0.00  0.00    +0.046 A 
ATOM     10  C   UNL     1       9.686   1.146  22.249  0.00  0.00    +0.129 A 
BRANCH  10  11
ATOM     11  O   UNL     1       9.375   1.998  21.222  0.00  0.00    -0.506 OA
ATOM     12  H   UNL     1       9.586   1.540  20.376  0.00  0.00    +0.292 HD
ENDBRANCH  10  11
ENDBRANCH   3   5
BRANCH   1  13
ATOM     13  O   UNL     1      11.100   5.148  23.410  0.00  0.00    -0.347 OA
BRANCH  13  15
ATOM     14  C   UNL     1      13.228   5.527  22.495  0.00  0.00    +0.138 C 
ATOM     15  C   UNL     1      12.332   5.671  23.685  0.00  0.00    +0.328 C 
ATOM     16  O   UNL     1      12.634   6.202  24.747  0.00  0.00    -0.249 OA
ENDBRANCH  13  15
ENDBRANCH   1  13
TORSDOF 4
ENDMDL
MODEL 2
REMARK VINA RESULT:      -5.8      4.231      7.078
REMARK  Name = 
REMARK  5 active torsions:
REMARK  status: ('A' for Active; 'I' for Inactive)
REMARK    1  A    between atoms: C_1  and  C_2
REMARK    2  A    between atoms: C_2  and  O_4
REMARK    3  A    between atoms: O_4  and  N_5
REMARK    4  A    between atoms: C_6  and  C_8
REMARK    5  A    between atoms: C_9  and  O_10
REMARK                            x       y       z     vdW  Elec       q    Type
REMARK                         _______ _______ _______ _____ _____    ______ ____
ROOT
ATOM      1  N   UNL     1       8.142  -2.639  22.972  0.00  0.00    -0.141 N 
ATOM      2  H   UNL     1       7.677  -2.134  22.218  0.00  0.00    +0.196 HD
ATOM      3  C   UNL     1       9.379  -2.253  23.430  0.00  0.00    +0.279 C 
ATOM      4  O   UNL     1      10.235  -3.024  23.861  0.00  0.00    -0.267 OA
ENDROOT
BRANCH   3   5
ATOM      5  C   UNL     1       9.689  -0.802  23.365  0.00  0.00    +0.081 A 
ATOM      6  C   UNL     1      10.027  -0.078  24.519  0.00  0.00    +0.017 A 
ATOM      7  C   UNL     1      10.364   1.275  24.427  0.00  0.00    +0.001 A 
ATOM      8  C   UNL     1      10.359   1.916  23.187  0.00  0.00    +0.004 A 
ATOM      9  C   UNL     1      10.029   1.203  22.034  0.00  0.00    +0.046 A 
ATOM     10  C   UNL     1       9.712  -0.151  22.122  0.00  0.00    +0.129 A 
BRANCH  10  11
ATOM     11  O   UNL     1       9.440  -0.787  20.939  0.00  0.00    -0.506 OA
ATOM     12  H   UNL     1       9.548  -0.131  20.212  0.00  0.00    +0.292 HD
ENDBRANCH  10  11
ENDBRANCH   3   5
BRANCH   1  13
ATOM     13  O   UNL     1       7.950  -4.047  22.965  0.00  0.00    -0.347 OA
BRANCH  13  15
ATOM     14  C   UNL     1       7.091  -5.893  21.798  0.00  0.00    +0.138 C 
ATOM     15  C   UNL     1       6.981  -4.429  22.080  0.00  0.00    +0.328 C 
ATOM     16  O   UNL     1       6.134  -3.672  21.618  0.00  0.00    -0.249 OA
ENDBRANCH  13  15
ENDBRANCH   1  13
TORSDOF 4
ENDMDL
MODEL 3
REMARK VINA RESULT:      -5.5      4.237      6.844
REMARK  Name = 
REMARK  5 active torsions:
REMARK  status: ('A' for Active; 'I' for Inactive)
REMARK    1  A    between atoms: C_1  and  C_2
REMARK    2  A    between atoms: C_2  and  O_4
REMARK    3  A    between atoms: O_4  and  N_5
REMARK    4  A    between atoms: C_6  and  C_8
REMARK    5  A    between atoms: C_9  and  O_10
REMARK                            x       y       z     vdW  Elec       q    Type
REMARK                         _______ _______ _______ _____ _____    ______ ____
ROOT
ATOM      1  N   UNL     1       9.890  -3.031  24.290  0.00  0.00    -0.141 N 
ATOM      2  H   UNL     1      10.175  -2.642  25.188  0.00  0.00    +0.196 HD
ATOM      3  C   UNL     1       9.247  -2.259  23.351  0.00  0.00    +0.279 C 
ATOM      4  O   UNL     1       8.402  -2.680  22.562  0.00  0.00    -0.267 OA
ENDROOT
BRANCH   3   5
ATOM      5  C   UNL     1       9.595  -0.816  23.326  0.00  0.00    +0.081 A 
ATOM      6  C   UNL     1       9.901  -0.121  24.506  0.00  0.00    +0.017 A 
ATOM      7  C   UNL     1      10.275   1.225  24.452  0.00  0.00    +0.001 A 
ATOM      8  C   UNL     1      10.339   1.886  23.225  0.00  0.00    +0.004 A 
ATOM      9  C   UNL     1      10.041   1.202  22.047  0.00  0.00    +0.046 A 
ATOM     10  C   UNL     1       9.687  -0.145  22.097  0.00  0.00    +0.129 A 
BRANCH  10  11
ATOM     11  O   UNL     1       9.449  -0.753  20.892  0.00  0.00    -0.506 OA
ATOM     12  H   UNL     1       9.597  -0.085  20.183  0.00  0.00    +0.292 HD
ENDBRANCH  10  11
ENDBRANCH   3   5
BRANCH   1  13
ATOM     13  O   UNL     1       9.437  -4.377  24.330  0.00  0.00    -0.347 OA
BRANCH  13  15
ATOM     14  C   UNL     1       7.367  -5.055  25.205  0.00  0.00    +0.138 C 
ATOM     15  C   UNL     1       8.782  -4.663  25.494  0.00  0.00    +0.328 C 
ATOM     16  O   UNL     1       9.301  -4.628  26.604  0.00  0.00    -0.249 OA
ENDBRANCH  13  15
ENDBRANCH   1  13
TORSDOF 4
ENDMDL
MODEL 4
REMARK VINA RESULT:      -5.5      3.724      6.635
REMARK  Name = 
REMARK  5 active torsions:
REMARK  status: ('A' for Active; 'I' for Inactive)
REMARK    1  A    between atoms: C_1  and  C_2
REMARK    2  A    between atoms: C_2  and  O_4
REMARK    3  A    between atoms: O_4  and  N_5
REMARK    4  A    between atoms: C_6  and  C_8
REMARK    5  A    between atoms: C_9  and  O_10
REMARK                            x       y       z     vdW  Elec       q    Type
REMARK                         _______ _______ _______ _____ _____    ______ ____
ROOT
ATOM      1  N   UNL     1       9.730  -1.993  24.232  0.00  0.00    -0.141 N 
ATOM      2  H   UNL     1       8.842  -1.771  24.679  0.00  0.00    +0.196 HD
ATOM      3  C   UNL     1      10.177  -1.280  23.145  0.00  0.00    +0.279 C 
ATOM      4  O   UNL     1      10.850  -1.752  22.230  0.00  0.00    -0.267 OA
ENDROOT
BRANCH   3   5
ATOM      5  C   UNL     1       9.784   0.151  23.081  0.00  0.00    +0.081 A 
ATOM      6  C   UNL     1       9.147   0.680  21.948  0.00  0.00    +0.017 A 
ATOM      7  C   UNL     1       8.741   2.018  21.931  0.00  0.00    +0.001 A 
ATOM      8  C   UNL     1       8.973   2.835  23.038  0.00  0.00    +0.004 A 
ATOM      9  C   UNL     1       9.602   2.316  24.170  0.00  0.00    +0.046 A 
ATOM     10  C   UNL     1       9.990   0.978  24.196  0.00  0.00    +0.129 A 
BRANCH  10  11
ATOM     11  O   UNL     1      10.563   0.537  25.360  0.00  0.00    -0.506 OA
ATOM     12  H   UNL     1      10.394  -0.430  25.431  0.00  0.00    +0.292 HD
ENDBRANCH  10  11
ENDBRANCH   3   5
BRANCH   1  13
ATOM     13  O   UNL     1      10.053  -3.376  24.179  0.00  0.00    -0.347 OA
BRANCH  13  15
ATOM     14  C   UNL     1       8.664  -3.855  26.009  0.00  0.00    +0.138 C 
ATOM     15  C   UNL     1       9.011  -4.162  24.587  0.00  0.00    +0.328 C 
ATOM     16  O   UNL     1       8.438  -4.973  23.869  0.00  0.00    -0.249 OA
ENDBRANCH  13  15
ENDBRANCH   1  13
TORSDOF 4
ENDMDL
MODEL 5
REMARK VINA RESULT:      -5.5      4.179      7.328
REMARK  Name = 
REMARK  5 active torsions:
REMARK  status: ('A' for Active; 'I' for Inactive)
REMARK    1  A    between atoms: C_1  and  C_2
REMARK    2  A    between atoms: C_2  and  O_4
REMARK    3  A    between atoms: O_4  and  N_5
REMARK    4  A    between atoms: C_6  and  C_8
REMARK    5  A    between atoms: C_9  and  O_10
REMARK                            x       y       z     vdW  Elec       q    Type
REMARK                         _______ _______ _______ _____ _____    ______ ____
ROOT
ATOM      1  N   UNL     1       7.911  -2.560  22.566  0.00  0.00    -0.141 N 
ATOM      2  H   UNL     1       7.567  -2.055  21.750  0.00  0.00    +0.196 HD
ATOM      3  C   UNL     1       9.104  -2.222  23.160  0.00  0.00    +0.279 C 
ATOM      4  O   UNL     1       9.860  -3.022  23.710  0.00  0.00    -0.267 OA
ENDROOT
BRANCH   3   5
ATOM      5  C   UNL     1       9.497  -0.791  23.098  0.00  0.00    +0.081 A 
ATOM      6  C   UNL     1       9.614  -0.122  21.870  0.00  0.00    +0.017 A 
ATOM      7  C   UNL     1       9.935   1.238  21.838  0.00  0.00    +0.001 A 
ATOM      8  C   UNL     1      10.149   1.936  23.028  0.00  0.00    +0.004 A 
ATOM      9  C   UNL     1      10.030   1.280  24.253  0.00  0.00    +0.046 A 
ATOM     10  C   UNL     1       9.691  -0.072  24.287  0.00  0.00    +0.129 A 
BRANCH  10  11
ATOM     11  O   UNL     1       9.555  -0.630  25.531  0.00  0.00    -0.506 OA
ATOM     12  H   UNL     1      10.016  -0.046  26.176  0.00  0.00    +0.292 HD
ENDBRANCH  10  11
ENDBRANCH   3   5
BRANCH   1  13
ATOM     13  O   UNL     1       7.646  -3.956  22.570  0.00  0.00    -0.347 OA
BRANCH  13  15
ATOM     14  C   UNL     1       6.633  -5.709  21.384  0.00  0.00    +0.138 C 
ATOM     15  C   UNL     1       6.562  -4.275  21.802  0.00  0.00    +0.328 C 
ATOM     16  O   UNL     1       5.657  -3.494  21.531  0.00  0.00    -0.249 OA
ENDBRANCH  13  15
ENDBRANCH   1  13
TORSDOF 4
ENDMDL
MODEL 6
REMARK VINA RESULT:      -5.3      6.243      8.099
REMARK  Name = 
REMARK  5 active torsions:
REMARK  status: ('A' for Active; 'I' for Inactive)
REMARK    1  A    between atoms: C_1  and  C_2
REMARK    2  A    between atoms: C_2  and  O_4
REMARK    3  A    between atoms: O_4  and  N_5
REMARK    4  A    between atoms: C_6  and  C_8
REMARK    5  A    between atoms: C_9  and  O_10
REMARK                            x       y       z     vdW  Elec       q    Type
REMARK                         _______ _______ _______ _____ _____    ______ ____
ROOT
ATOM      1  N   UNL     1       8.772  -3.505  24.088  0.00  0.00    -0.141 N 
ATOM      2  H   UNL     1       8.133  -2.735  24.282  0.00  0.00    +0.196 HD
ATOM      3  C   UNL     1       8.644  -4.715  24.730  0.00  0.00    +0.279 C 
ATOM      4  O   UNL     1       9.584  -5.452  25.022  0.00  0.00    -0.267 OA
ENDROOT
BRANCH   3   5
ATOM      5  C   UNL     1       7.267  -5.124  25.108  0.00  0.00    +0.081 A 
ATOM      6  C   UNL     1       6.223  -5.116  24.170  0.00  0.00    +0.017 A 
ATOM      7  C   UNL     1       4.947  -5.553  24.536  0.00  0.00    +0.001 A 
ATOM      8  C   UNL     1       4.702  -5.994  25.837  0.00  0.00    +0.004 A 
ATOM      9  C   UNL     1       5.736  -6.011  26.774  0.00  0.00    +0.046 A 
ATOM     10  C   UNL     1       7.013  -5.593  26.406  0.00  0.00    +0.129 A 
BRANCH  10  11
ATOM     11  O   UNL     1       7.980  -5.678  27.373  0.00  0.00    -0.506 OA
ATOM     12  H   UNL     1       8.596  -4.920  27.251  0.00  0.00    +0.292 HD
ENDBRANCH  10  11
ENDBRANCH   3   5
BRANCH   1  13
ATOM     13  O   UNL     1      10.121  -3.127  23.849  0.00  0.00    -0.347 OA
BRANCH  13  15
ATOM     14  C   UNL     1       9.919  -0.835  24.314  0.00  0.00    +0.138 C 
ATOM     15  C   UNL     1      10.213  -1.884  23.288  0.00  0.00    +0.328 C 
ATOM     16  O   UNL     1      10.521  -1.676  22.120  0.00  0.00    -0.249 OA
ENDBRANCH  13  15
ENDBRANCH   1  13
TORSDOF 4
ENDMDL
MODEL 7
REMARK VINA RESULT:      -5.2      4.767      7.527
REMARK  Name = 
REMARK  5 active torsions:
REMARK  status: ('A' for Active; 'I' for Inactive)
REMARK    1  A    between atoms: C_1  and  C_2
REMARK    2  A    between atoms: C_2  and  O_4
REMARK    3  A    between atoms: O_4  and  N_5
REMARK    4  A    between atoms: C_6  and  C_8
REMARK    5  A    between atoms: C_9  and  O_10
REMARK                            x       y       z     vdW  Elec       q    Type
REMARK                         _______ _______ _______ _____ _____    ______ ____
ROOT
ATOM      1  N   UNL     1       7.279  -2.659  22.371  0.00  0.00    -0.141 N 
ATOM      2  H   UNL     1       6.869  -2.350  21.490  0.00  0.00    +0.196 HD
ATOM      3  C   UNL     1       8.386  -2.037  22.897  0.00  0.00    +0.279 C 
ATOM      4  O   UNL     1       9.257  -2.603  23.556  0.00  0.00    -0.267 OA
ENDROOT
BRANCH   3   5
ATOM      5  C   UNL     1       8.532  -0.586  22.613  0.00  0.00    +0.081 A 
ATOM      6  C   UNL     1       9.729  -0.062  22.104  0.00  0.00    +0.017 A 
ATOM      7  C   UNL     1       9.826   1.299  21.797  0.00  0.00    +0.001 A 
ATOM      8  C   UNL     1       8.734   2.143  22.003  0.00  0.00    +0.004 A 
ATOM      9  C   UNL     1       7.538   1.629  22.504  0.00  0.00    +0.046 A 
ATOM     10  C   UNL     1       7.434   0.270  22.792  0.00  0.00    +0.129 A 
BRANCH  10  11
ATOM     11  O   UNL     1       6.214  -0.161  23.243  0.00  0.00    -0.506 OA
ATOM     12  H   UNL     1       6.316  -1.093  23.545  0.00  0.00    +0.292 HD
ENDBRANCH  10  11
ENDBRANCH   3   5
BRANCH   1  13
ATOM     13  O   UNL     1       7.254  -4.063  22.591  0.00  0.00    -0.347 OA
BRANCH  13  15
ATOM     14  C   UNL     1       6.686  -6.187  21.771  0.00  0.00    +0.138 C 
ATOM     15  C   UNL     1       6.465  -4.711  21.682  0.00  0.00    +0.328 C 
ATOM     16  O   UNL     1       5.676  -4.149  20.931  0.00  0.00    -0.249 OA
ENDBRANCH  13  15
ENDBRANCH   1  13
TORSDOF 4
ENDMDL
MODEL 8
REMARK VINA RESULT:      -5.0      4.240      5.673
REMARK  Name = 
REMARK  5 active torsions:
REMARK  status: ('A' for Active; 'I' for Inactive)
REMARK    1  A    between atoms: C_1  and  C_2
REMARK    2  A    between atoms: C_2  and  O_4
REMARK    3  A    between atoms: O_4  and  N_5
REMARK    4  A    between atoms: C_6  and  C_8
REMARK    5  A    between atoms: C_9  and  O_10
REMARK                            x       y       z     vdW  Elec       q    Type
REMARK                         _______ _______ _______ _____ _____    ______ ____
ROOT
ATOM      1  N   UNL     1       9.639  -0.916  24.299  0.00  0.00    -0.141 N 
ATOM      2  H   UNL     1       9.357  -0.583  25.221  0.00  0.00    +0.196 HD
ATOM      3  C   UNL     1       9.706  -2.260  24.018  0.00  0.00    +0.279 C 
ATOM      4  O   UNL     1      10.513  -2.771  23.242  0.00  0.00    -0.267 OA
ENDROOT
BRANCH   3   5
ATOM      5  C   UNL     1       8.744  -3.137  24.732  0.00  0.00    +0.081 A 
ATOM      6  C   UNL     1       7.432  -2.715  24.997  0.00  0.00    +0.017 A 
ATOM      7  C   UNL     1       6.530  -3.577  25.626  0.00  0.00    +0.001 A 
ATOM      8  C   UNL     1       6.930  -4.860  26.000  0.00  0.00    +0.004 A 
ATOM      9  C   UNL     1       8.231  -5.290  25.737  0.00  0.00    +0.046 A 
ATOM     10  C   UNL     1       9.127  -4.439  25.093  0.00  0.00    +0.129 A 
BRANCH  10  11
ATOM     11  O   UNL     1      10.371  -4.952  24.836  0.00  0.00    -0.506 OA
ATOM     12  H   UNL     1      10.343  -5.382  23.951  0.00  0.00    +0.292 HD
ENDBRANCH  10  11
ENDBRANCH   3   5
BRANCH   1  13
ATOM     13  O   UNL     1      10.652  -0.148  23.663  0.00  0.00    -0.347 OA
BRANCH  13  15
ATOM     14  C   UNL     1       9.760   1.108  21.893  0.00  0.00    +0.138 C 
ATOM     15  C   UNL     1      10.211   1.098  23.319  0.00  0.00    +0.328 C 
ATOM     16  O   UNL     1      10.171   2.052  24.089  0.00  0.00    -0.249 OA
ENDBRANCH  13  15
ENDBRANCH   1  13
TORSDOF 4
ENDMDL
MODEL 9
REMARK VINA RESULT:      -5.0      5.104      7.210
REMARK  Name = 
REMARK  5 active torsions:
REMARK  status: ('A' for Active; 'I' for Inactive)
REMARK    1  A    between atoms: C_1  and  C_2
REMARK    2  A    between atoms: C_2  and  O_4
REMARK    3  A    between atoms: O_4  and  N_5
REMARK    4  A    between atoms: C_6  and  C_8
REMARK    5  A    between atoms: C_9  and  O_10
REMARK                            x       y       z     vdW  Elec       q    Type
REMARK                         _______ _______ _______ _____ _____    ______ ____
ROOT
ATOM      1  N   UNL     1       9.183  -3.158  23.961  0.00  0.00    -0.141 N 
ATOM      2  H   UNL     1       9.397  -2.550  24.750  0.00  0.00    +0.196 HD
ATOM      3  C   UNL     1       8.396  -2.723  22.920  0.00  0.00    +0.279 C 
ATOM      4  O   UNL     1       7.639  -3.443  22.271  0.00  0.00    -0.267 OA
ENDROOT
BRANCH   3   5
ATOM      5  C   UNL     1       8.464  -1.276  22.595  0.00  0.00    +0.081 A 
ATOM      6  C   UNL     1       9.597  -0.722  21.978  0.00  0.00    +0.017 A 
ATOM      7  C   UNL     1       9.618   0.633  21.636  0.00  0.00    +0.001 A 
ATOM      8  C   UNL     1       8.516   1.444  21.911  0.00  0.00    +0.004 A 
ATOM      9  C   UNL     1       7.384   0.900  22.519  0.00  0.00    +0.046 A 
ATOM     10  C   UNL     1       7.354  -0.455  22.844  0.00  0.00    +0.129 A 
BRANCH  10  11
ATOM     11  O   UNL     1       6.191  -0.917  23.401  0.00  0.00    -0.506 OA
ATOM     12  H   UNL     1       6.231  -0.744  24.370  0.00  0.00    +0.292 HD
ENDBRANCH  10  11
ENDBRANCH   3   5
BRANCH   1  13
ATOM     13  O   UNL     1       8.992  -4.528  24.286  0.00  0.00    -0.347 OA
BRANCH  13  15
ATOM     14  C   UNL     1       8.588  -3.388  26.297  0.00  0.00    +0.138 C 
ATOM     15  C   UNL     1       8.551  -4.694  25.569  0.00  0.00    +0.328 C 
ATOM     16  O   UNL     1       8.158  -5.759  26.030  0.00  0.00    -0.249 OA
ENDBRANCH  13  15
ENDBRANCH   1  13
TORSDOF 4
ENDMDL
