MODEL 1
REMARK VINA RESULT:      -5.2      0.000      0.000
REMARK  Name = 
REMARK  4 active torsions:
REMARK  status: ('A' for Active; 'I' for Inactive)
REMARK    1  A    between atoms: C_2  and  O_3
REMARK    2  A    between atoms: C_5  and  C_6
REMARK    3  A    between atoms: C_12  and  C_13
REMARK    4  A    between atoms: C_12  and  C_14
REMARK                            x       y       z     vdW  Elec       q    Type
REMARK                         _______ _______ _______ _____ _____    ______ ____
ROOT
ATOM      1  C   UNL     1      10.039   0.852  22.167  0.00  0.00    +0.120 C 
ATOM      2  C   UNL     1       9.417   0.833  23.615  0.00  0.00    +0.031 C 
ATOM      3  C   UNL     1       8.022   0.160  23.405  0.00  0.00    -0.017 C 
ATOM      4  C   UNL     1       7.063   1.111  22.663  0.00  0.00    +0.012 C 
ATOM      5  C   UNL     1       7.245  -0.323  24.649  0.00  0.00    +0.012 C 
ATOM      6  C   UNL     1       8.664  -1.050  22.653  0.00  0.00    +0.034 C 
ATOM      7  C   UNL     1       7.796  -2.230  22.276  0.00  0.00    +0.020 C 
ATOM      8  C   UNL     1       9.750  -1.443  23.671  0.00  0.00    +0.140 C 
ATOM      9  O   UNL     1      10.216  -2.559  23.836  0.00  0.00    -0.297 OA
ATOM     10  C   UNL     1      10.204  -0.211  24.420  0.00  0.00    +0.081 C 
ATOM     11  C   UNL     1       9.447  -0.412  21.499  0.00  0.00    +0.046 C 
ENDROOT
BRANCH   1  12
ATOM     12  O   UNL     1       9.729   2.040  21.461  0.00  0.00    -0.391 OA
ATOM     13  H   UNL     1       9.762   2.799  22.068  0.00  0.00    +0.210 HD
ENDBRANCH   1  12
TORSDOF 1
ENDMDL
MODEL 2
REMARK VINA RESULT:      -5.2      1.248      1.982
REMARK  Name = 
REMARK  4 active torsions:
REMARK  status: ('A' for Active; 'I' for Inactive)
REMARK    1  A    between atoms: C_2  and  O_3
REMARK    2  A    between atoms: C_5  and  C_6
REMARK    3  A    between atoms: C_12  and  C_13
REMARK    4  A    between atoms: C_12  and  C_14
REMARK                            x       y       z     vdW  Elec       q    Type
REMARK                         _______ _______ _______ _____ _____    ______ ____
ROOT
ATOM      1  C   UNL     1       9.744   1.029  21.711  0.00  0.00    +0.120 C 
ATOM      2  C   UNL     1      10.324   0.196  22.917  0.00  0.00    +0.031 C 
ATOM      3  C   UNL     1       9.290   0.441  24.062  0.00  0.00    -0.017 C 
ATOM      4  C   UNL     1       9.396   1.883  24.595  0.00  0.00    +0.012 C 
ATOM      5  C   UNL     1       9.346  -0.467  25.309  0.00  0.00    +0.012 C 
ATOM      6  C   UNL     1       8.097   0.032  23.138  0.00  0.00    +0.034 C 
ATOM      7  C   UNL     1       6.711  -0.092  23.733  0.00  0.00    +0.020 C 
ATOM      8  C   UNL     1       8.620  -1.320  22.620  0.00  0.00    +0.140 C 
ATOM      9  O   UNL     1       7.939  -2.269  22.267  0.00  0.00    -0.297 OA
ATOM     10  C   UNL     1      10.129  -1.286  22.564  0.00  0.00    +0.081 C 
ATOM     11  C   UNL     1       8.213   0.966  21.926  0.00  0.00    +0.046 C 
ENDROOT
BRANCH   1  12
ATOM     12  O   UNL     1      10.239   2.355  21.683  0.00  0.00    -0.391 OA
ATOM     13  H   UNL     1      11.094   2.396  22.146  0.00  0.00    +0.210 HD
ENDBRANCH   1  12
TORSDOF 1
ENDMDL
MODEL 3
REMARK VINA RESULT:      -4.9      1.667      3.763
REMARK  Name = 
REMARK  4 active torsions:
REMARK  status: ('A' for Active; 'I' for Inactive)
REMARK    1  A    between atoms: C_2  and  O_3
REMARK    2  A    between atoms: C_5  and  C_6
REMARK    3  A    between atoms: C_12  and  C_13
REMARK    4  A    between atoms: C_12  and  C_14
REMARK                            x       y       z     vdW  Elec       q    Type
REMARK                         _______ _______ _______ _____ _____    ______ ____
ROOT
ATOM      1  C   UNL     1       9.262   0.243  21.599  0.00  0.00    +0.120 C 
ATOM      2  C   UNL     1       8.243   0.240  22.802  0.00  0.00    +0.031 C 
ATOM      3  C   UNL     1       9.027   0.956  23.948  0.00  0.00    -0.017 C 
ATOM      4  C   UNL     1      10.153   0.052  24.486  0.00  0.00    +0.012 C 
ATOM      5  C   UNL     1       8.244   1.427  25.192  0.00  0.00    +0.012 C 
ATOM      6  C   UNL     1       9.370   2.169  23.023  0.00  0.00    +0.034 C 
ATOM      7  C   UNL     1      10.051   3.381  23.617  0.00  0.00    +0.020 C 
ATOM      8  C   UNL     1       7.961   2.503  22.500  0.00  0.00    +0.140 C 
ATOM      9  O   UNL     1       7.566   3.601  22.143  0.00  0.00    -0.297 OA
ATOM     10  C   UNL     1       7.134   1.240  22.443  0.00  0.00    +0.081 C 
ATOM     11  C   UNL     1      10.077   1.541  21.814  0.00  0.00    +0.046 C 
ENDROOT
BRANCH   1  12
ATOM     12  O   UNL     1      10.074  -0.916  21.576  0.00  0.00    -0.391 OA
ATOM     13  H   UNL     1      10.279  -1.154  20.655  0.00  0.00    +0.210 HD
ENDBRANCH   1  12
TORSDOF 1
ENDMDL
MODEL 4
REMARK VINA RESULT:      -4.9      1.630      2.536
REMARK  Name = 
REMARK  4 active torsions:
REMARK  status: ('A' for Active; 'I' for Inactive)
REMARK    1  A    between atoms: C_2  and  O_3
REMARK    2  A    between atoms: C_5  and  C_6
REMARK    3  A    between atoms: C_12  and  C_13
REMARK    4  A    between atoms: C_12  and  C_14
REMARK                            x       y       z     vdW  Elec       q    Type
REMARK                         _______ _______ _______ _____ _____    ______ ____
ROOT
ATOM      1  C   UNL     1      10.034  -1.297  22.948  0.00  0.00    +0.120 C 
ATOM      2  C   UNL     1      10.419   0.181  23.340  0.00  0.00    +0.031 C 
ATOM      3  C   UNL     1       9.126   0.994  23.012  0.00  0.00    -0.017 C 
ATOM      4  C   UNL     1       8.927   1.113  21.488  0.00  0.00    +0.012 C 
ATOM      5  C   UNL     1       9.005   2.432  23.559  0.00  0.00    +0.012 C 
ATOM      6  C   UNL     1       8.238   0.013  23.844  0.00  0.00    +0.034 C 
ATOM      7  C   UNL     1       6.779   0.345  24.066  0.00  0.00    +0.020 C 
ATOM      8  C   UNL     1       9.030   0.002  25.165  0.00  0.00    +0.140 C 
ATOM      9  O   UNL     1       8.571  -0.194  26.278  0.00  0.00    -0.297 OA
ATOM     10  C   UNL     1      10.496   0.225  24.873  0.00  0.00    +0.081 C 
ATOM     11  C   UNL     1       8.515  -1.367  23.232  0.00  0.00    +0.046 C 
ENDROOT
BRANCH   1  12
ATOM     12  O   UNL     1      10.355  -1.600  21.603  0.00  0.00    -0.391 OA
ATOM     13  H   UNL     1      10.920  -2.392  21.571  0.00  0.00    +0.210 HD
ENDBRANCH   1  12
TORSDOF 1
ENDMDL
MODEL 5
REMARK VINA RESULT:      -4.9      1.581      3.306
REMARK  Name = 
REMARK  4 active torsions:
REMARK  status: ('A' for Active; 'I' for Inactive)
REMARK    1  A    between atoms: C_2  and  O_3
REMARK    2  A    between atoms: C_5  and  C_6
REMARK    3  A    between atoms: C_12  and  C_13
REMARK    4  A    between atoms: C_12  and  C_14
REMARK                            x       y       z     vdW  Elec       q    Type
REMARK                         _______ _______ _______ _____ _____    ______ ____
ROOT
ATOM      1  C   UNL     1      10.047   1.091  24.375  0.00  0.00    +0.120 C 
ATOM      2  C   UNL     1      10.347   0.344  23.019  0.00  0.00    +0.031 C 
ATOM      3  C   UNL     1       9.316  -0.830  23.014  0.00  0.00    -0.017 C 
ATOM      4  C   UNL     1       9.701  -1.899  24.055  0.00  0.00    +0.012 C 
ATOM      5  C   UNL     1       9.086  -1.600  21.695  0.00  0.00    +0.012 C 
ATOM      6  C   UNL     1       8.128   0.145  23.295  0.00  0.00    +0.034 C 
ATOM      7  C   UNL     1       6.712  -0.386  23.263  0.00  0.00    +0.020 C 
ATOM      8  C   UNL     1       8.374   1.182  22.183  0.00  0.00    +0.140 C 
ATOM      9  O   UNL     1       7.526   1.871  21.639  0.00  0.00    -0.297 OA
ATOM     10  C   UNL     1       9.854   1.263  21.891  0.00  0.00    +0.081 C 
ATOM     11  C   UNL     1       8.529   0.877  24.583  0.00  0.00    +0.046 C 
ENDROOT
BRANCH   1  12
ATOM     12  O   UNL     1      10.823   0.593  25.449  0.00  0.00    -0.391 OA
ATOM     13  H   UNL     1      10.904   1.274  26.139  0.00  0.00    +0.210 HD
ENDBRANCH   1  12
TORSDOF 1
ENDMDL
MODEL 6
REMARK VINA RESULT:      -4.8      1.439      3.053
REMARK  Name = 
REMARK  4 active torsions:
REMARK  status: ('A' for Active; 'I' for Inactive)
REMARK    1  A    between atoms: C_2  and  O_3
REMARK    2  A    between atoms: C_5  and  C_6
REMARK    3  A    between atoms: C_12  and  C_13
REMARK    4  A    between atoms: C_12  and  C_14
REMARK                            x       y       z     vdW  Elec       q    Type
REMARK                         _______ _______ _______ _____ _____    ______ ____
ROOT
ATOM      1  C   UNL     1      10.171  -0.637  22.098  0.00  0.00    +0.120 C 
ATOM      2  C   UNL     1       9.071   0.400  21.650  0.00  0.00    +0.031 C 
ATOM      3  C   UNL     1       8.026   0.347  22.810  0.00  0.00    -0.017 C 
ATOM      4  C   UNL     1       7.241  -0.979  22.778  0.00  0.00    +0.012 C 
ATOM      5  C   UNL     1       6.957   1.459  22.887  0.00  0.00    +0.012 C 
ATOM      6  C   UNL     1       9.135   0.576  23.887  0.00  0.00    +0.034 C 
ATOM      7  C   UNL     1       8.731   0.787  25.330  0.00  0.00    +0.020 C 
ATOM      8  C   UNL     1       9.818   1.823  23.297  0.00  0.00    +0.140 C 
ATOM      9  O   UNL     1      10.406   2.689  23.925  0.00  0.00    -0.297 OA
ATOM     10  C   UNL     1       9.697   1.795  21.791  0.00  0.00    +0.081 C 
ATOM     11  C   UNL     1      10.144  -0.554  23.643  0.00  0.00    +0.046 C 
ENDROOT
BRANCH   1  12
ATOM     12  O   UNL     1       9.912  -1.942  21.615  0.00  0.00    -0.391 OA
ATOM     13  H   UNL     1       9.176  -2.336  22.115  0.00  0.00    +0.210 HD
ENDBRANCH   1  12
TORSDOF 1
ENDMDL
MODEL 7
REMARK VINA RESULT:      -4.8      1.638      2.119
REMARK  Name = 
REMARK  4 active torsions:
REMARK  status: ('A' for Active; 'I' for Inactive)
REMARK    1  A    between atoms: C_2  and  O_3
REMARK    2  A    between atoms: C_5  and  C_6
REMARK    3  A    between atoms: C_12  and  C_13
REMARK    4  A    between atoms: C_12  and  C_14
REMARK                            x       y       z     vdW  Elec       q    Type
REMARK                         _______ _______ _______ _____ _____    ______ ____
ROOT
ATOM      1  C   UNL     1      10.109   2.898  23.555  0.00  0.00    +0.120 C 
ATOM      2  C   UNL     1       8.811   2.236  24.159  0.00  0.00    +0.031 C 
ATOM      3  C   UNL     1       8.084   1.649  22.907  0.00  0.00    -0.017 C 
ATOM      4  C   UNL     1       7.489   2.777  22.042  0.00  0.00    +0.012 C 
ATOM      5  C   UNL     1       6.931   0.647  23.130  0.00  0.00    +0.012 C 
ATOM      6  C   UNL     1       9.377   0.904  22.443  0.00  0.00    +0.034 C 
ATOM      7  C   UNL     1       9.301  -0.045  21.268  0.00  0.00    +0.020 C 
ATOM      8  C   UNL     1       9.738   0.171  23.748  0.00  0.00    +0.140 C 
ATOM      9  O   UNL     1      10.342  -0.886  23.838  0.00  0.00    -0.297 OA
ATOM     10  C   UNL     1       9.270   0.989  24.929  0.00  0.00    +0.081 C 
ATOM     11  C   UNL     1      10.436   2.009  22.331  0.00  0.00    +0.046 C 
ENDROOT
BRANCH   1  12
ATOM     12  O   UNL     1       9.911   4.256  23.208  0.00  0.00    -0.391 OA
ATOM     13  H   UNL     1       8.959   4.448  23.165  0.00  0.00    +0.210 HD
ENDBRANCH   1  12
TORSDOF 1
ENDMDL
MODEL 8
REMARK VINA RESULT:      -4.7      1.771      3.018
REMARK  Name = 
REMARK  4 active torsions:
REMARK  status: ('A' for Active; 'I' for Inactive)
REMARK    1  A    between atoms: C_2  and  O_3
REMARK    2  A    between atoms: C_5  and  C_6
REMARK    3  A    between atoms: C_12  and  C_13
REMARK    4  A    between atoms: C_12  and  C_14
REMARK                            x       y       z     vdW  Elec       q    Type
REMARK                         _______ _______ _______ _____ _____    ______ ____
ROOT
ATOM      1  C   UNL     1       7.198   0.695  22.719  0.00  0.00    +0.120 C 
ATOM      2  C   UNL     1       8.401   1.590  22.233  0.00  0.00    +0.031 C 
ATOM      3  C   UNL     1       9.162   1.928  23.555  0.00  0.00    -0.017 C 
ATOM      4  C   UNL     1       8.355   2.924  24.411  0.00  0.00    +0.012 C 
ATOM      5  C   UNL     1      10.582   2.526  23.453  0.00  0.00    +0.012 C 
ATOM      6  C   UNL     1       9.229   0.420  23.961  0.00  0.00    +0.034 C 
ATOM      7  C   UNL     1      10.033   0.018  25.178  0.00  0.00    +0.020 C 
ATOM      8  C   UNL     1       9.816  -0.172  22.667  0.00  0.00    +0.140 C 
ATOM      9  O   UNL     1      10.503  -1.177  22.580  0.00  0.00    -0.297 OA
ATOM     10  C   UNL     1       9.369   0.660  21.487  0.00  0.00    +0.081 C 
ATOM     11  C   UNL     1       7.767  -0.044  23.954  0.00  0.00    +0.046 C 
ENDROOT
BRANCH   1  12
ATOM     12  O   UNL     1       6.044   1.459  23.021  0.00  0.00    -0.391 OA
ATOM     13  H   UNL     1       5.781   1.304  23.945  0.00  0.00    +0.210 HD
ENDBRANCH   1  12
TORSDOF 1
ENDMDL
MODEL 9
REMARK VINA RESULT:      -4.7      3.738      5.677
REMARK  Name = 
REMARK  4 active torsions:
REMARK  status: ('A' for Active; 'I' for Inactive)
REMARK    1  A    between atoms: C_2  and  O_3
REMARK    2  A    between atoms: C_5  and  C_6
REMARK    3  A    between atoms: C_12  and  C_13
REMARK    4  A    between atoms: C_12  and  C_14
REMARK                            x       y       z     vdW  Elec       q    Type
REMARK                         _______ _______ _______ _____ _____    ______ ____
ROOT
ATOM      1  C   UNL     1       6.156  -5.260  21.484  0.00  0.00    +0.120 C 
ATOM      2  C   UNL     1       5.500  -4.218  22.469  0.00  0.00    +0.031 C 
ATOM      3  C   UNL     1       5.933  -4.727  23.881  0.00  0.00    -0.017 C 
ATOM      4  C   UNL     1       5.184  -6.023  24.248  0.00  0.00    +0.012 C 
ATOM      5  C   UNL     1       5.748  -3.785  25.090  0.00  0.00    +0.012 C 
ATOM      6  C   UNL     1       7.435  -4.785  23.454  0.00  0.00    +0.034 C 
ATOM      7  C   UNL     1       8.488  -5.091  24.496  0.00  0.00    +0.020 C 
ATOM      8  C   UNL     1       7.597  -3.366  22.879  0.00  0.00    +0.140 C 
ATOM      9  O   UNL     1       8.628  -2.714  22.845  0.00  0.00    -0.297 OA
ATOM     10  C   UNL     1       6.278  -2.905  22.303  0.00  0.00    +0.081 C 
ATOM     11  C   UNL     1       7.448  -5.693  22.217  0.00  0.00    +0.046 C 
ENDROOT
BRANCH   1  12
ATOM     12  O   UNL     1       5.297  -6.349  21.199  0.00  0.00    -0.391 OA
ATOM     13  H   UNL     1       4.680  -6.103  20.488  0.00  0.00    +0.210 HD
ENDBRANCH   1  12
TORSDOF 1
ENDMDL
