MODEL 1
REMARK VINA RESULT:      -6.2      0.000      0.000
REMARK  Name = 
REMARK  19 active torsions:
REMARK  status: ('A' for Active; 'I' for Inactive)
REMARK    1  A    between atoms: C_1  and  C_2
REMARK    2  A    between atoms: C_2  and  C_3
REMARK    3  A    between atoms: C_3  and  O_5
REMARK    4  A    between atoms: O_5  and  C_6
REMARK    5  A    between atoms: C_6  and  O_7
REMARK    6  A    between atoms: C_6  and  C_39
REMARK    7  A    between atoms: O_7  and  P_8
REMARK    8  A    between atoms: P_8  and  C_10
REMARK    9  A    between atoms: P_8  and  C_20
REMARK   10  A    between atoms: C_10  and  C_11
REMARK   11  A    between atoms: C_11  and  C_12
REMARK   12  A    between atoms: C_12  and  C_13
REMARK   13  A    between atoms: C_13  and  C_14
REMARK   14  A    between atoms: C_20  and  C_21
REMARK   15  A    between atoms: C_25  and  C_33
REMARK   16  A    between atoms: C_28  and  C_30
REMARK   17  A    between atoms: C_30  and  O_31
REMARK   18  A    between atoms: C_39  and  C_40
REMARK   19  A    between atoms: C_39  and  C_41
REMARK                            x       y       z     vdW  Elec       q    Type
REMARK                         _______ _______ _______ _____ _____    ______ ____
ROOT
ATOM      1  P   UNL     1       6.211  -4.002  26.049  0.00  0.00    +0.216 P 
ATOM      2  O   UNL     1       6.101  -4.965  27.243  0.00  0.00    -0.290 OA
ENDROOT
BRANCH   1   3
ATOM      3  O   UNL     1       6.678  -5.272  24.972  0.00  0.00    -0.286 OA
BRANCH   3   4
ATOM      4  C   UNL     1       5.919  -5.216  23.754  0.00  0.00    +0.319 C 
BRANCH   4   5
ATOM      5  C   UNL     1       6.802  -4.807  22.561  0.00  0.00    +0.052 C 
ATOM      6  C   UNL     1       6.375  -3.481  21.931  0.00  0.00    +0.013 C 
ATOM      7  C   UNL     1       6.831  -5.909  21.502  0.00  0.00    +0.013 C 
ENDBRANCH   4   5
BRANCH   4   8
ATOM      8  O   UNL     1       5.301  -6.474  23.434  0.00  0.00    -0.434 OA
BRANCH   8   9
ATOM      9  C   UNL     1       4.123  -6.732  24.051  0.00  0.00    +0.309 C 
ATOM     10  O   UNL     1       3.826  -7.800  24.578  0.00  0.00    -0.251 OA
BRANCH   9  12
ATOM     11  C   UNL     1       2.020  -5.938  23.018  0.00  0.00    +0.015 C 
ATOM     12  C   UNL     1       3.166  -5.576  23.948  0.00  0.00    +0.117 C 
ENDBRANCH   9  12
ENDBRANCH   8   9
ENDBRANCH   4   8
ENDBRANCH   3   4
ENDBRANCH   1   3
BRANCH   1  13
ATOM     13  C   UNL     1       5.717  -2.658  27.189  0.00  0.00    +0.193 C 
BRANCH  13  14
ATOM     14  C   UNL     1       4.956  -1.569  26.471  0.00  0.00    +0.226 C 
ATOM     15  N   UNL     1       5.071  -0.268  26.923  0.00  0.00    -0.287 N 
ATOM     16  C   UNL     1       5.643   0.219  28.188  0.00  0.00    +0.185 C 
ATOM     17  C   UNL     1       6.030   1.683  27.906  0.00  0.00    +0.039 C 
ATOM     18  C   UNL     1       5.811   1.908  26.392  0.00  0.00    +0.012 C 
ATOM     19  C   UNL     1       4.726   0.866  26.077  0.00  0.00    +0.112 C 
ATOM     20  O   UNL     1       4.254  -1.837  25.497  0.00  0.00    -0.275 OA
BRANCH  18  21
ATOM     21  C   UNL     1       7.124   1.747  25.563  0.00  0.00    -0.006 C 
ATOM     22  C   UNL     1       7.938   3.062  25.461  0.00  0.00    +0.004 C 
ATOM     23  C   UNL     1       7.280   4.115  24.569  0.00  0.00    +0.000 C 
ATOM     24  C   UNL     1       6.963   3.570  23.180  0.00  0.00    +0.000 C 
ATOM     25  C   UNL     1       6.182   2.262  23.241  0.00  0.00    +0.000 C 
ATOM     26  C   UNL     1       6.888   1.236  24.126  0.00  0.00    +0.004 C 
ENDBRANCH  18  21
BRANCH  16  27
ATOM     27  C   UNL     1       4.602   0.194  29.321  0.00  0.00    +0.325 C 
ATOM     28  O   UNL     1       4.222  -0.825  29.876  0.00  0.00    -0.249 OA
BRANCH  27  29
ATOM     29  O   UNL     1       4.162   1.418  29.695  0.00  0.00    -0.479 OA
ATOM     30  H   UNL     1       4.433   2.114  29.062  0.00  0.00    +0.295 HD
ENDBRANCH  27  29
ENDBRANCH  16  27
ENDBRANCH  13  14
ENDBRANCH   1  13
BRANCH   1  31
ATOM     31  C   UNL     1       8.017  -3.337  25.987  0.00  0.00    +0.098 C 
BRANCH  31  32
ATOM     32  C   UNL     1       8.308  -2.327  24.888  0.00  0.00    +0.010 C 
BRANCH  32  33
ATOM     33  C   UNL     1       9.628  -2.538  24.158  0.00  0.00    +0.005 C 
BRANCH  33  34
ATOM     34  C   UNL     1       9.699  -1.870  22.782  0.00  0.00    +0.035 C 
BRANCH  34  35
ATOM     35  C   UNL     1       9.988  -0.386  22.806  0.00  0.00    -0.047 A 
ATOM     36  C   UNL     1      10.565   0.161  23.962  0.00  0.00    +0.003 A 
ATOM     37  C   UNL     1      10.813   1.531  24.053  0.00  0.00    +0.000 A 
ATOM     38  C   UNL     1      10.486   2.371  22.991  0.00  0.00    +0.000 A 
ATOM     39  C   UNL     1       9.903   1.845  21.843  0.00  0.00    +0.000 A 
ATOM     40  C   UNL     1       9.655   0.476  21.752  0.00  0.00    +0.003 A 
ENDBRANCH  34  35
ENDBRANCH  33  34
ENDBRANCH  32  33
ENDBRANCH  31  32
ENDBRANCH   1  31
TORSDOF 16
ENDMDL
MODEL 2
REMARK VINA RESULT:      -6.2      2.224      6.321
REMARK  Name = 
REMARK  19 active torsions:
REMARK  status: ('A' for Active; 'I' for Inactive)
REMARK    1  A    between atoms: C_1  and  C_2
REMARK    2  A    between atoms: C_2  and  C_3
REMARK    3  A    between atoms: C_3  and  O_5
REMARK    4  A    between atoms: O_5  and  C_6
REMARK    5  A    between atoms: C_6  and  O_7
REMARK    6  A    between atoms: C_6  and  C_39
REMARK    7  A    between atoms: O_7  and  P_8
REMARK    8  A    between atoms: P_8  and  C_10
REMARK    9  A    between atoms: P_8  and  C_20
REMARK   10  A    between atoms: C_10  and  C_11
REMARK   11  A    between atoms: C_11  and  C_12
REMARK   12  A    between atoms: C_12  and  C_13
REMARK   13  A    between atoms: C_13  and  C_14
REMARK   14  A    between atoms: C_20  and  C_21
REMARK   15  A    between atoms: C_25  and  C_33
REMARK   16  A    between atoms: C_28  and  C_30
REMARK   17  A    between atoms: C_30  and  O_31
REMARK   18  A    between atoms: C_39  and  C_40
REMARK   19  A    between atoms: C_39  and  C_41
REMARK                            x       y       z     vdW  Elec       q    Type
REMARK                         _______ _______ _______ _____ _____    ______ ____
ROOT
ATOM      1  P   UNL     1       7.729  -2.040  23.452  0.00  0.00    +0.216 P 
ATOM      2  O   UNL     1       7.210  -2.716  22.172  0.00  0.00    -0.290 OA
ENDROOT
BRANCH   1   3
ATOM      3  O   UNL     1       6.899  -0.565  23.098  0.00  0.00    -0.286 OA
BRANCH   3   4
ATOM      4  C   UNL     1       6.366   0.023  24.295  0.00  0.00    +0.319 C 
BRANCH   4   5
ATOM      5  C   UNL     1       5.894   1.468  24.049  0.00  0.00    +0.052 C 
ATOM      6  C   UNL     1       6.279   1.993  22.666  0.00  0.00    +0.013 C 
ATOM      7  C   UNL     1       6.423   2.405  25.135  0.00  0.00    +0.013 C 
ENDBRANCH   4   5
BRANCH   4   8
ATOM      8  O   UNL     1       5.254  -0.720  24.824  0.00  0.00    -0.434 OA
BRANCH   8   9
ATOM      9  C   UNL     1       4.961  -0.504  26.128  0.00  0.00    +0.309 C 
ATOM     10  O   UNL     1       3.922   0.005  26.539  0.00  0.00    -0.251 OA
BRANCH   9  12
ATOM     11  C   UNL     1       6.416   0.264  27.976  0.00  0.00    +0.015 C 
ATOM     12  C   UNL     1       6.099  -0.886  27.034  0.00  0.00    +0.117 C 
ENDBRANCH   9  12
ENDBRANCH   8   9
ENDBRANCH   4   8
ENDBRANCH   3   4
ENDBRANCH   1   3
BRANCH   1  13
ATOM     13  C   UNL     1       8.608  -3.601  23.827  0.00  0.00    +0.193 C 
BRANCH  13  14
ATOM     14  C   UNL     1       7.678  -4.790  23.782  0.00  0.00    +0.226 C 
ATOM     15  N   UNL     1       6.826  -5.009  24.847  0.00  0.00    -0.287 N 
ATOM     16  C   UNL     1       6.845  -4.389  26.182  0.00  0.00    +0.185 C 
ATOM     17  C   UNL     1       5.406  -4.548  26.708  0.00  0.00    +0.039 C 
ATOM     18  C   UNL     1       4.572  -5.111  25.534  0.00  0.00    +0.012 C 
ATOM     19  C   UNL     1       5.645  -5.850  24.718  0.00  0.00    +0.112 C 
ATOM     20  O   UNL     1       7.676  -5.543  22.809  0.00  0.00    -0.275 OA
BRANCH  18  21
ATOM     21  C   UNL     1       3.810  -3.999  24.747  0.00  0.00    -0.006 C 
ATOM     22  C   UNL     1       2.603  -3.425  25.531  0.00  0.00    +0.004 C 
ATOM     23  C   UNL     1       1.435  -4.405  25.649  0.00  0.00    +0.000 C 
ATOM     24  C   UNL     1       0.991  -4.932  24.288  0.00  0.00    +0.000 C 
ATOM     25  C   UNL     1       2.160  -5.484  23.477  0.00  0.00    +0.000 C 
ATOM     26  C   UNL     1       3.291  -4.463  23.370  0.00  0.00    +0.004 C 
ENDBRANCH  18  21
BRANCH  16  27
ATOM     27  C   UNL     1       7.801  -5.132  27.132  0.00  0.00    +0.325 C 
ATOM     28  O   UNL     1       7.451  -6.023  27.891  0.00  0.00    -0.249 OA
BRANCH  27  29
ATOM     29  O   UNL     1       9.093  -4.744  27.032  0.00  0.00    -0.479 OA
ATOM     30  H   UNL     1       9.532  -4.700  27.905  0.00  0.00    +0.295 HD
ENDBRANCH  27  29
ENDBRANCH  16  27
ENDBRANCH  13  14
ENDBRANCH   1  13
BRANCH   1  31
ATOM     31  C   UNL     1       9.389  -1.162  23.028  0.00  0.00    +0.098 C 
BRANCH  31  32
ATOM     32  C   UNL     1       9.324  -0.138  21.905  0.00  0.00    +0.010 C 
BRANCH  32  33
ATOM     33  C   UNL     1      10.125   1.133  22.150  0.00  0.00    +0.005 C 
BRANCH  33  34
ATOM     34  C   UNL     1       9.879   1.777  23.517  0.00  0.00    +0.035 C 
BRANCH  34  35
ATOM     35  C   UNL     1      10.199   3.252  23.596  0.00  0.00    -0.047 A 
ATOM     36  C   UNL     1      11.511   3.665  23.320  0.00  0.00    +0.003 A 
ATOM     37  C   UNL     1      11.869   5.009  23.420  0.00  0.00    +0.000 A 
ATOM     38  C   UNL     1      10.921   5.958  23.797  0.00  0.00    +0.000 A 
ATOM     39  C   UNL     1       9.619   5.563  24.084  0.00  0.00    +0.000 A 
ATOM     40  C   UNL     1       9.261   4.219  23.985  0.00  0.00    +0.003 A 
ENDBRANCH  34  35
ENDBRANCH  33  34
ENDBRANCH  32  33
ENDBRANCH  31  32
ENDBRANCH   1  31
TORSDOF 16
ENDMDL
MODEL 3
REMARK VINA RESULT:      -6.0      2.871      5.512
REMARK  Name = 
REMARK  19 active torsions:
REMARK  status: ('A' for Active; 'I' for Inactive)
REMARK    1  A    between atoms: C_1  and  C_2
REMARK    2  A    between atoms: C_2  and  C_3
REMARK    3  A    between atoms: C_3  and  O_5
REMARK    4  A    between atoms: O_5  and  C_6
REMARK    5  A    between atoms: C_6  and  O_7
REMARK    6  A    between atoms: C_6  and  C_39
REMARK    7  A    between atoms: O_7  and  P_8
REMARK    8  A    between atoms: P_8  and  C_10
REMARK    9  A    between atoms: P_8  and  C_20
REMARK   10  A    between atoms: C_10  and  C_11
REMARK   11  A    between atoms: C_11  and  C_12
REMARK   12  A    between atoms: C_12  and  C_13
REMARK   13  A    between atoms: C_13  and  C_14
REMARK   14  A    between atoms: C_20  and  C_21
REMARK   15  A    between atoms: C_25  and  C_33
REMARK   16  A    between atoms: C_28  and  C_30
REMARK   17  A    between atoms: C_30  and  O_31
REMARK   18  A    between atoms: C_39  and  C_40
REMARK   19  A    between atoms: C_39  and  C_41
REMARK                            x       y       z     vdW  Elec       q    Type
REMARK                         _______ _______ _______ _____ _____    ______ ____
ROOT
ATOM      1  P   UNL     1       8.460  -4.374  24.911  0.00  0.00    +0.216 P 
ATOM      2  O   UNL     1       9.686  -5.304  24.897  0.00  0.00    -0.290 OA
ENDROOT
BRANCH   1   3
ATOM      3  O   UNL     1       9.214  -3.244  23.841  0.00  0.00    -0.286 OA
BRANCH   3   4
ATOM      4  C   UNL     1       8.394  -3.005  22.687  0.00  0.00    +0.319 C 
BRANCH   4   5
ATOM      5  C   UNL     1       6.963  -3.534  22.896  0.00  0.00    +0.052 C 
ATOM      6  C   UNL     1       6.504  -4.468  21.777  0.00  0.00    +0.013 C 
ATOM      7  C   UNL     1       5.974  -2.380  23.059  0.00  0.00    +0.013 C 
ENDBRANCH   4   5
BRANCH   4   8
ATOM      8  O   UNL     1       8.303  -1.608  22.356  0.00  0.00    -0.434 OA
BRANCH   8   9
ATOM      9  C   UNL     1       9.423  -1.044  21.845  0.00  0.00    +0.309 C 
ATOM     10  O   UNL     1      10.547  -1.533  21.909  0.00  0.00    -0.251 OA
BRANCH   9  12
ATOM     11  C   UNL     1       7.851   0.866  21.804  0.00  0.00    +0.015 C 
ATOM     12  C   UNL     1       9.153   0.311  21.251  0.00  0.00    +0.117 C 
ENDBRANCH   9  12
ENDBRANCH   8   9
ENDBRANCH   4   8
ENDBRANCH   3   4
ENDBRANCH   1   3
BRANCH   1  13
ATOM     13  C   UNL     1       7.663  -5.570  26.043  0.00  0.00    +0.193 C 
BRANCH  13  14
ATOM     14  C   UNL     1       6.161  -5.568  25.890  0.00  0.00    +0.226 C 
ATOM     15  N   UNL     1       5.377  -5.380  27.012  0.00  0.00    -0.287 N 
ATOM     16  C   UNL     1       5.774  -5.425  28.429  0.00  0.00    +0.185 C 
ATOM     17  C   UNL     1       4.700  -4.601  29.163  0.00  0.00    +0.039 C 
ATOM     18  C   UNL     1       3.816  -3.962  28.069  0.00  0.00    +0.012 C 
ATOM     19  C   UNL     1       3.988  -4.958  26.911  0.00  0.00    +0.112 C 
ATOM     20  O   UNL     1       5.647  -5.723  24.783  0.00  0.00    -0.275 OA
BRANCH  18  21
ATOM     21  C   UNL     1       4.238  -2.498  27.732  0.00  0.00    -0.006 C 
ATOM     22  C   UNL     1       4.197  -1.560  28.965  0.00  0.00    +0.004 C 
ATOM     23  C   UNL     1       2.778  -1.242  29.439  0.00  0.00    +0.000 C 
ATOM     24  C   UNL     1       1.910  -0.689  28.314  0.00  0.00    +0.000 C 
ATOM     25  C   UNL     1       1.945  -1.575  27.073  0.00  0.00    +0.000 C 
ATOM     26  C   UNL     1       3.380  -1.847  26.626  0.00  0.00    +0.004 C 
ENDBRANCH  18  21
BRANCH  16  27
ATOM     27  C   UNL     1       5.749  -6.865  28.973  0.00  0.00    +0.325 C 
ATOM     28  O   UNL     1       6.736  -7.458  29.378  0.00  0.00    -0.249 OA
BRANCH  27  29
ATOM     29  O   UNL     1       4.515  -7.420  29.011  0.00  0.00    -0.479 OA
ATOM     30  H   UNL     1       4.457  -8.141  29.669  0.00  0.00    +0.295 HD
ENDBRANCH  27  29
ENDBRANCH  16  27
ENDBRANCH  13  14
ENDBRANCH   1  13
BRANCH   1  31
ATOM     31  C   UNL     1       8.690  -3.110  26.345  0.00  0.00    +0.098 C 
BRANCH  31  32
ATOM     32  C   UNL     1       7.572  -2.092  26.510  0.00  0.00    +0.010 C 
BRANCH  32  33
ATOM     33  C   UNL     1       7.783  -0.783  25.760  0.00  0.00    +0.005 C 
BRANCH  33  34
ATOM     34  C   UNL     1       9.248  -0.354  25.646  0.00  0.00    +0.035 C 
BRANCH  34  35
ATOM     35  C   UNL     1       9.468   1.009  25.030  0.00  0.00    -0.047 A 
ATOM     36  C   UNL     1       8.448   1.964  25.148  0.00  0.00    +0.003 A 
ATOM     37  C   UNL     1       8.583   3.223  24.561  0.00  0.00    +0.000 A 
ATOM     38  C   UNL     1       9.737   3.542  23.849  0.00  0.00    +0.000 A 
ATOM     39  C   UNL     1      10.752   2.600  23.715  0.00  0.00    +0.000 A 
ATOM     40  C   UNL     1      10.618   1.342  24.300  0.00  0.00    +0.003 A 
ENDBRANCH  34  35
ENDBRANCH  33  34
ENDBRANCH  32  33
ENDBRANCH  31  32
ENDBRANCH   1  31
TORSDOF 16
ENDMDL
MODEL 4
REMARK VINA RESULT:      -5.9      0.924      2.029
REMARK  Name = 
REMARK  19 active torsions:
REMARK  status: ('A' for Active; 'I' for Inactive)
REMARK    1  A    between atoms: C_1  and  C_2
REMARK    2  A    between atoms: C_2  and  C_3
REMARK    3  A    between atoms: C_3  and  O_5
REMARK    4  A    between atoms: O_5  and  C_6
REMARK    5  A    between atoms: C_6  and  O_7
REMARK    6  A    between atoms: C_6  and  C_39
REMARK    7  A    between atoms: O_7  and  P_8
REMARK    8  A    between atoms: P_8  and  C_10
REMARK    9  A    between atoms: P_8  and  C_20
REMARK   10  A    between atoms: C_10  and  C_11
REMARK   11  A    between atoms: C_11  and  C_12
REMARK   12  A    between atoms: C_12  and  C_13
REMARK   13  A    between atoms: C_13  and  C_14
REMARK   14  A    between atoms: C_20  and  C_21
REMARK   15  A    between atoms: C_25  and  C_33
REMARK   16  A    between atoms: C_28  and  C_30
REMARK   17  A    between atoms: C_30  and  O_31
REMARK   18  A    between atoms: C_39  and  C_40
REMARK   19  A    between atoms: C_39  and  C_41
REMARK                            x       y       z     vdW  Elec       q    Type
REMARK                         _______ _______ _______ _____ _____    ______ ____
ROOT
ATOM      1  P   UNL     1       6.342  -3.849  26.189  0.00  0.00    +0.216 P 
ATOM      2  O   UNL     1       5.875  -4.578  27.460  0.00  0.00    -0.290 OA
ENDROOT
BRANCH   1   3
ATOM      3  O   UNL     1       6.505  -5.330  25.311  0.00  0.00    -0.286 OA
BRANCH   3   4
ATOM      4  C   UNL     1       5.614  -5.358  24.185  0.00  0.00    +0.319 C 
BRANCH   4   5
ATOM      5  C   UNL     1       4.202  -5.813  24.597  0.00  0.00    +0.052 C 
ATOM      6  C   UNL     1       4.201  -7.143  25.351  0.00  0.00    +0.013 C 
ATOM      7  C   UNL     1       3.280  -5.897  23.381  0.00  0.00    +0.013 C 
ENDBRANCH   4   5
BRANCH   4   8
ATOM      8  O   UNL     1       5.494  -4.075  23.546  0.00  0.00    -0.434 OA
BRANCH   8   9
ATOM      9  C   UNL     1       5.909  -4.010  22.259  0.00  0.00    +0.309 C 
ATOM     10  O   UNL     1       5.548  -3.163  21.447  0.00  0.00    -0.251 OA
BRANCH   9  12
ATOM     11  C   UNL     1       6.219  -5.938  20.740  0.00  0.00    +0.015 C 
ATOM     12  C   UNL     1       6.815  -5.156  21.899  0.00  0.00    +0.117 C 
ENDBRANCH   9  12
ENDBRANCH   8   9
ENDBRANCH   4   8
ENDBRANCH   3   4
ENDBRANCH   1   3
BRANCH   1  13
ATOM     13  C   UNL     1       6.170  -2.282  27.118  0.00  0.00    +0.193 C 
BRANCH  13  14
ATOM     14  C   UNL     1       5.326  -1.279  26.369  0.00  0.00    +0.226 C 
ATOM     15  N   UNL     1       5.350   0.043  26.771  0.00  0.00    -0.287 N 
ATOM     16  C   UNL     1       5.898   0.618  28.010  0.00  0.00    +0.185 C 
ATOM     17  C   UNL     1       6.174   2.094  27.668  0.00  0.00    +0.039 C 
ATOM     18  C   UNL     1       5.925   2.245  26.150  0.00  0.00    +0.012 C 
ATOM     19  C   UNL     1       4.915   1.116  25.888  0.00  0.00    +0.112 C 
ATOM     20  O   UNL     1       4.635  -1.634  25.415  0.00  0.00    -0.275 OA
BRANCH  18  21
ATOM     21  C   UNL     1       7.238   2.148  25.311  0.00  0.00    -0.006 C 
ATOM     22  C   UNL     1       7.997   3.496  25.221  0.00  0.00    +0.004 C 
ATOM     23  C   UNL     1       7.291   4.532  24.345  0.00  0.00    +0.000 C 
ATOM     24  C   UNL     1       6.988   3.991  22.952  0.00  0.00    +0.000 C 
ATOM     25  C   UNL     1       6.261   2.651  23.002  0.00  0.00    +0.000 C 
ATOM     26  C   UNL     1       7.014   1.645  23.870  0.00  0.00    +0.004 C 
ENDBRANCH  18  21
BRANCH  16  27
ATOM     27  C   UNL     1       4.872   0.562  29.156  0.00  0.00    +0.325 C 
ATOM     28  O   UNL     1       4.406  -0.475  29.604  0.00  0.00    -0.249 OA
BRANCH  27  29
ATOM     29  O   UNL     1       4.552   1.771  29.671  0.00  0.00    -0.479 OA
ATOM     30  H   UNL     1       3.834   1.710  30.334  0.00  0.00    +0.295 HD
ENDBRANCH  27  29
ENDBRANCH  16  27
ENDBRANCH  13  14
ENDBRANCH   1  13
BRANCH   1  31
ATOM     31  C   UNL     1       8.262  -3.720  26.250  0.00  0.00    +0.098 C 
BRANCH  31  32
ATOM     32  C   UNL     1       8.955  -3.578  24.904  0.00  0.00    +0.010 C 
BRANCH  32  33
ATOM     33  C   UNL     1       8.593  -2.319  24.127  0.00  0.00    +0.005 C 
BRANCH  33  34
ATOM     34  C   UNL     1       9.602  -1.940  23.040  0.00  0.00    +0.035 C 
BRANCH  34  35
ATOM     35  C   UNL     1       9.947  -0.470  22.974  0.00  0.00    -0.047 A 
ATOM     36  C   UNL     1      10.477   0.141  24.120  0.00  0.00    +0.003 A 
ATOM     37  C   UNL     1      10.773   1.505  24.126  0.00  0.00    +0.000 A 
ATOM     38  C   UNL     1      10.542   2.274  22.988  0.00  0.00    +0.000 A 
ATOM     39  C   UNL     1      10.007   1.684  21.847  0.00  0.00    +0.000 A 
ATOM     40  C   UNL     1       9.711   0.322  21.841  0.00  0.00    +0.003 A 
ENDBRANCH  34  35
ENDBRANCH  33  34
ENDBRANCH  32  33
ENDBRANCH  31  32
ENDBRANCH   1  31
TORSDOF 16
ENDMDL
MODEL 5
REMARK VINA RESULT:      -5.8      2.548      6.850
REMARK  Name = 
REMARK  19 active torsions:
REMARK  status: ('A' for Active; 'I' for Inactive)
REMARK    1  A    between atoms: C_1  and  C_2
REMARK    2  A    between atoms: C_2  and  C_3
REMARK    3  A    between atoms: C_3  and  O_5
REMARK    4  A    between atoms: O_5  and  C_6
REMARK    5  A    between atoms: C_6  and  O_7
REMARK    6  A    between atoms: C_6  and  C_39
REMARK    7  A    between atoms: O_7  and  P_8
REMARK    8  A    between atoms: P_8  and  C_10
REMARK    9  A    between atoms: P_8  and  C_20
REMARK   10  A    between atoms: C_10  and  C_11
REMARK   11  A    between atoms: C_11  and  C_12
REMARK   12  A    between atoms: C_12  and  C_13
REMARK   13  A    between atoms: C_13  and  C_14
REMARK   14  A    between atoms: C_20  and  C_21
REMARK   15  A    between atoms: C_25  and  C_33
REMARK   16  A    between atoms: C_28  and  C_30
REMARK   17  A    between atoms: C_30  and  O_31
REMARK   18  A    between atoms: C_39  and  C_40
REMARK   19  A    between atoms: C_39  and  C_41
REMARK                            x       y       z     vdW  Elec       q    Type
REMARK                         _______ _______ _______ _____ _____    ______ ____
ROOT
ATOM      1  P   UNL     1       7.432  -0.511  23.394  0.00  0.00    +0.216 P 
ATOM      2  O   UNL     1       8.216  -0.348  22.081  0.00  0.00    -0.290 OA
ENDROOT
BRANCH   1   3
ATOM      3  O   UNL     1       6.452   0.877  23.066  0.00  0.00    -0.286 OA
BRANCH   3   4
ATOM      4  C   UNL     1       6.085   1.544  24.284  0.00  0.00    +0.319 C 
BRANCH   4   5
ATOM      5  C   UNL     1       5.920   3.059  24.066  0.00  0.00    +0.052 C 
ATOM      6  C   UNL     1       6.514   3.539  22.742  0.00  0.00    +0.013 C 
ATOM      7  C   UNL     1       6.523   3.845  25.230  0.00  0.00    +0.013 C 
ENDBRANCH   4   5
BRANCH   4   8
ATOM      8  O   UNL     1       4.855   1.041  24.836  0.00  0.00    -0.434 OA
BRANCH   8   9
ATOM      9  C   UNL     1       4.916   0.592  26.112  0.00  0.00    +0.309 C 
ATOM     10  O   UNL     1       5.039   1.306  27.102  0.00  0.00    -0.251 OA
BRANCH   9  12
ATOM     11  C   UNL     1       6.061  -1.399  27.033  0.00  0.00    +0.015 C 
ATOM     12  C   UNL     1       4.899  -0.911  26.184  0.00  0.00    +0.117 C 
ENDBRANCH   9  12
ENDBRANCH   8   9
ENDBRANCH   4   8
ENDBRANCH   3   4
ENDBRANCH   1   3
BRANCH   1  13
ATOM     13  C   UNL     1       8.468  -1.978  23.741  0.00  0.00    +0.193 C 
BRANCH  13  14
ATOM     14  C   UNL     1       7.833  -3.246  23.221  0.00  0.00    +0.226 C 
ATOM     15  N   UNL     1       7.437  -4.211  24.126  0.00  0.00    -0.287 N 
ATOM     16  C   UNL     1       7.764  -4.320  25.557  0.00  0.00    +0.185 C 
ATOM     17  C   UNL     1       6.637  -5.186  26.151  0.00  0.00    +0.039 C 
ATOM     18  C   UNL     1       5.598  -5.385  25.024  0.00  0.00    +0.012 C 
ATOM     19  C   UNL     1       6.473  -5.242  23.768  0.00  0.00    +0.112 C 
ATOM     20  O   UNL     1       7.667  -3.409  22.013  0.00  0.00    -0.275 OA
BRANCH  18  21
ATOM     21  C   UNL     1       4.415  -4.371  25.109  0.00  0.00    -0.006 C 
ATOM     22  C   UNL     1       3.442  -4.675  26.276  0.00  0.00    +0.004 C 
ATOM     23  C   UNL     1       2.598  -5.930  26.051  0.00  0.00    +0.000 C 
ATOM     24  C   UNL     1       1.847  -5.883  24.724  0.00  0.00    +0.000 C 
ATOM     25  C   UNL     1       2.771  -5.561  23.553  0.00  0.00    +0.000 C 
ATOM     26  C   UNL     1       3.577  -4.290  23.816  0.00  0.00    +0.004 C 
ENDBRANCH  18  21
BRANCH  16  27
ATOM     27  C   UNL     1       9.106  -5.043  25.773  0.00  0.00    +0.325 C 
ATOM     28  O   UNL     1       9.719  -5.620  24.888  0.00  0.00    -0.249 OA
BRANCH  27  29
ATOM     29  O   UNL     1       9.586  -4.951  27.034  0.00  0.00    -0.479 OA
ATOM     30  H   UNL     1      10.555  -5.085  27.068  0.00  0.00    +0.295 HD
ENDBRANCH  27  29
ENDBRANCH  16  27
ENDBRANCH  13  14
ENDBRANCH   1  13
BRANCH   1  31
ATOM     31  C   UNL     1       8.339   0.501  24.757  0.00  0.00    +0.098 C 
BRANCH  31  32
ATOM     32  C   UNL     1       9.817   0.190  24.933  0.00  0.00    +0.010 C 
BRANCH  32  33
ATOM     33  C   UNL     1      10.763   1.183  24.271  0.00  0.00    +0.005 C 
BRANCH  33  34
ATOM     34  C   UNL     1      10.061   2.272  23.456  0.00  0.00    +0.035 C 
BRANCH  34  35
ATOM     35  C   UNL     1      10.593   3.671  23.667  0.00  0.00    -0.047 A 
ATOM     36  C   UNL     1       9.718   4.648  24.165  0.00  0.00    +0.003 A 
ATOM     37  C   UNL     1      10.146   5.965  24.337  0.00  0.00    +0.000 A 
ATOM     38  C   UNL     1      11.453   6.322  24.014  0.00  0.00    +0.000 A 
ATOM     39  C   UNL     1      12.329   5.367  23.508  0.00  0.00    +0.000 A 
ATOM     40  C   UNL     1      11.901   4.051  23.335  0.00  0.00    +0.003 A 
ENDBRANCH  34  35
ENDBRANCH  33  34
ENDBRANCH  32  33
ENDBRANCH  31  32
ENDBRANCH   1  31
TORSDOF 16
ENDMDL
MODEL 6
REMARK VINA RESULT:      -5.8      2.440      3.850
REMARK  Name = 
REMARK  19 active torsions:
REMARK  status: ('A' for Active; 'I' for Inactive)
REMARK    1  A    between atoms: C_1  and  C_2
REMARK    2  A    between atoms: C_2  and  C_3
REMARK    3  A    between atoms: C_3  and  O_5
REMARK    4  A    between atoms: O_5  and  C_6
REMARK    5  A    between atoms: C_6  and  O_7
REMARK    6  A    between atoms: C_6  and  C_39
REMARK    7  A    between atoms: O_7  and  P_8
REMARK    8  A    between atoms: P_8  and  C_10
REMARK    9  A    between atoms: P_8  and  C_20
REMARK   10  A    between atoms: C_10  and  C_11
REMARK   11  A    between atoms: C_11  and  C_12
REMARK   12  A    between atoms: C_12  and  C_13
REMARK   13  A    between atoms: C_13  and  C_14
REMARK   14  A    between atoms: C_20  and  C_21
REMARK   15  A    between atoms: C_25  and  C_33
REMARK   16  A    between atoms: C_28  and  C_30
REMARK   17  A    between atoms: C_30  and  O_31
REMARK   18  A    between atoms: C_39  and  C_40
REMARK   19  A    between atoms: C_39  and  C_41
REMARK                            x       y       z     vdW  Elec       q    Type
REMARK                         _______ _______ _______ _____ _____    ______ ____
ROOT
ATOM      1  P   UNL     1       7.969  -1.570  24.063  0.00  0.00    +0.216 P 
ATOM      2  O   UNL     1       9.413  -1.672  24.583  0.00  0.00    -0.290 OA
ENDROOT
BRANCH   1   3
ATOM      3  O   UNL     1       8.214  -2.843  22.918  0.00  0.00    -0.286 OA
BRANCH   3   4
ATOM      4  C   UNL     1       7.524  -4.036  23.322  0.00  0.00    +0.319 C 
BRANCH   4   5
ATOM      5  C   UNL     1       6.540  -4.510  22.236  0.00  0.00    +0.052 C 
ATOM      6  C   UNL     1       5.117  -4.696  22.762  0.00  0.00    +0.013 C 
ATOM      7  C   UNL     1       7.033  -5.801  21.582  0.00  0.00    +0.013 C 
ENDBRANCH   4   5
BRANCH   4   8
ATOM      8  O   UNL     1       8.423  -5.121  23.607  0.00  0.00    -0.434 OA
BRANCH   8   9
ATOM      9  C   UNL     1       8.962  -5.137  24.849  0.00  0.00    +0.309 C 
ATOM     10  O   UNL     1      10.150  -4.966  25.101  0.00  0.00    -0.251 OA
BRANCH   9  12
ATOM     11  C   UNL     1       7.752  -4.287  26.834  0.00  0.00    +0.015 C 
ATOM     12  C   UNL     1       7.942  -5.474  25.903  0.00  0.00    +0.117 C 
ENDBRANCH   9  12
ENDBRANCH   8   9
ENDBRANCH   4   8
ENDBRANCH   3   4
ENDBRANCH   1   3
BRANCH   1  13
ATOM     13  C   UNL     1       7.710  -0.223  25.275  0.00  0.00    +0.193 C 
BRANCH  13  14
ATOM     14  C   UNL     1       6.278   0.255  25.279  0.00  0.00    +0.226 C 
ATOM     15  N   UNL     1       6.004   1.530  25.735  0.00  0.00    -0.287 N 
ATOM     16  C   UNL     1       6.883   2.451  26.475  0.00  0.00    +0.185 C 
ATOM     17  C   UNL     1       6.300   3.851  26.204  0.00  0.00    +0.039 C 
ATOM     18  C   UNL     1       5.188   3.664  25.146  0.00  0.00    +0.012 C 
ATOM     19  C   UNL     1       4.761   2.209  25.400  0.00  0.00    +0.112 C 
ATOM     20  O   UNL     1       5.375  -0.477  24.876  0.00  0.00    -0.275 OA
BRANCH  18  21
ATOM     21  C   UNL     1       5.683   3.950  23.694  0.00  0.00    -0.006 C 
ATOM     22  C   UNL     1       5.807   5.464  23.386  0.00  0.00    +0.004 C 
ATOM     23  C   UNL     1       4.456   6.171  23.267  0.00  0.00    +0.000 C 
ATOM     24  C   UNL     1       3.542   5.490  22.254  0.00  0.00    +0.000 C 
ATOM     25  C   UNL     1       3.415   3.992  22.512  0.00  0.00    +0.000 C 
ATOM     26  C   UNL     1       4.788   3.327  22.602  0.00  0.00    +0.004 C 
ENDBRANCH  18  21
BRANCH  16  27
ATOM     27  C   UNL     1       6.831   2.181  27.989  0.00  0.00    +0.325 C 
ATOM     28  O   UNL     1       6.240   1.239  28.494  0.00  0.00    -0.249 OA
BRANCH  27  29
ATOM     29  O   UNL     1       7.541   3.061  28.732  0.00  0.00    -0.479 OA
ATOM     30  H   UNL     1       7.040   3.368  29.515  0.00  0.00    +0.295 HD
ENDBRANCH  27  29
ENDBRANCH  16  27
ENDBRANCH  13  14
ENDBRANCH   1  13
BRANCH   1  31
ATOM     31  C   UNL     1       7.951  -0.314  22.604  0.00  0.00    +0.098 C 
BRANCH  31  32
ATOM     32  C   UNL     1       9.313   0.189  22.151  0.00  0.00    +0.010 C 
BRANCH  32  33
ATOM     33  C   UNL     1       9.428   1.702  22.025  0.00  0.00    +0.005 C 
BRANCH  33  34
ATOM     34  C   UNL     1       9.102   2.466  23.312  0.00  0.00    +0.035 C 
BRANCH  34  35
ATOM     35  C   UNL     1       9.973   3.673  23.576  0.00  0.00    -0.047 A 
ATOM     36  C   UNL     1       9.374   4.821  24.115  0.00  0.00    +0.003 A 
ATOM     37  C   UNL     1      10.124   5.976  24.337  0.00  0.00    +0.000 A 
ATOM     38  C   UNL     1      11.481   5.999  24.023  0.00  0.00    +0.000 A 
ATOM     39  C   UNL     1      12.087   4.872  23.478  0.00  0.00    +0.000 A 
ATOM     40  C   UNL     1      11.337   3.717  23.255  0.00  0.00    +0.003 A 
ENDBRANCH  34  35
ENDBRANCH  33  34
ENDBRANCH  32  33
ENDBRANCH  31  32
ENDBRANCH   1  31
TORSDOF 16
ENDMDL
MODEL 7
REMARK VINA RESULT:      -5.8      1.759      2.426
REMARK  Name = 
REMARK  19 active torsions:
REMARK  status: ('A' for Active; 'I' for Inactive)
REMARK    1  A    between atoms: C_1  and  C_2
REMARK    2  A    between atoms: C_2  and  C_3
REMARK    3  A    between atoms: C_3  and  O_5
REMARK    4  A    between atoms: O_5  and  C_6
REMARK    5  A    between atoms: C_6  and  O_7
REMARK    6  A    between atoms: C_6  and  C_39
REMARK    7  A    between atoms: O_7  and  P_8
REMARK    8  A    between atoms: P_8  and  C_10
REMARK    9  A    between atoms: P_8  and  C_20
REMARK   10  A    between atoms: C_10  and  C_11
REMARK   11  A    between atoms: C_11  and  C_12
REMARK   12  A    between atoms: C_12  and  C_13
REMARK   13  A    between atoms: C_13  and  C_14
REMARK   14  A    between atoms: C_20  and  C_21
REMARK   15  A    between atoms: C_25  and  C_33
REMARK   16  A    between atoms: C_28  and  C_30
REMARK   17  A    between atoms: C_30  and  O_31
REMARK   18  A    between atoms: C_39  and  C_40
REMARK   19  A    between atoms: C_39  and  C_41
REMARK                            x       y       z     vdW  Elec       q    Type
REMARK                         _______ _______ _______ _____ _____    ______ ____
ROOT
ATOM      1  P   UNL     1       7.069  -3.527  25.830  0.00  0.00    +0.216 P 
ATOM      2  O   UNL     1       7.723  -3.982  27.145  0.00  0.00    -0.290 OA
ENDROOT
BRANCH   1   3
ATOM      3  O   UNL     1       6.811  -5.157  25.309  0.00  0.00    -0.286 OA
BRANCH   3   4
ATOM      4  C   UNL     1       5.448  -5.553  25.526  0.00  0.00    +0.319 C 
BRANCH   4   5
ATOM      5  C   UNL     1       4.698  -5.739  24.195  0.00  0.00    +0.052 C 
ATOM      6  C   UNL     1       5.617  -6.149  23.045  0.00  0.00    +0.013 C 
ATOM      7  C   UNL     1       3.925  -4.473  23.825  0.00  0.00    +0.013 C 
ENDBRANCH   4   5
BRANCH   4   8
ATOM      8  O   UNL     1       5.345  -6.784  26.265  0.00  0.00    -0.434 OA
BRANCH   8   9
ATOM      9  C   UNL     1       5.170  -6.662  27.602  0.00  0.00    +0.309 C 
ATOM     10  O   UNL     1       5.637  -7.423  28.443  0.00  0.00    -0.251 OA
BRANCH   9  12
ATOM     11  C   UNL     1       4.837  -4.730  29.112  0.00  0.00    +0.015 C 
ATOM     12  C   UNL     1       4.255  -5.519  27.950  0.00  0.00    +0.117 C 
ENDBRANCH   9  12
ENDBRANCH   8   9
ENDBRANCH   4   8
ENDBRANCH   3   4
ENDBRANCH   1   3
BRANCH   1  13
ATOM     13  C   UNL     1       7.342  -1.803  26.380  0.00  0.00    +0.193 C 
BRANCH  13  14
ATOM     14  C   UNL     1       6.109  -0.954  26.187  0.00  0.00    +0.226 C 
ATOM     15  N   UNL     1       6.165   0.385  26.522  0.00  0.00    -0.287 N 
ATOM     16  C   UNL     1       7.195   1.098  27.295  0.00  0.00    +0.185 C 
ATOM     17  C   UNL     1       7.058   2.571  26.865  0.00  0.00    +0.039 C 
ATOM     18  C   UNL     1       6.041   2.593  25.702  0.00  0.00    +0.012 C 
ATOM     19  C   UNL     1       5.199   1.342  26.001  0.00  0.00    +0.112 C 
ATOM     20  O   UNL     1       5.078  -1.447  25.732  0.00  0.00    -0.275 OA
BRANCH  18  21
ATOM     21  C   UNL     1       6.728   2.592  24.300  0.00  0.00    -0.006 C 
ATOM     22  C   UNL     1       7.549   3.878  24.030  0.00  0.00    +0.004 C 
ATOM     23  C   UNL     1       6.681   5.118  23.812  0.00  0.00    +0.000 C 
ATOM     24  C   UNL     1       5.643   4.903  22.716  0.00  0.00    +0.000 C 
ATOM     25  C   UNL     1       4.830   3.631  22.936  0.00  0.00    +0.000 C 
ATOM     26  C   UNL     1       5.739   2.419  23.128  0.00  0.00    +0.004 C 
ENDBRANCH  18  21
BRANCH  16  27
ATOM     27  C   UNL     1       6.930   1.000  28.808  0.00  0.00    +0.325 C 
ATOM     28  O   UNL     1       5.842   0.730  29.293  0.00  0.00    -0.249 OA
BRANCH  27  29
ATOM     29  O   UNL     1       8.026   1.198  29.575  0.00  0.00    -0.479 OA
ATOM     30  H   UNL     1       8.000   2.059  30.039  0.00  0.00    +0.295 HD
ENDBRANCH  27  29
ENDBRANCH  16  27
ENDBRANCH  13  14
ENDBRANCH   1  13
BRANCH   1  31
ATOM     31  C   UNL     1       8.454  -3.364  24.502  0.00  0.00    +0.098 C 
BRANCH  31  32
ATOM     32  C   UNL     1       8.003  -3.517  23.058  0.00  0.00    +0.010 C 
BRANCH  32  33
ATOM     33  C   UNL     1       8.242  -2.296  22.180  0.00  0.00    +0.005 C 
BRANCH  33  34
ATOM     34  C   UNL     1       7.734  -0.982  22.780  0.00  0.00    +0.035 C 
BRANCH  34  35
ATOM     35  C   UNL     1       8.785   0.089  22.954  0.00  0.00    -0.047 A 
ATOM     36  C   UNL     1       9.369   0.250  24.219  0.00  0.00    +0.003 A 
ATOM     37  C   UNL     1      10.314   1.253  24.444  0.00  0.00    +0.000 A 
ATOM     38  C   UNL     1      10.685   2.107  23.408  0.00  0.00    +0.000 A 
ATOM     39  C   UNL     1      10.107   1.966  22.151  0.00  0.00    +0.000 A 
ATOM     40  C   UNL     1       9.163   0.965  21.926  0.00  0.00    +0.003 A 
ENDBRANCH  34  35
ENDBRANCH  33  34
ENDBRANCH  32  33
ENDBRANCH  31  32
ENDBRANCH   1  31
TORSDOF 16
ENDMDL
MODEL 8
REMARK VINA RESULT:      -5.6      2.310      4.111
REMARK  Name = 
REMARK  19 active torsions:
REMARK  status: ('A' for Active; 'I' for Inactive)
REMARK    1  A    between atoms: C_1  and  C_2
REMARK    2  A    between atoms: C_2  and  C_3
REMARK    3  A    between atoms: C_3  and  O_5
REMARK    4  A    between atoms: O_5  and  C_6
REMARK    5  A    between atoms: C_6  and  O_7
REMARK    6  A    between atoms: C_6  and  C_39
REMARK    7  A    between atoms: O_7  and  P_8
REMARK    8  A    between atoms: P_8  and  C_10
REMARK    9  A    between atoms: P_8  and  C_20
REMARK   10  A    between atoms: C_10  and  C_11
REMARK   11  A    between atoms: C_11  and  C_12
REMARK   12  A    between atoms: C_12  and  C_13
REMARK   13  A    between atoms: C_13  and  C_14
REMARK   14  A    between atoms: C_20  and  C_21
REMARK   15  A    between atoms: C_25  and  C_33
REMARK   16  A    between atoms: C_28  and  C_30
REMARK   17  A    between atoms: C_30  and  O_31
REMARK   18  A    between atoms: C_39  and  C_40
REMARK   19  A    between atoms: C_39  and  C_41
REMARK                            x       y       z     vdW  Elec       q    Type
REMARK                         _______ _______ _______ _____ _____    ______ ____
ROOT
ATOM      1  P   UNL     1       5.795  -1.384  26.145  0.00  0.00    +0.216 P 
ATOM      2  O   UNL     1       4.496  -1.486  26.961  0.00  0.00    -0.290 OA
ENDROOT
BRANCH   1   3
ATOM      3  O   UNL     1       6.349  -2.927  26.696  0.00  0.00    -0.286 OA
BRANCH   3   4
ATOM      4  C   UNL     1       5.957  -3.967  25.786  0.00  0.00    +0.319 C 
BRANCH   4   5
ATOM      5  C   UNL     1       5.618  -3.398  24.396  0.00  0.00    +0.052 C 
ATOM      6  C   UNL     1       4.243  -3.836  23.894  0.00  0.00    +0.013 C 
ATOM      7  C   UNL     1       6.695  -3.771  23.378  0.00  0.00    +0.013 C 
ENDBRANCH   4   5
BRANCH   4   8
ATOM      8  O   UNL     1       6.981  -4.963  25.617  0.00  0.00    -0.434 OA
BRANCH   8   9
ATOM      9  C   UNL     1       7.770  -5.193  26.693  0.00  0.00    +0.309 C 
ATOM     10  O   UNL     1       7.423  -5.802  27.701  0.00  0.00    -0.251 OA
BRANCH   9  12
ATOM     11  C   UNL     1       9.721  -4.881  25.203  0.00  0.00    +0.015 C 
ATOM     12  C   UNL     1       9.118  -4.539  26.556  0.00  0.00    +0.117 C 
ENDBRANCH   9  12
ENDBRANCH   8   9
ENDBRANCH   4   8
ENDBRANCH   3   4
ENDBRANCH   1   3
BRANCH   1  13
ATOM     13  C   UNL     1       5.208   0.249  25.561  0.00  0.00    +0.193 C 
BRANCH  13  14
ATOM     14  C   UNL     1       5.922   0.681  24.303  0.00  0.00    +0.226 C 
ATOM     15  N   UNL     1       5.892   2.015  23.946  0.00  0.00    -0.287 N 
ATOM     16  C   UNL     1       5.043   3.092  24.480  0.00  0.00    +0.185 C 
ATOM     17  C   UNL     1       5.811   4.389  24.167  0.00  0.00    +0.039 C 
ATOM     18  C   UNL     1       7.186   3.959  23.609  0.00  0.00    +0.012 C 
ATOM     19  C   UNL     1       6.861   2.578  23.017  0.00  0.00    +0.112 C 
ATOM     20  O   UNL     1       6.524  -0.142  23.614  0.00  0.00    -0.275 OA
BRANCH  18  21
ATOM     21  C   UNL     1       8.303   3.950  24.699  0.00  0.00    -0.006 C 
ATOM     22  C   UNL     1       8.056   4.986  25.824  0.00  0.00    +0.004 C 
ATOM     23  C   UNL     1       8.247   6.434  25.370  0.00  0.00    +0.000 C 
ATOM     24  C   UNL     1       9.613   6.655  24.727  0.00  0.00    +0.000 C 
ATOM     25  C   UNL     1       9.902   5.637  23.629  0.00  0.00    +0.000 C 
ATOM     26  C   UNL     1       9.717   4.207  24.135  0.00  0.00    +0.004 C 
ENDBRANCH  18  21
BRANCH  16  27
ATOM     27  C   UNL     1       3.681   3.140  23.764  0.00  0.00    +0.325 C 
ATOM     28  O   UNL     1       3.523   3.563  22.629  0.00  0.00    -0.249 OA
BRANCH  27  29
ATOM     29  O   UNL     1       2.658   2.629  24.486  0.00  0.00    -0.479 OA
ATOM     30  H   UNL     1       2.297   1.813  24.085  0.00  0.00    +0.295 HD
ENDBRANCH  27  29
ENDBRANCH  16  27
ENDBRANCH  13  14
ENDBRANCH   1  13
BRANCH   1  31
ATOM     31  C   UNL     1       7.130  -0.551  27.254  0.00  0.00    +0.098 C 
BRANCH  31  32
ATOM     32  C   UNL     1       8.567  -0.705  26.782  0.00  0.00    +0.010 C 
BRANCH  32  33
ATOM     33  C   UNL     1       9.133   0.503  26.049  0.00  0.00    +0.005 C 
BRANCH  33  34
ATOM     34  C   UNL     1      10.350   0.193  25.173  0.00  0.00    +0.035 C 
BRANCH  34  35
ATOM     35  C   UNL     1      10.030  -0.181  23.744  0.00  0.00    -0.047 A 
ATOM     36  C   UNL     1       9.917   0.846  22.796  0.00  0.00    +0.003 A 
ATOM     37  C   UNL     1       9.581   0.560  21.472  0.00  0.00    +0.000 A 
ATOM     38  C   UNL     1       9.352  -0.758  21.080  0.00  0.00    +0.000 A 
ATOM     39  C   UNL     1       9.450  -1.786  22.011  0.00  0.00    +0.000 A 
ATOM     40  C   UNL     1       9.785  -1.500  23.334  0.00  0.00    +0.003 A 
ENDBRANCH  34  35
ENDBRANCH  33  34
ENDBRANCH  32  33
ENDBRANCH  31  32
ENDBRANCH   1  31
TORSDOF 16
ENDMDL
MODEL 9
REMARK VINA RESULT:      -5.6      2.619      7.232
REMARK  Name = 
REMARK  19 active torsions:
REMARK  status: ('A' for Active; 'I' for Inactive)
REMARK    1  A    between atoms: C_1  and  C_2
REMARK    2  A    between atoms: C_2  and  C_3
REMARK    3  A    between atoms: C_3  and  O_5
REMARK    4  A    between atoms: O_5  and  C_6
REMARK    5  A    between atoms: C_6  and  O_7
REMARK    6  A    between atoms: C_6  and  C_39
REMARK    7  A    between atoms: O_7  and  P_8
REMARK    8  A    between atoms: P_8  and  C_10
REMARK    9  A    between atoms: P_8  and  C_20
REMARK   10  A    between atoms: C_10  and  C_11
REMARK   11  A    between atoms: C_11  and  C_12
REMARK   12  A    between atoms: C_12  and  C_13
REMARK   13  A    between atoms: C_13  and  C_14
REMARK   14  A    between atoms: C_20  and  C_21
REMARK   15  A    between atoms: C_25  and  C_33
REMARK   16  A    between atoms: C_28  and  C_30
REMARK   17  A    between atoms: C_30  and  O_31
REMARK   18  A    between atoms: C_39  and  C_40
REMARK   19  A    between atoms: C_39  and  C_41
REMARK                            x       y       z     vdW  Elec       q    Type
REMARK                         _______ _______ _______ _____ _____    ______ ____
ROOT
ATOM      1  P   UNL     1       7.145  -0.355  25.584  0.00  0.00    +0.216 P 
ATOM      2  O   UNL     1       7.693  -0.706  26.978  0.00  0.00    -0.290 OA
ENDROOT
BRANCH   1   3
ATOM      3  O   UNL     1       8.407   0.793  25.297  0.00  0.00    -0.286 OA
BRANCH   3   4
ATOM      4  C   UNL     1       8.863   0.723  23.936  0.00  0.00    +0.319 C 
BRANCH   4   5
ATOM      5  C   UNL     1       9.014   2.127  23.322  0.00  0.00    +0.052 C 
ATOM      6  C   UNL     1       8.479   2.213  21.893  0.00  0.00    +0.013 C 
ATOM      7  C   UNL     1      10.470   2.588  23.368  0.00  0.00    +0.013 C 
ENDBRANCH   4   5
BRANCH   4   8
ATOM      8  O   UNL     1      10.128   0.050  23.815  0.00  0.00    -0.434 OA
BRANCH   8   9
ATOM      9  C   UNL     1      10.160  -1.008  22.970  0.00  0.00    +0.309 C 
ATOM     10  O   UNL     1      10.150  -0.929  21.746  0.00  0.00    -0.251 OA
BRANCH   9  12
ATOM     11  C   UNL     1       8.891  -3.105  23.302  0.00  0.00    +0.015 C 
ATOM     12  C   UNL     1      10.127  -2.319  23.706  0.00  0.00    +0.117 C 
ENDBRANCH   9  12
ENDBRANCH   8   9
ENDBRANCH   4   8
ENDBRANCH   3   4
ENDBRANCH   1   3
BRANCH   1  13
ATOM     13  C   UNL     1       5.810  -1.569  25.888  0.00  0.00    +0.193 C 
BRANCH  13  14
ATOM     14  C   UNL     1       5.764  -2.629  24.813  0.00  0.00    +0.226 C 
ATOM     15  N   UNL     1       5.881  -3.955  25.181  0.00  0.00    -0.287 N 
ATOM     16  C   UNL     1       6.302  -4.517  26.474  0.00  0.00    +0.185 C 
ATOM     17  C   UNL     1       5.701  -5.935  26.499  0.00  0.00    +0.039 C 
ATOM     18  C   UNL     1       4.792  -6.047  25.254  0.00  0.00    +0.012 C 
ATOM     19  C   UNL     1       5.444  -5.031  24.302  0.00  0.00    +0.112 C 
ATOM     20  O   UNL     1       5.618  -2.313  23.633  0.00  0.00    -0.275 OA
BRANCH  18  21
ATOM     21  C   UNL     1       3.292  -5.763  25.576  0.00  0.00    -0.006 C 
ATOM     22  C   UNL     1       2.550  -7.003  26.135  0.00  0.00    +0.004 C 
ATOM     23  C   UNL     1       2.314  -8.092  25.089  0.00  0.00    +0.000 C 
ATOM     24  C   UNL     1       1.602  -7.553  23.853  0.00  0.00    +0.000 C 
ATOM     25  C   UNL     1       2.292  -6.315  23.287  0.00  0.00    +0.000 C 
ATOM     26  C   UNL     1       2.487  -5.249  24.363  0.00  0.00    +0.004 C 
ENDBRANCH  18  21
BRANCH  16  27
ATOM     27  C   UNL     1       7.834  -4.630  26.565  0.00  0.00    +0.325 C 
ATOM     28  O   UNL     1       8.580  -3.675  26.715  0.00  0.00    -0.249 OA
BRANCH  27  29
ATOM     29  O   UNL     1       8.300  -5.899  26.507  0.00  0.00    -0.479 OA
ATOM     30  H   UNL     1       8.496  -6.259  27.396  0.00  0.00    +0.295 HD
ENDBRANCH  27  29
ENDBRANCH  16  27
ENDBRANCH  13  14
ENDBRANCH   1  13
BRANCH   1  31
ATOM     31  C   UNL     1       5.911   1.110  25.782  0.00  0.00    +0.098 C 
BRANCH  31  32
ATOM     32  C   UNL     1       5.376   1.699  24.486  0.00  0.00    +0.010 C 
BRANCH  32  33
ATOM     33  C   UNL     1       5.428   3.219  24.405  0.00  0.00    +0.005 C 
BRANCH  33  34
ATOM     34  C   UNL     1       6.377   3.870  25.414  0.00  0.00    +0.035 C 
BRANCH  34  35
ATOM     35  C   UNL     1       7.410   4.797  24.815  0.00  0.00    -0.047 A 
ATOM     36  C   UNL     1       7.178   5.309  23.529  0.00  0.00    +0.003 A 
ATOM     37  C   UNL     1       8.119   6.134  22.912  0.00  0.00    +0.000 A 
ATOM     38  C   UNL     1       9.303   6.457  23.572  0.00  0.00    +0.000 A 
ATOM     39  C   UNL     1       9.552   5.948  24.842  0.00  0.00    +0.000 A 
ATOM     40  C   UNL     1       8.612   5.122  25.458  0.00  0.00    +0.003 A 
ENDBRANCH  34  35
ENDBRANCH  33  34
ENDBRANCH  32  33
ENDBRANCH  31  32
ENDBRANCH   1  31
TORSDOF 16
ENDMDL
