MODEL 1
REMARK VINA RESULT:      -6.7      0.000      0.000
REMARK  Name = 
REMARK  3 active torsions:
REMARK  status: ('A' for Active; 'I' for Inactive)
REMARK    1  A    between atoms: C_1  and  N_2
REMARK    2  A    between atoms: C_10  and  C_16
REMARK    3  A    between atoms: C_12  and  O_13
REMARK                            x       y       z     vdW  Elec       q    Type
REMARK                         _______ _______ _______ _____ _____    ______ ____
ROOT
ATOM      1  C   UNL     1       5.100  -5.150  26.610  0.00  0.00    +0.138 C 
ATOM      2  N   UNL     1       6.335  -5.025  25.849  0.00  0.00    -0.270 N 
ATOM      3  C   UNL     1       7.507  -4.887  26.603  0.00  0.00    +0.271 C 
ATOM      4  O   UNL     1       7.485  -4.771  27.834  0.00  0.00    -0.270 OA
ATOM      5  C   UNL     1       8.853  -4.940  25.831  0.00  0.00    +0.320 C 
ATOM      6  N   UNL     1       8.973  -3.683  25.108  0.00  0.00    -0.243 NA
ATOM      7  C   UNL     1       8.210  -3.486  24.087  0.00  0.00    +0.078 C 
ATOM      8  C   UNL     1       7.222  -4.487  23.575  0.00  0.00    +0.023 A 
ATOM      9  C   UNL     1       7.186  -4.702  22.185  0.00  0.00    +0.032 A 
ATOM     10  C   UNL     1       6.212  -5.523  21.628  0.00  0.00    +0.042 A 
ATOM     11  C   UNL     1       5.286  -6.159  22.443  0.00  0.00    +0.022 A 
ATOM     12  C   UNL     1       5.342  -5.981  23.829  0.00  0.00    +0.025 A 
ATOM     13 CL   UNL     1       6.140  -5.734  19.924  0.00  0.00    -0.084 Cl
ATOM     14  C   UNL     1       6.313  -5.154  24.426  0.00  0.00    +0.045 A 
ENDROOT
BRANCH   7  15
ATOM     15  C   UNL     1       8.360  -2.173  23.369  0.00  0.00    +0.001 A 
ATOM     16  C   UNL     1       9.547  -1.922  22.668  0.00  0.00    +0.010 A 
ATOM     17  C   UNL     1       9.712  -0.727  21.961  0.00  0.00    +0.001 A 
ATOM     18  C   UNL     1       8.693   0.222  21.954  0.00  0.00    +0.000 A 
ATOM     19  C   UNL     1       7.520  -0.007  22.673  0.00  0.00    +0.001 A 
ATOM     20  C   UNL     1       7.358  -1.195  23.390  0.00  0.00    +0.010 A 
ENDBRANCH   7  15
BRANCH   5  21
ATOM     21  O   UNL     1       9.929  -5.140  26.736  0.00  0.00    -0.364 OA
ATOM     22  H   UNL     1      10.519  -4.386  26.559  0.00  0.00    +0.212 HD
ENDBRANCH   5  21
TORSDOF 2
ENDMDL
MODEL 2
REMARK VINA RESULT:      -6.6      6.881      9.641
REMARK  Name = 
REMARK  3 active torsions:
REMARK  status: ('A' for Active; 'I' for Inactive)
REMARK    1  A    between atoms: C_1  and  N_2
REMARK    2  A    between atoms: C_10  and  C_16
REMARK    3  A    between atoms: C_12  and  O_13
REMARK                            x       y       z     vdW  Elec       q    Type
REMARK                         _______ _______ _______ _____ _____    ______ ____
ROOT
ATOM      1  C   UNL     1       7.982   6.257  26.461  0.00  0.00    +0.138 C 
ATOM      2  N   UNL     1       8.181   5.691  25.134  0.00  0.00    -0.270 N 
ATOM      3  C   UNL     1       7.017   5.421  24.404  0.00  0.00    +0.271 C 
ATOM      4  O   UNL     1       5.889   5.553  24.895  0.00  0.00    -0.270 OA
ATOM      5  C   UNL     1       7.196   4.994  22.922  0.00  0.00    +0.320 C 
ATOM      6  N   UNL     1       7.704   3.631  22.935  0.00  0.00    -0.243 NA
ATOM      7  C   UNL     1       8.923   3.432  23.307  0.00  0.00    +0.078 C 
ATOM      8  C   UNL     1       9.865   4.526  23.703  0.00  0.00    +0.023 A 
ATOM      9  C   UNL     1      11.170   4.471  23.178  0.00  0.00    +0.032 A 
ATOM     10  C   UNL     1      12.133   5.381  23.598  0.00  0.00    +0.042 A 
ATOM     11  C   UNL     1      11.807   6.368  24.518  0.00  0.00    +0.022 A 
ATOM     12  C   UNL     1      10.502   6.452  25.013  0.00  0.00    +0.025 A 
ATOM     13 CL   UNL     1      13.739   5.270  22.995  0.00  0.00    -0.084 Cl
ATOM     14  C   UNL     1       9.502   5.545  24.611  0.00  0.00    +0.045 A 
ENDROOT
BRANCH   7  15
ATOM     15  C   UNL     1       9.409   2.010  23.312  0.00  0.00    +0.001 A 
ATOM     16  C   UNL     1       9.479   1.319  22.095  0.00  0.00    +0.010 A 
ATOM     17  C   UNL     1       9.957   0.006  22.053  0.00  0.00    +0.001 A 
ATOM     18  C   UNL     1      10.364  -0.623  23.227  0.00  0.00    +0.000 A 
ATOM     19  C   UNL     1      10.270   0.046  24.447  0.00  0.00    +0.001 A 
ATOM     20  C   UNL     1       9.782   1.354  24.493  0.00  0.00    +0.010 A 
ENDBRANCH   7  15
BRANCH   5  21
ATOM     21  O   UNL     1       5.961   5.098  22.229  0.00  0.00    -0.364 OA
ATOM     22  H   UNL     1       5.313   5.257  22.939  0.00  0.00    +0.212 HD
ENDBRANCH   5  21
TORSDOF 2
ENDMDL
MODEL 3
REMARK VINA RESULT:      -6.4      3.121      4.207
REMARK  Name = 
REMARK  3 active torsions:
REMARK  status: ('A' for Active; 'I' for Inactive)
REMARK    1  A    between atoms: C_1  and  N_2
REMARK    2  A    between atoms: C_10  and  C_16
REMARK    3  A    between atoms: C_12  and  O_13
REMARK                            x       y       z     vdW  Elec       q    Type
REMARK                         _______ _______ _______ _____ _____    ______ ____
ROOT
ATOM      1  C   UNL     1       8.358  -4.710  26.607  0.00  0.00    +0.138 C 
ATOM      2  N   UNL     1       7.888  -3.954  25.454  0.00  0.00    -0.270 N 
ATOM      3  C   UNL     1       8.126  -4.537  24.203  0.00  0.00    +0.271 C 
ATOM      4  O   UNL     1       8.788  -5.573  24.077  0.00  0.00    -0.270 OA
ATOM      5  C   UNL     1       7.476  -3.852  22.971  0.00  0.00    +0.320 C 
ATOM      6  N   UNL     1       8.221  -2.626  22.728  0.00  0.00    -0.243 NA
ATOM      7  C   UNL     1       8.076  -1.644  23.552  0.00  0.00    +0.078 C 
ATOM      8  C   UNL     1       7.161  -1.674  24.735  0.00  0.00    +0.023 A 
ATOM      9  C   UNL     1       6.352  -0.543  24.951  0.00  0.00    +0.032 A 
ATOM     10  C   UNL     1       5.570  -0.449  26.096  0.00  0.00    +0.042 A 
ATOM     11  C   UNL     1       5.560  -1.484  27.022  0.00  0.00    +0.022 A 
ATOM     12  C   UNL     1       6.330  -2.628  26.793  0.00  0.00    +0.025 A 
ATOM     13 CL   UNL     1       4.629   0.962  26.379  0.00  0.00    -0.084 Cl
ATOM     14  C   UNL     1       7.136  -2.755  25.645  0.00  0.00    +0.045 A 
ENDROOT
BRANCH   7  15
ATOM     15  C   UNL     1       8.868  -0.398  23.270  0.00  0.00    +0.001 A 
ATOM     16  C   UNL     1       8.665   0.267  22.053  0.00  0.00    +0.010 A 
ATOM     17  C   UNL     1       9.356   1.448  21.768  0.00  0.00    +0.001 A 
ATOM     18  C   UNL     1      10.256   1.967  22.694  0.00  0.00    +0.000 A 
ATOM     19  C   UNL     1      10.486   1.297  23.896  0.00  0.00    +0.001 A 
ATOM     20  C   UNL     1       9.805   0.111  24.179  0.00  0.00    +0.010 A 
ENDBRANCH   7  15
BRANCH   5  21
ATOM     21  O   UNL     1       7.505  -4.726  21.851  0.00  0.00    -0.364 OA
ATOM     22  H   UNL     1       8.042  -5.476  22.162  0.00  0.00    +0.212 HD
ENDBRANCH   5  21
TORSDOF 2
ENDMDL
MODEL 4
REMARK VINA RESULT:      -6.3      1.443      1.803
REMARK  Name = 
REMARK  3 active torsions:
REMARK  status: ('A' for Active; 'I' for Inactive)
REMARK    1  A    between atoms: C_1  and  N_2
REMARK    2  A    between atoms: C_10  and  C_16
REMARK    3  A    between atoms: C_12  and  O_13
REMARK                            x       y       z     vdW  Elec       q    Type
REMARK                         _______ _______ _______ _____ _____    ______ ____
ROOT
ATOM      1  C   UNL     1       3.267  -4.621  26.620  0.00  0.00    +0.138 C 
ATOM      2  N   UNL     1       4.649  -4.934  26.284  0.00  0.00    -0.270 N 
ATOM      3  C   UNL     1       5.513  -5.126  27.370  0.00  0.00    +0.271 C 
ATOM      4  O   UNL     1       5.152  -4.936  28.537  0.00  0.00    -0.270 OA
ATOM      5  C   UNL     1       6.942  -5.642  27.051  0.00  0.00    +0.320 C 
ATOM      6  N   UNL     1       7.668  -4.532  26.455  0.00  0.00    -0.243 NA
ATOM      7  C   UNL     1       7.359  -4.166  25.257  0.00  0.00    +0.078 C 
ATOM      8  C   UNL     1       6.313  -4.836  24.423  0.00  0.00    +0.023 A 
ATOM      9  C   UNL     1       6.639  -5.111  23.081  0.00  0.00    +0.032 A 
ATOM     10  C   UNL     1       5.677  -5.618  22.216  0.00  0.00    +0.042 A 
ATOM     11  C   UNL     1       4.394  -5.883  22.676  0.00  0.00    +0.022 A 
ATOM     12  C   UNL     1       4.075  -5.650  24.017  0.00  0.00    +0.025 A 
ATOM     13 CL   UNL     1       6.068  -5.896  20.565  0.00  0.00    -0.084 Cl
ATOM     14  C   UNL     1       5.025  -5.134  24.921  0.00  0.00    +0.045 A 
ENDROOT
BRANCH   7  15
ATOM     15  C   UNL     1       8.128  -3.011  24.679  0.00  0.00    +0.001 A 
ATOM     16  C   UNL     1       9.454  -3.220  24.278  0.00  0.00    +0.010 A 
ATOM     17  C   UNL     1      10.192  -2.180  23.704  0.00  0.00    +0.001 A 
ATOM     18  C   UNL     1       9.609  -0.927  23.532  0.00  0.00    +0.000 A 
ATOM     19  C   UNL     1       8.300  -0.703  23.955  0.00  0.00    +0.001 A 
ATOM     20  C   UNL     1       7.564  -1.736  24.538  0.00  0.00    +0.010 A 
ENDBRANCH   7  15
BRANCH   5  21
ATOM     21  O   UNL     1       7.568  -6.116  28.235  0.00  0.00    -0.364 OA
ATOM     22  H   UNL     1       6.940  -6.779  28.575  0.00  0.00    +0.212 HD
ENDBRANCH   5  21
TORSDOF 2
ENDMDL
MODEL 5
REMARK VINA RESULT:      -6.0      3.251      4.851
REMARK  Name = 
REMARK  3 active torsions:
REMARK  status: ('A' for Active; 'I' for Inactive)
REMARK    1  A    between atoms: C_1  and  N_2
REMARK    2  A    between atoms: C_10  and  C_16
REMARK    3  A    between atoms: C_12  and  O_13
REMARK                            x       y       z     vdW  Elec       q    Type
REMARK                         _______ _______ _______ _____ _____    ______ ____
ROOT
ATOM      1  C   UNL     1       7.193  -4.274  22.230  0.00  0.00    +0.138 C 
ATOM      2  N   UNL     1       7.917  -3.642  23.324  0.00  0.00    -0.270 N 
ATOM      3  C   UNL     1       8.142  -4.441  24.451  0.00  0.00    +0.271 C 
ATOM      4  O   UNL     1       7.664  -5.577  24.556  0.00  0.00    -0.270 OA
ATOM      5  C   UNL     1       9.068  -3.862  25.554  0.00  0.00    +0.320 C 
ATOM      6  N   UNL     1       8.311  -2.823  26.237  0.00  0.00    -0.243 NA
ATOM      7  C   UNL     1       8.089  -1.715  25.615  0.00  0.00    +0.078 C 
ATOM      8  C   UNL     1       8.589  -1.414  24.236  0.00  0.00    +0.023 A 
ATOM      9  C   UNL     1       9.168  -0.150  24.024  0.00  0.00    +0.032 A 
ATOM     10  C   UNL     1       9.540   0.245  22.744  0.00  0.00    +0.042 A 
ATOM     11  C   UNL     1       9.370  -0.619  21.670  0.00  0.00    +0.022 A 
ATOM     12  C   UNL     1       8.833  -1.892  21.881  0.00  0.00    +0.025 A 
ATOM     13 CL   UNL     1      10.193   1.814  22.486  0.00  0.00    -0.084 Cl
ATOM     14  C   UNL     1       8.442  -2.323  23.164  0.00  0.00    +0.045 A 
ENDROOT
BRANCH   7  15
ATOM     15  C   UNL     1       7.299  -0.669  26.351  0.00  0.00    +0.001 A 
ATOM     16  C   UNL     1       6.024  -0.332  25.877  0.00  0.00    +0.010 A 
ATOM     17  C   UNL     1       5.244   0.611  26.553  0.00  0.00    +0.001 A 
ATOM     18  C   UNL     1       5.736   1.224  27.702  0.00  0.00    +0.000 A 
ATOM     19  C   UNL     1       7.015   0.917  28.164  0.00  0.00    +0.001 A 
ATOM     20  C   UNL     1       7.801  -0.017  27.485  0.00  0.00    +0.010 A 
ENDBRANCH   7  15
BRANCH   5  21
ATOM     21  O   UNL     1       9.480  -4.892  26.441  0.00  0.00    -0.364 OA
ATOM     22  H   UNL     1      10.331  -4.568  26.787  0.00  0.00    +0.212 HD
ENDBRANCH   5  21
TORSDOF 2
ENDMDL
MODEL 6
REMARK VINA RESULT:      -5.9      2.962      5.676
REMARK  Name = 
REMARK  3 active torsions:
REMARK  status: ('A' for Active; 'I' for Inactive)
REMARK    1  A    between atoms: C_1  and  N_2
REMARK    2  A    between atoms: C_10  and  C_16
REMARK    3  A    between atoms: C_12  and  O_13
REMARK                            x       y       z     vdW  Elec       q    Type
REMARK                         _______ _______ _______ _____ _____    ______ ____
ROOT
ATOM      1  C   UNL     1       8.815  -1.133  23.980  0.00  0.00    +0.138 C 
ATOM      2  N   UNL     1       8.453  -2.276  24.806  0.00  0.00    -0.270 N 
ATOM      3  C   UNL     1       9.321  -3.374  24.746  0.00  0.00    +0.271 C 
ATOM      4  O   UNL     1      10.275  -3.413  23.961  0.00  0.00    -0.270 OA
ATOM      5  C   UNL     1       9.067  -4.530  25.750  0.00  0.00    +0.320 C 
ATOM      6  N   UNL     1       7.879  -5.233  25.291  0.00  0.00    -0.243 NA
ATOM      7  C   UNL     1       6.733  -4.654  25.420  0.00  0.00    +0.078 C 
ATOM      8  C   UNL     1       6.542  -3.307  26.043  0.00  0.00    +0.023 A 
ATOM      9  C   UNL     1       5.489  -3.169  26.967  0.00  0.00    +0.032 A 
ATOM     10  C   UNL     1       5.175  -1.920  27.491  0.00  0.00    +0.042 A 
ATOM     11  C   UNL     1       5.917  -0.805  27.128  0.00  0.00    +0.022 A 
ATOM     12  C   UNL     1       6.991  -0.942  26.242  0.00  0.00    +0.025 A 
ATOM     13 CL   UNL     1       3.850  -1.752  28.573  0.00  0.00    -0.084 Cl
ATOM     14  C   UNL     1       7.334  -2.192  25.690  0.00  0.00    +0.045 A 
ENDROOT
BRANCH   7  15
ATOM     15  C   UNL     1       5.530  -5.411  24.929  0.00  0.00    +0.001 A 
ATOM     16  C   UNL     1       4.897  -4.978  23.756  0.00  0.00    +0.010 A 
ATOM     17  C   UNL     1       3.796  -5.674  23.249  0.00  0.00    +0.001 A 
ATOM     18  C   UNL     1       3.321  -6.803  23.912  0.00  0.00    +0.000 A 
ATOM     19  C   UNL     1       3.927  -7.223  25.096  0.00  0.00    +0.001 A 
ATOM     20  C   UNL     1       5.020  -6.523  25.611  0.00  0.00    +0.010 A 
ENDBRANCH   7  15
BRANCH   5  21
ATOM     21  O   UNL     1      10.201  -5.382  25.814  0.00  0.00    -0.364 OA
ATOM     22  H   UNL     1       9.938  -6.063  26.459  0.00  0.00    +0.212 HD
ENDBRANCH   5  21
TORSDOF 2
ENDMDL
MODEL 7
REMARK VINA RESULT:      -5.9      2.733      3.590
REMARK  Name = 
REMARK  3 active torsions:
REMARK  status: ('A' for Active; 'I' for Inactive)
REMARK    1  A    between atoms: C_1  and  N_2
REMARK    2  A    between atoms: C_10  and  C_16
REMARK    3  A    between atoms: C_12  and  O_13
REMARK                            x       y       z     vdW  Elec       q    Type
REMARK                         _______ _______ _______ _____ _____    ______ ____
ROOT
ATOM      1  C   UNL     1       4.674  -6.274  24.092  0.00  0.00    +0.138 C 
ATOM      2  N   UNL     1       5.722  -5.541  24.788  0.00  0.00    -0.270 N 
ATOM      3  C   UNL     1       5.986  -5.951  26.101  0.00  0.00    +0.271 C 
ATOM      4  O   UNL     1       5.302  -6.809  26.670  0.00  0.00    -0.270 OA
ATOM      5  C   UNL     1       7.217  -5.319  26.804  0.00  0.00    +0.320 C 
ATOM      6  N   UNL     1       6.858  -3.947  27.129  0.00  0.00    -0.243 NA
ATOM      7  C   UNL     1       6.765  -3.091  26.168  0.00  0.00    +0.078 C 
ATOM      8  C   UNL     1       7.033  -3.415  24.731  0.00  0.00    +0.023 A 
ATOM      9  C   UNL     1       7.821  -2.503  24.003  0.00  0.00    +0.032 A 
ATOM     10  C   UNL     1       8.008  -2.674  22.637  0.00  0.00    +0.042 A 
ATOM     11  C   UNL     1       7.442  -3.761  21.985  0.00  0.00    +0.022 A 
ATOM     12  C   UNL     1       6.692  -4.692  22.710  0.00  0.00    +0.025 A 
ATOM     13 CL   UNL     1       8.924  -1.524  21.746  0.00  0.00    -0.084 Cl
ATOM     14  C   UNL     1       6.480  -4.548  24.095  0.00  0.00    +0.045 A 
ENDROOT
BRANCH   7  15
ATOM     15  C   UNL     1       6.386  -1.686  26.543  0.00  0.00    +0.001 A 
ATOM     16  C   UNL     1       7.378  -0.833  27.044  0.00  0.00    +0.010 A 
ATOM     17  C   UNL     1       7.073   0.491  27.373  0.00  0.00    +0.001 A 
ATOM     18  C   UNL     1       5.775   0.967  27.206  0.00  0.00    +0.000 A 
ATOM     19  C   UNL     1       4.775   0.117  26.736  0.00  0.00    +0.001 A 
ATOM     20  C   UNL     1       5.074  -1.209  26.417  0.00  0.00    +0.010 A 
ENDBRANCH   7  15
BRANCH   5  21
ATOM     21  O   UNL     1       7.562  -6.069  27.959  0.00  0.00    -0.364 OA
ATOM     22  H   UNL     1       7.635  -5.393  28.656  0.00  0.00    +0.212 HD
ENDBRANCH   5  21
TORSDOF 2
ENDMDL
MODEL 8
REMARK VINA RESULT:      -5.8      3.518      5.957
REMARK  Name = 
REMARK  3 active torsions:
REMARK  status: ('A' for Active; 'I' for Inactive)
REMARK    1  A    between atoms: C_1  and  N_2
REMARK    2  A    between atoms: C_10  and  C_16
REMARK    3  A    between atoms: C_12  and  O_13
REMARK                            x       y       z     vdW  Elec       q    Type
REMARK                         _______ _______ _______ _____ _____    ______ ____
ROOT
ATOM      1  C   UNL     1       7.334   1.624  22.048  0.00  0.00    +0.138 C 
ATOM      2  N   UNL     1       7.747   0.387  22.695  0.00  0.00    -0.270 N 
ATOM      3  C   UNL     1       8.851  -0.262  22.127  0.00  0.00    +0.271 C 
ATOM      4  O   UNL     1       9.375   0.133  21.079  0.00  0.00    -0.270 OA
ATOM      5  C   UNL     1       9.430  -1.477  22.900  0.00  0.00    +0.320 C 
ATOM      6  N   UNL     1       8.488  -2.572  22.729  0.00  0.00    -0.243 NA
ATOM      7  C   UNL     1       7.357  -2.513  23.347  0.00  0.00    +0.078 C 
ATOM      8  C   UNL     1       6.960  -1.395  24.260  0.00  0.00    +0.023 A 
ATOM      9  C   UNL     1       6.370  -1.746  25.488  0.00  0.00    +0.032 A 
ATOM     10  C   UNL     1       5.865  -0.763  26.330  0.00  0.00    +0.042 A 
ATOM     11  C   UNL     1       5.964   0.576  25.977  0.00  0.00    +0.022 A 
ATOM     12  C   UNL     1       6.585   0.934  24.777  0.00  0.00    +0.025 A 
ATOM     13 CL   UNL     1       5.094  -1.205  27.801  0.00  0.00    -0.084 Cl
ATOM     14  C   UNL     1       7.105  -0.037  23.899  0.00  0.00    +0.045 A 
ENDROOT
BRANCH   7  15
ATOM     15  C   UNL     1       6.408  -3.661  23.141  0.00  0.00    +0.001 A 
ATOM     16  C   UNL     1       6.932  -4.909  22.777  0.00  0.00    +0.010 A 
ATOM     17  C   UNL     1       6.086  -6.010  22.609  0.00  0.00    +0.001 A 
ATOM     18  C   UNL     1       4.714  -5.867  22.799  0.00  0.00    +0.000 A 
ATOM     19  C   UNL     1       4.181  -4.622  23.132  0.00  0.00    +0.001 A 
ATOM     20  C   UNL     1       5.022  -3.519  23.290  0.00  0.00    +0.010 A 
ENDBRANCH   7  15
BRANCH   5  21
ATOM     21  O   UNL     1      10.721  -1.801  22.407  0.00  0.00    -0.364 OA
ATOM     22  H   UNL     1      10.663  -2.757  22.227  0.00  0.00    +0.212 HD
ENDBRANCH   5  21
TORSDOF 2
ENDMDL
MODEL 9
REMARK VINA RESULT:      -5.7      3.246      4.382
REMARK  Name = 
REMARK  3 active torsions:
REMARK  status: ('A' for Active; 'I' for Inactive)
REMARK    1  A    between atoms: C_1  and  N_2
REMARK    2  A    between atoms: C_10  and  C_16
REMARK    3  A    between atoms: C_12  and  O_13
REMARK                            x       y       z     vdW  Elec       q    Type
REMARK                         _______ _______ _______ _____ _____    ______ ____
ROOT
ATOM      1  C   UNL     1       4.758  -6.500  27.000  0.00  0.00    +0.138 C 
ATOM      2  N   UNL     1       4.755  -5.633  25.830  0.00  0.00    -0.270 N 
ATOM      3  C   UNL     1       4.622  -6.276  24.593  0.00  0.00    +0.271 C 
ATOM      4  O   UNL     1       4.616  -7.508  24.491  0.00  0.00    -0.270 OA
ATOM      5  C   UNL     1       4.428  -5.372  23.345  0.00  0.00    +0.320 C 
ATOM      6  N   UNL     1       5.715  -4.751  23.072  0.00  0.00    -0.243 NA
ATOM      7  C   UNL     1       6.137  -3.831  23.872  0.00  0.00    +0.078 C 
ATOM      8  C   UNL     1       5.368  -3.337  25.057  0.00  0.00    +0.023 A 
ATOM      9  C   UNL     1       5.303  -1.944  25.247  0.00  0.00    +0.032 A 
ATOM     10  C   UNL     1       4.713  -1.419  26.390  0.00  0.00    +0.042 A 
ATOM     11  C   UNL     1       4.158  -2.265  27.341  0.00  0.00    +0.022 A 
ATOM     12  C   UNL     1       4.183  -3.648  27.139  0.00  0.00    +0.025 A 
ATOM     13 CL   UNL     1       4.690   0.282  26.640  0.00  0.00    -0.084 Cl
ATOM     14  C   UNL     1       4.776  -4.214  25.993  0.00  0.00    +0.045 A 
ENDROOT
BRANCH   7  15
ATOM     15  C   UNL     1       7.473  -3.217  23.559  0.00  0.00    +0.001 A 
ATOM     16  C   UNL     1       7.605  -2.455  22.391  0.00  0.00    +0.010 A 
ATOM     17  C   UNL     1       8.822  -1.840  22.081  0.00  0.00    +0.001 A 
ATOM     18  C   UNL     1       9.912  -1.987  22.935  0.00  0.00    +0.000 A 
ATOM     19  C   UNL     1       9.798  -2.768  24.085  0.00  0.00    +0.001 A 
ATOM     20  C   UNL     1       8.586  -3.393  24.391  0.00  0.00    +0.010 A 
ENDBRANCH   7  15
BRANCH   5  21
ATOM     21  O   UNL     1       3.964  -6.144  22.248  0.00  0.00    -0.364 OA
ATOM     22  H   UNL     1       4.471  -5.796  21.493  0.00  0.00    +0.212 HD
ENDBRANCH   5  21
TORSDOF 2
ENDMDL
