MODEL 1
REMARK VINA RESULT:      -6.0      0.000      0.000
REMARK  Name = 
REMARK  23 active torsions:
REMARK  status: ('A' for Active; 'I' for Inactive)
REMARK    1  A    between atoms: C_1  and  O_2
REMARK    2  A    between atoms: O_2  and  C_3
REMARK    3  A    between atoms: C_3  and  C_5
REMARK    4  A    between atoms: C_6  and  O_7
REMARK    5  A    between atoms: C_11  and  O_12
REMARK    6  A    between atoms: O_12  and  C_13
REMARK    7  A    between atoms: C_13  and  C_14
REMARK    8  A    between atoms: C_14  and  C_15
REMARK    9  A    between atoms: C_15  and  C_16
REMARK   10  A    between atoms: C_16  and  N_17
REMARK   11  A    between atoms: C_18  and  C_20
REMARK   12  A    between atoms: C_20  and  C_22
REMARK   13  A    between atoms: C_20  and  N_44
REMARK   14  A    between atoms: C_22  and  C_23
REMARK   15  A    between atoms: C_26  and  N_29
REMARK   16  A    between atoms: N_29  and  C_35
REMARK   17  A    between atoms: C_30  and  C_32
REMARK   18  A    between atoms: C_32  and  O_33
REMARK   19  A    between atoms: C_40  and  C_41
REMARK   20  A    between atoms: C_41  and  O_42
REMARK   21  A    between atoms: C_45  and  O_47
REMARK   22  A    between atoms: O_47  and  C_48
REMARK   23  A    between atoms: C_48  and  C_49
REMARK                            x       y       z     vdW  Elec       q    Type
REMARK                         _______ _______ _______ _____ _____    ______ ____
ROOT
ATOM      1  C   UNL     1       9.803  -0.717  25.017  0.00  0.00    +0.166 C 
ENDROOT
BRANCH   1   4
ATOM      2  N   UNL     1       9.481   1.668  24.376  0.00  0.00    -0.314 N 
ATOM      3  H   UNL     1       8.493   1.448  24.467  0.00  0.00    +0.149 HD
ATOM      4  C   UNL     1      10.398   0.646  24.580  0.00  0.00    +0.234 C 
ATOM      5  O   UNL     1      11.611   0.836  24.506  0.00  0.00    -0.274 OA
BRANCH   2   6
ATOM      6  C   UNL     1       9.878   2.887  23.692  0.00  0.00    +0.104 C 
BRANCH   6   7
ATOM      7  C   UNL     1       8.799   3.969  23.640  0.00  0.00    +0.022 C 
BRANCH   7   8
ATOM      8  C   UNL     1       8.643   4.780  24.919  0.00  0.00    +0.042 C 
BRANCH   8   9
ATOM      9  C   UNL     1       7.655   4.244  25.956  0.00  0.00    +0.229 C 
BRANCH   9  10
ATOM     10  O   UNL     1       7.798   2.844  26.284  0.00  0.00    -0.491 OA
BRANCH  10  12
ATOM     11  C   UNL     1       5.572   1.819  26.106  0.00  0.00    +0.142 A 
ATOM     12  C   UNL     1       6.666   2.291  26.873  0.00  0.00    +0.138 A 
ATOM     13  C   UNL     1       6.580   2.183  28.283  0.00  0.00    +0.047 A 
ATOM     14  C   UNL     1       5.427   1.755  28.935  0.00  0.00    +0.007 A 
ATOM     15  C   UNL     1       4.326   1.392  28.191  0.00  0.00    +0.046 A 
ATOM     16  C   UNL     1       4.404   1.399  26.801  0.00  0.00    +0.134 A 
BRANCH  11  17
ATOM     17  C   UNL     1       5.512   1.681  24.618  0.00  0.00    +0.346 C 
ATOM     18  O   UNL     1       4.585   2.180  23.982  0.00  0.00    -0.245 OA
BRANCH  17  20
ATOM     19  C   UNL     1       6.615   1.203  22.642  0.00  0.00    +0.280 C 
ATOM     20  O   UNL     1       6.496   0.948  24.050  0.00  0.00    -0.464 OA
ENDBRANCH  17  20
ENDBRANCH  11  17
BRANCH  16  21
ATOM     21  O   UNL     1       3.248   0.964  26.194  0.00  0.00    -0.506 OA
ATOM     22  H   UNL     1       3.303  -0.010  26.069  0.00  0.00    +0.292 HD
ENDBRANCH  16  21
ENDBRANCH  10  12
ENDBRANCH   9  10
ENDBRANCH   8   9
ENDBRANCH   7   8
ENDBRANCH   6   7
ENDBRANCH   2   6
ENDBRANCH   1   4
BRANCH   1  23
ATOM     23  N   UNL     1       8.906  -1.190  23.965  0.00  0.00    -0.269 N 
ATOM     24  H   UNL     1       7.998  -0.750  23.853  0.00  0.00    +0.153 HD
ATOM     25  C   UNL     1       9.341  -1.889  22.887  0.00  0.00    +0.401 C 
ATOM     26  O   UNL     1      10.503  -2.260  22.730  0.00  0.00    -0.226 OA
BRANCH  25  27
ATOM     27  O   UNL     1       8.324  -2.059  22.013  0.00  0.00    -0.446 OA
BRANCH  27  28
ATOM     28  C   UNL     1       7.513  -3.228  22.183  0.00  0.00    +0.261 C 
BRANCH  28  29
ATOM     29  C   UNL     1       6.075  -2.842  22.364  0.00  0.00    +0.006 C 
ATOM     30  C   UNL     1       5.561  -2.345  23.499  0.00  0.00    +0.007 C 
ENDBRANCH  28  29
ENDBRANCH  27  28
ENDBRANCH  25  27
ENDBRANCH   1  23
BRANCH   1  31
ATOM     31  C   UNL     1       9.013  -0.572  26.336  0.00  0.00    +0.067 C 
BRANCH  31  32
ATOM     32  C   UNL     1       8.046  -1.705  26.596  0.00  0.00    -0.045 A 
ATOM     33  C   UNL     1       6.709  -1.442  26.909  0.00  0.00    +0.005 A 
ATOM     34  C   UNL     1       5.801  -2.494  27.051  0.00  0.00    +0.024 A 
ATOM     35  C   UNL     1       6.213  -3.826  26.887  0.00  0.00    +0.042 A 
ATOM     36  C   UNL     1       7.560  -4.093  26.632  0.00  0.00    +0.024 A 
ATOM     37  C   UNL     1       8.467  -3.039  26.489  0.00  0.00    +0.005 A 
BRANCH  35  38
ATOM     38  N   UNL     1       5.229  -4.854  26.835  0.00  0.00    -0.230 N 
ATOM     39  C   UNL     1       4.975  -5.766  27.868  0.00  0.00    +0.332 C 
ATOM     40  O   UNL     1       4.351  -6.820  27.750  0.00  0.00    -0.262 OA
BRANCH  38  41
ATOM     41  C   UNL     1       4.705  -5.138  25.525  0.00  0.00    +0.056 A 
ATOM     42  C   UNL     1       3.402  -4.772  25.122  0.00  0.00    +0.081 A 
ATOM     43  C   UNL     1       2.935  -5.156  23.848  0.00  0.00    +0.017 A 
ATOM     44  C   UNL     1       3.734  -5.922  22.997  0.00  0.00    +0.001 A 
ATOM     45  C   UNL     1       5.020  -6.277  23.385  0.00  0.00    +0.002 A 
ATOM     46  C   UNL     1       5.504  -5.880  24.630  0.00  0.00    +0.025 A 
BRANCH  42  47
ATOM     47  C   UNL     1       2.579  -3.850  25.958  0.00  0.00    +0.339 C 
ATOM     48  O   UNL     1       1.882  -4.226  26.889  0.00  0.00    -0.245 OA
BRANCH  47  49
ATOM     49  O   UNL     1       2.663  -2.551  25.599  0.00  0.00    -0.477 OA
ATOM     50  H   UNL     1       3.325  -2.357  24.909  0.00  0.00    +0.295 HD
ENDBRANCH  47  49
ENDBRANCH  42  47
ENDBRANCH  38  41
BRANCH  39  51
ATOM     51  C   UNL     1       5.371  -5.342  29.289  0.00  0.00    +0.393 C 
ATOM     52  O   UNL     1       6.373  -5.750  29.848  0.00  0.00    -0.240 OA
BRANCH  51  53
ATOM     53  O   UNL     1       4.444  -4.544  29.845  0.00  0.00    -0.474 OA
ATOM     54  H   UNL     1       4.113  -4.897  30.703  0.00  0.00    +0.296 HD
ENDBRANCH  51  53
ENDBRANCH  39  51
ENDBRANCH  35  38
ENDBRANCH  31  32
ENDBRANCH   1  31
TORSDOF 22
ENDMDL
MODEL 2
REMARK VINA RESULT:      -5.6      2.271      5.592
REMARK  Name = 
REMARK  23 active torsions:
REMARK  status: ('A' for Active; 'I' for Inactive)
REMARK    1  A    between atoms: C_1  and  O_2
REMARK    2  A    between atoms: O_2  and  C_3
REMARK    3  A    between atoms: C_3  and  C_5
REMARK    4  A    between atoms: C_6  and  O_7
REMARK    5  A    between atoms: C_11  and  O_12
REMARK    6  A    between atoms: O_12  and  C_13
REMARK    7  A    between atoms: C_13  and  C_14
REMARK    8  A    between atoms: C_14  and  C_15
REMARK    9  A    between atoms: C_15  and  C_16
REMARK   10  A    between atoms: C_16  and  N_17
REMARK   11  A    between atoms: C_18  and  C_20
REMARK   12  A    between atoms: C_20  and  C_22
REMARK   13  A    between atoms: C_20  and  N_44
REMARK   14  A    between atoms: C_22  and  C_23
REMARK   15  A    between atoms: C_26  and  N_29
REMARK   16  A    between atoms: N_29  and  C_35
REMARK   17  A    between atoms: C_30  and  C_32
REMARK   18  A    between atoms: C_32  and  O_33
REMARK   19  A    between atoms: C_40  and  C_41
REMARK   20  A    between atoms: C_41  and  O_42
REMARK   21  A    between atoms: C_45  and  O_47
REMARK   22  A    between atoms: O_47  and  C_48
REMARK   23  A    between atoms: C_48  and  C_49
REMARK                            x       y       z     vdW  Elec       q    Type
REMARK                         _______ _______ _______ _____ _____    ______ ____
ROOT
ATOM      1  C   UNL     1       6.107   2.891  26.833  0.00  0.00    +0.166 C 
ENDROOT
BRANCH   1   4
ATOM      2  N   UNL     1       6.700   5.284  26.486  0.00  0.00    -0.314 N 
ATOM      3  H   UNL     1       6.769   5.015  25.508  0.00  0.00    +0.149 HD
ATOM      4  C   UNL     1       6.397   4.298  27.415  0.00  0.00    +0.234 C 
ATOM      5  O   UNL     1       6.278   4.547  28.613  0.00  0.00    -0.274 OA
BRANCH   2   6
ATOM      6  C   UNL     1       7.269   6.550  26.917  0.00  0.00    +0.104 C 
BRANCH   6   7
ATOM      7  C   UNL     1       8.735   6.752  26.534  0.00  0.00    +0.022 C 
BRANCH   7   8
ATOM      8  C   UNL     1       8.972   7.108  25.073  0.00  0.00    +0.042 C 
BRANCH   8   9
ATOM      9  C   UNL     1       9.368   5.961  24.143  0.00  0.00    +0.229 C 
BRANCH   9  10
ATOM     10  O   UNL     1       9.026   4.637  24.609  0.00  0.00    -0.491 OA
BRANCH  10  12
ATOM     11  C   UNL     1       9.143   2.811  22.969  0.00  0.00    +0.142 A 
ATOM     12  C   UNL     1       8.432   3.839  23.637  0.00  0.00    +0.138 A 
ATOM     13  C   UNL     1       7.074   4.039  23.286  0.00  0.00    +0.047 A 
ATOM     14  C   UNL     1       6.461   3.359  22.238  0.00  0.00    +0.007 A 
ATOM     15  C   UNL     1       7.182   2.430  21.521  0.00  0.00    +0.046 A 
ATOM     16  C   UNL     1       8.492   2.142  21.894  0.00  0.00    +0.134 A 
BRANCH  11  17
ATOM     17  C   UNL     1      10.517   2.316  23.288  0.00  0.00    +0.346 C 
ATOM     18  O   UNL     1      11.462   3.100  23.360  0.00  0.00    -0.245 OA
BRANCH  17  20
ATOM     19  C   UNL     1      10.748   0.596  24.818  0.00  0.00    +0.280 C 
ATOM     20  O   UNL     1      10.647   0.978  23.438  0.00  0.00    -0.464 OA
ENDBRANCH  17  20
ENDBRANCH  11  17
BRANCH  16  21
ATOM     21  O   UNL     1       9.069   1.160  21.122  0.00  0.00    -0.506 OA
ATOM     22  H   UNL     1       9.864   1.532  20.677  0.00  0.00    +0.292 HD
ENDBRANCH  16  21
ENDBRANCH  10  12
ENDBRANCH   9  10
ENDBRANCH   8   9
ENDBRANCH   7   8
ENDBRANCH   6   7
ENDBRANCH   2   6
ENDBRANCH   1   4
BRANCH   1  23
ATOM     23  N   UNL     1       5.386   2.113  27.839  0.00  0.00    -0.269 N 
ATOM     24  H   UNL     1       5.623   2.230  28.819  0.00  0.00    +0.153 HD
ATOM     25  C   UNL     1       4.173   1.553  27.605  0.00  0.00    +0.401 C 
ATOM     26  O   UNL     1       3.604   1.573  26.514  0.00  0.00    -0.226 OA
BRANCH  25  27
ATOM     27  O   UNL     1       3.684   1.029  28.751  0.00  0.00    -0.446 OA
BRANCH  27  28
ATOM     28  C   UNL     1       4.464   0.005  29.380  0.00  0.00    +0.261 C 
BRANCH  28  29
ATOM     29  C   UNL     1       3.999  -1.350  28.935  0.00  0.00    +0.006 C 
ATOM     30  C   UNL     1       4.385  -1.949  27.799  0.00  0.00    +0.007 C 
ENDBRANCH  28  29
ENDBRANCH  27  28
ENDBRANCH  25  27
ENDBRANCH   1  23
BRANCH   1  31
ATOM     31  C   UNL     1       7.421   2.165  26.470  0.00  0.00    +0.067 C 
BRANCH  31  32
ATOM     32  C   UNL     1       7.220   0.762  25.944  0.00  0.00    -0.045 A 
ATOM     33  C   UNL     1       6.562   0.546  24.729  0.00  0.00    +0.005 A 
ATOM     34  C   UNL     1       6.466  -0.744  24.203  0.00  0.00    +0.024 A 
ATOM     35  C   UNL     1       7.022  -1.840  24.880  0.00  0.00    +0.042 A 
ATOM     36  C   UNL     1       7.629  -1.633  26.121  0.00  0.00    +0.024 A 
ATOM     37  C   UNL     1       7.725  -0.341  26.646  0.00  0.00    +0.005 A 
BRANCH  35  38
ATOM     38  N   UNL     1       7.087  -3.102  24.222  0.00  0.00    -0.230 N 
ATOM     39  C   UNL     1       7.839  -3.359  23.069  0.00  0.00    +0.332 C 
ATOM     40  O   UNL     1       7.695  -4.331  22.327  0.00  0.00    -0.262 OA
BRANCH  38  41
ATOM     41  C   UNL     1       6.077  -4.050  24.609  0.00  0.00    +0.056 A 
ATOM     42  C   UNL     1       6.341  -5.160  25.441  0.00  0.00    +0.081 A 
ATOM     43  C   UNL     1       5.314  -6.088  25.709  0.00  0.00    +0.017 A 
ATOM     44  C   UNL     1       4.051  -5.938  25.135  0.00  0.00    +0.001 A 
ATOM     45  C   UNL     1       3.782  -4.844  24.323  0.00  0.00    +0.002 A 
ATOM     46  C   UNL     1       4.781  -3.904  24.073  0.00  0.00    +0.025 A 
BRANCH  42  47
ATOM     47  C   UNL     1       7.641  -5.275  26.165  0.00  0.00    +0.339 C 
ATOM     48  O   UNL     1       8.689  -5.589  25.622  0.00  0.00    -0.245 OA
BRANCH  47  49
ATOM     49  O   UNL     1       7.566  -5.001  27.485  0.00  0.00    -0.477 OA
ATOM     50  H   UNL     1       7.926  -4.133  27.747  0.00  0.00    +0.295 HD
ENDBRANCH  47  49
ENDBRANCH  42  47
ENDBRANCH  38  41
BRANCH  39  51
ATOM     51  C   UNL     1       9.037  -2.440  22.793  0.00  0.00    +0.393 C 
ATOM     52  O   UNL     1       9.042  -1.604  21.908  0.00  0.00    -0.240 OA
BRANCH  51  53
ATOM     53  O   UNL     1      10.080  -2.732  23.591  0.00  0.00    -0.474 OA
ATOM     54  H   UNL     1       9.868  -2.604  24.544  0.00  0.00    +0.296 HD
ENDBRANCH  51  53
ENDBRANCH  39  51
ENDBRANCH  35  38
ENDBRANCH  31  32
ENDBRANCH   1  31
TORSDOF 22
ENDMDL
MODEL 3
REMARK VINA RESULT:      -5.5      1.964      5.452
REMARK  Name = 
REMARK  23 active torsions:
REMARK  status: ('A' for Active; 'I' for Inactive)
REMARK    1  A    between atoms: C_1  and  O_2
REMARK    2  A    between atoms: O_2  and  C_3
REMARK    3  A    between atoms: C_3  and  C_5
REMARK    4  A    between atoms: C_6  and  O_7
REMARK    5  A    between atoms: C_11  and  O_12
REMARK    6  A    between atoms: O_12  and  C_13
REMARK    7  A    between atoms: C_13  and  C_14
REMARK    8  A    between atoms: C_14  and  C_15
REMARK    9  A    between atoms: C_15  and  C_16
REMARK   10  A    between atoms: C_16  and  N_17
REMARK   11  A    between atoms: C_18  and  C_20
REMARK   12  A    between atoms: C_20  and  C_22
REMARK   13  A    between atoms: C_20  and  N_44
REMARK   14  A    between atoms: C_22  and  C_23
REMARK   15  A    between atoms: C_26  and  N_29
REMARK   16  A    between atoms: N_29  and  C_35
REMARK   17  A    between atoms: C_30  and  C_32
REMARK   18  A    between atoms: C_32  and  O_33
REMARK   19  A    between atoms: C_40  and  C_41
REMARK   20  A    between atoms: C_41  and  O_42
REMARK   21  A    between atoms: C_45  and  O_47
REMARK   22  A    between atoms: O_47  and  C_48
REMARK   23  A    between atoms: C_48  and  C_49
REMARK                            x       y       z     vdW  Elec       q    Type
REMARK                         _______ _______ _______ _____ _____    ______ ____
ROOT
ATOM      1  C   UNL     1       7.022   1.660  25.979  0.00  0.00    +0.166 C 
ENDROOT
BRANCH   1   4
ATOM      2  N   UNL     1       8.755   2.248  24.291  0.00  0.00    -0.314 N 
ATOM      3  H   UNL     1       9.362   2.337  25.102  0.00  0.00    +0.149 HD
ATOM      4  C   UNL     1       7.421   1.933  24.506  0.00  0.00    +0.234 C 
ATOM      5  O   UNL     1       6.628   1.791  23.578  0.00  0.00    -0.274 OA
BRANCH   2   6
ATOM      6  C   UNL     1       9.183   2.803  23.018  0.00  0.00    +0.104 C 
BRANCH   6   7
ATOM      7  C   UNL     1      10.062   1.873  22.181  0.00  0.00    +0.022 C 
BRANCH   7   8
ATOM      8  C   UNL     1       9.310   0.773  21.444  0.00  0.00    +0.042 C 
BRANCH   8   9
ATOM      9  C   UNL     1       9.388  -0.631  22.044  0.00  0.00    +0.229 C 
BRANCH   9  10
ATOM     10  O   UNL     1       8.630  -0.832  23.257  0.00  0.00    -0.491 OA
BRANCH  10  12
ATOM     11  C   UNL     1       8.105  -3.197  23.669  0.00  0.00    +0.142 A 
ATOM     12  C   UNL     1       7.753  -1.909  23.195  0.00  0.00    +0.138 A 
ATOM     13  C   UNL     1       6.457  -1.739  22.645  0.00  0.00    +0.047 A 
ATOM     14  C   UNL     1       5.582  -2.802  22.442  0.00  0.00    +0.007 A 
ATOM     15  C   UNL     1       5.965  -4.073  22.810  0.00  0.00    +0.046 A 
ATOM     16  C   UNL     1       7.194  -4.265  23.436  0.00  0.00    +0.134 A 
BRANCH  11  17
ATOM     17  C   UNL     1       9.339  -3.567  24.429  0.00  0.00    +0.346 C 
ATOM     18  O   UNL     1      10.453  -3.369  23.946  0.00  0.00    -0.245 OA
BRANCH  17  20
ATOM     19  C   UNL     1      10.049  -5.253  25.844  0.00  0.00    +0.280 C 
ATOM     20  O   UNL     1       9.142  -4.162  25.627  0.00  0.00    -0.464 OA
ENDBRANCH  17  20
ENDBRANCH  11  17
BRANCH  16  21
ATOM     21  O   UNL     1       7.419  -5.575  23.793  0.00  0.00    -0.506 OA
ATOM     22  H   UNL     1       6.954  -5.757  24.640  0.00  0.00    +0.292 HD
ENDBRANCH  16  21
ENDBRANCH  10  12
ENDBRANCH   9  10
ENDBRANCH   8   9
ENDBRANCH   7   8
ENDBRANCH   6   7
ENDBRANCH   2   6
ENDBRANCH   1   4
BRANCH   1  23
ATOM     23  N   UNL     1       7.546   2.742  26.809  0.00  0.00    -0.269 N 
ATOM     24  H   UNL     1       8.530   2.981  26.750  0.00  0.00    +0.153 HD
ATOM     25  C   UNL     1       6.755   3.704  27.349  0.00  0.00    +0.401 C 
ATOM     26  O   UNL     1       5.528   3.714  27.264  0.00  0.00    -0.226 OA
BRANCH  25  27
ATOM     27  O   UNL     1       7.523   4.649  27.935  0.00  0.00    -0.446 OA
BRANCH  27  28
ATOM     28  C   UNL     1       7.335   6.000  27.496  0.00  0.00    +0.261 C 
BRANCH  28  29
ATOM     29  C   UNL     1       8.518   6.455  26.694  0.00  0.00    +0.006 C 
ATOM     30  C   UNL     1       8.887   5.924  25.519  0.00  0.00    +0.007 C 
ENDBRANCH  28  29
ENDBRANCH  27  28
ENDBRANCH  25  27
ENDBRANCH   1  23
BRANCH   1  31
ATOM     31  C   UNL     1       7.605   0.315  26.465  0.00  0.00    +0.067 C 
BRANCH  31  32
ATOM     32  C   UNL     1       6.625  -0.835  26.399  0.00  0.00    -0.045 A 
ATOM     33  C   UNL     1       6.963  -2.089  26.916  0.00  0.00    +0.005 A 
ATOM     34  C   UNL     1       6.018  -3.118  26.939  0.00  0.00    +0.024 A 
ATOM     35  C   UNL     1       4.721  -2.912  26.444  0.00  0.00    +0.042 A 
ATOM     36  C   UNL     1       4.399  -1.678  25.876  0.00  0.00    +0.024 A 
ATOM     37  C   UNL     1       5.346  -0.650  25.854  0.00  0.00    +0.005 A 
BRANCH  35  38
ATOM     38  N   UNL     1       3.728  -3.908  26.670  0.00  0.00    -0.230 N 
ATOM     39  C   UNL     1       3.207  -4.242  27.926  0.00  0.00    +0.332 C 
ATOM     40  O   UNL     1       2.578  -5.268  28.186  0.00  0.00    -0.262 OA
BRANCH  38  41
ATOM     41  C   UNL     1       3.498  -4.807  25.570  0.00  0.00    +0.056 A 
ATOM     42  C   UNL     1       4.261  -5.977  25.360  0.00  0.00    +0.081 A 
ATOM     43  C   UNL     1       4.026  -6.763  24.214  0.00  0.00    +0.017 A 
ATOM     44  C   UNL     1       3.072  -6.380  23.270  0.00  0.00    +0.001 A 
ATOM     45  C   UNL     1       2.312  -5.235  23.474  0.00  0.00    +0.002 A 
ATOM     46  C   UNL     1       2.516  -4.464  24.618  0.00  0.00    +0.025 A 
BRANCH  42  47
ATOM     47  C   UNL     1       5.194  -6.475  26.412  0.00  0.00    +0.339 C 
ATOM     48  O   UNL     1       6.389  -6.220  26.428  0.00  0.00    -0.245 OA
BRANCH  47  49
ATOM     49  O   UNL     1       4.607  -7.239  27.358  0.00  0.00    -0.477 OA
ATOM     50  H   UNL     1       4.433  -8.162  27.091  0.00  0.00    +0.295 HD
ENDBRANCH  47  49
ENDBRANCH  42  47
ENDBRANCH  38  41
BRANCH  39  51
ATOM     51  C   UNL     1       3.294  -3.176  29.027  0.00  0.00    +0.393 C 
ATOM     52  O   UNL     1       4.098  -3.229  29.940  0.00  0.00    -0.240 OA
BRANCH  51  53
ATOM     53  O   UNL     1       2.334  -2.244  28.891  0.00  0.00    -0.474 OA
ATOM     54  H   UNL     1       1.763  -2.408  28.106  0.00  0.00    +0.296 HD
ENDBRANCH  51  53
ENDBRANCH  39  51
ENDBRANCH  35  38
ENDBRANCH  31  32
ENDBRANCH   1  31
TORSDOF 22
ENDMDL
MODEL 4
REMARK VINA RESULT:      -5.5      2.404      8.714
REMARK  Name = 
REMARK  23 active torsions:
REMARK  status: ('A' for Active; 'I' for Inactive)
REMARK    1  A    between atoms: C_1  and  O_2
REMARK    2  A    between atoms: O_2  and  C_3
REMARK    3  A    between atoms: C_3  and  C_5
REMARK    4  A    between atoms: C_6  and  O_7
REMARK    5  A    between atoms: C_11  and  O_12
REMARK    6  A    between atoms: O_12  and  C_13
REMARK    7  A    between atoms: C_13  and  C_14
REMARK    8  A    between atoms: C_14  and  C_15
REMARK    9  A    between atoms: C_15  and  C_16
REMARK   10  A    between atoms: C_16  and  N_17
REMARK   11  A    between atoms: C_18  and  C_20
REMARK   12  A    between atoms: C_20  and  C_22
REMARK   13  A    between atoms: C_20  and  N_44
REMARK   14  A    between atoms: C_22  and  C_23
REMARK   15  A    between atoms: C_26  and  N_29
REMARK   16  A    between atoms: N_29  and  C_35
REMARK   17  A    between atoms: C_30  and  C_32
REMARK   18  A    between atoms: C_32  and  O_33
REMARK   19  A    between atoms: C_40  and  C_41
REMARK   20  A    between atoms: C_41  and  O_42
REMARK   21  A    between atoms: C_45  and  O_47
REMARK   22  A    between atoms: O_47  and  C_48
REMARK   23  A    between atoms: C_48  and  C_49
REMARK                            x       y       z     vdW  Elec       q    Type
REMARK                         _______ _______ _______ _____ _____    ______ ____
ROOT
ATOM      1  C   UNL     1       9.476  -2.170  24.483  0.00  0.00    +0.166 C 
ENDROOT
BRANCH   1   4
ATOM      2  N   UNL     1       8.147  -3.915  23.304  0.00  0.00    -0.314 N 
ATOM      3  H   UNL     1       7.632  -3.121  22.935  0.00  0.00    +0.149 HD
ATOM      4  C   UNL     1       9.173  -3.664  24.206  0.00  0.00    +0.234 C 
ATOM      5  O   UNL     1       9.854  -4.569  24.684  0.00  0.00    -0.274 OA
BRANCH   2   6
ATOM      6  C   UNL     1       7.581  -5.248  23.186  0.00  0.00    +0.104 C 
BRANCH   6   7
ATOM      7  C   UNL     1       7.276  -5.686  21.754  0.00  0.00    +0.022 C 
BRANCH   7   8
ATOM      8  C   UNL     1       5.804  -5.947  21.464  0.00  0.00    +0.042 C 
BRANCH   8   9
ATOM      9  C   UNL     1       4.844  -5.853  22.651  0.00  0.00    +0.229 C 
BRANCH   9  10
ATOM     10  O   UNL     1       4.111  -4.613  22.760  0.00  0.00    -0.491 OA
BRANCH  10  12
ATOM     11  C   UNL     1       3.261  -3.908  24.954  0.00  0.00    +0.142 A 
ATOM     12  C   UNL     1       3.127  -4.630  23.743  0.00  0.00    +0.138 A 
ATOM     13  C   UNL     1       1.944  -5.386  23.550  0.00  0.00    +0.047 A 
ATOM     14  C   UNL     1       0.983  -5.543  24.545  0.00  0.00    +0.007 A 
ATOM     15  C   UNL     1       1.162  -4.922  25.762  0.00  0.00    +0.046 A 
ATOM     16  C   UNL     1       2.268  -4.098  25.956  0.00  0.00    +0.134 A 
BRANCH  11  17
ATOM     17  C   UNL     1       4.332  -2.923  25.300  0.00  0.00    +0.346 C 
ATOM     18  O   UNL     1       4.045  -1.761  25.583  0.00  0.00    -0.245 OA
BRANCH  17  20
ATOM     19  C   UNL     1       5.957  -4.163  26.383  0.00  0.00    +0.280 C 
ATOM     20  O   UNL     1       5.603  -3.381  25.232  0.00  0.00    -0.464 OA
ENDBRANCH  17  20
ENDBRANCH  11  17
BRANCH  16  21
ATOM     21  O   UNL     1       2.287  -3.506  27.198  0.00  0.00    -0.506 OA
ATOM     22  H   UNL     1       2.641  -2.593  27.108  0.00  0.00    +0.292 HD
ENDBRANCH  16  21
ENDBRANCH  10  12
ENDBRANCH   9  10
ENDBRANCH   8   9
ENDBRANCH   7   8
ENDBRANCH   6   7
ENDBRANCH   2   6
ENDBRANCH   1   4
BRANCH   1  23
ATOM     23  N   UNL     1       8.259  -1.534  24.984  0.00  0.00    -0.269 N 
ATOM     24  H   UNL     1       7.376  -1.722  24.521  0.00  0.00    +0.153 HD
ATOM     25  C   UNL     1       8.154  -1.038  26.241  0.00  0.00    +0.401 C 
ATOM     26  O   UNL     1       9.083  -0.998  27.047  0.00  0.00    -0.226 OA
BRANCH  25  27
ATOM     27  O   UNL     1       6.879  -0.652  26.474  0.00  0.00    -0.446 OA
BRANCH  27  28
ATOM     28  C   UNL     1       6.649   0.752  26.650  0.00  0.00    +0.261 C 
BRANCH  28  29
ATOM     29  C   UNL     1       5.768   1.275  25.554  0.00  0.00    +0.006 C 
ATOM     30  C   UNL     1       6.179   1.514  24.300  0.00  0.00    +0.007 C 
ENDBRANCH  28  29
ENDBRANCH  27  28
ENDBRANCH  25  27
ENDBRANCH   1  23
BRANCH   1  31
ATOM     31  C   UNL     1       9.933  -1.454  23.192  0.00  0.00    +0.067 C 
BRANCH  31  32
ATOM     32  C   UNL     1       9.993   0.051  23.317  0.00  0.00    -0.045 A 
ATOM     33  C   UNL     1       9.340   0.869  22.390  0.00  0.00    +0.005 A 
ATOM     34  C   UNL     1       9.319   2.254  22.568  0.00  0.00    +0.024 A 
ATOM     35  C   UNL     1       9.952   2.847  23.671  0.00  0.00    +0.042 A 
ATOM     36  C   UNL     1      10.654   2.036  24.567  0.00  0.00    +0.024 A 
ATOM     37  C   UNL     1      10.673   0.650  24.388  0.00  0.00    +0.005 A 
BRANCH  35  38
ATOM     38  N   UNL     1       9.738   4.230  23.933  0.00  0.00    -0.230 N 
ATOM     39  C   UNL     1      10.751   5.198  23.975  0.00  0.00    +0.332 C 
ATOM     40  O   UNL     1      10.643   6.319  24.471  0.00  0.00    -0.262 OA
BRANCH  38  41
ATOM     41  C   UNL     1       8.450   4.560  24.482  0.00  0.00    +0.056 A 
ATOM     42  C   UNL     1       7.410   5.130  23.715  0.00  0.00    +0.081 A 
ATOM     43  C   UNL     1       6.204   5.499  24.345  0.00  0.00    +0.017 A 
ATOM     44  C   UNL     1       6.040   5.336  25.722  0.00  0.00    +0.001 A 
ATOM     45  C   UNL     1       7.056   4.767  26.480  0.00  0.00    +0.002 A 
ATOM     46  C   UNL     1       8.243   4.373  25.864  0.00  0.00    +0.025 A 
BRANCH  42  47
ATOM     47  C   UNL     1       7.511   5.198  22.228  0.00  0.00    +0.339 C 
ATOM     48  O   UNL     1       7.126   4.308  21.485  0.00  0.00    -0.245 OA
BRANCH  47  49
ATOM     49  O   UNL     1       8.072   6.335  21.762  0.00  0.00    -0.477 OA
ATOM     50  H   UNL     1       9.035   6.408  21.906  0.00  0.00    +0.295 HD
ENDBRANCH  47  49
ENDBRANCH  42  47
ENDBRANCH  38  41
BRANCH  39  51
ATOM     51  C   UNL     1      12.044   4.892  23.208  0.00  0.00    +0.393 C 
ATOM     52  O   UNL     1      13.134   4.822  23.747  0.00  0.00    -0.240 OA
BRANCH  51  53
ATOM     53  O   UNL     1      11.825   4.795  21.885  0.00  0.00    -0.474 OA
ATOM     54  H   UNL     1      10.879   4.617  21.676  0.00  0.00    +0.296 HD
ENDBRANCH  51  53
ENDBRANCH  39  51
ENDBRANCH  35  38
ENDBRANCH  31  32
ENDBRANCH   1  31
TORSDOF 22
ENDMDL
MODEL 5
REMARK VINA RESULT:      -5.5      2.418      5.715
REMARK  Name = 
REMARK  23 active torsions:
REMARK  status: ('A' for Active; 'I' for Inactive)
REMARK    1  A    between atoms: C_1  and  O_2
REMARK    2  A    between atoms: O_2  and  C_3
REMARK    3  A    between atoms: C_3  and  C_5
REMARK    4  A    between atoms: C_6  and  O_7
REMARK    5  A    between atoms: C_11  and  O_12
REMARK    6  A    between atoms: O_12  and  C_13
REMARK    7  A    between atoms: C_13  and  C_14
REMARK    8  A    between atoms: C_14  and  C_15
REMARK    9  A    between atoms: C_15  and  C_16
REMARK   10  A    between atoms: C_16  and  N_17
REMARK   11  A    between atoms: C_18  and  C_20
REMARK   12  A    between atoms: C_20  and  C_22
REMARK   13  A    between atoms: C_20  and  N_44
REMARK   14  A    between atoms: C_22  and  C_23
REMARK   15  A    between atoms: C_26  and  N_29
REMARK   16  A    between atoms: N_29  and  C_35
REMARK   17  A    between atoms: C_30  and  C_32
REMARK   18  A    between atoms: C_32  and  O_33
REMARK   19  A    between atoms: C_40  and  C_41
REMARK   20  A    between atoms: C_41  and  O_42
REMARK   21  A    between atoms: C_45  and  O_47
REMARK   22  A    between atoms: O_47  and  C_48
REMARK   23  A    between atoms: C_48  and  C_49
REMARK                            x       y       z     vdW  Elec       q    Type
REMARK                         _______ _______ _______ _____ _____    ______ ____
ROOT
ATOM      1  C   UNL     1       5.721   2.595  27.039  0.00  0.00    +0.166 C 
ENDROOT
BRANCH   1   4
ATOM      2  N   UNL     1       6.008   5.035  26.634  0.00  0.00    -0.314 N 
ATOM      3  H   UNL     1       6.274   4.740  25.698  0.00  0.00    +0.149 HD
ATOM      4  C   UNL     1       5.705   4.052  27.566  0.00  0.00    +0.234 C 
ATOM      5  O   UNL     1       5.357   4.328  28.713  0.00  0.00    -0.274 OA
BRANCH   2   6
ATOM      6  C   UNL     1       6.309   6.389  27.065  0.00  0.00    +0.104 C 
BRANCH   6   7
ATOM      7  C   UNL     1       7.789   6.766  26.996  0.00  0.00    +0.022 C 
BRANCH   7   8
ATOM      8  C   UNL     1       8.362   6.855  25.588  0.00  0.00    +0.042 C 
BRANCH   8   9
ATOM      9  C   UNL     1       9.115   5.627  25.075  0.00  0.00    +0.229 C 
BRANCH   9  10
ATOM     10  O   UNL     1       8.330   4.420  24.959  0.00  0.00    -0.491 OA
BRANCH  10  12
ATOM     11  C   UNL     1       8.269   3.150  22.856  0.00  0.00    +0.142 A 
ATOM     12  C   UNL     1       8.878   3.480  24.092  0.00  0.00    +0.138 A 
ATOM     13  C   UNL     1      10.083   2.817  24.434  0.00  0.00    +0.047 A 
ATOM     14  C   UNL     1      10.612   1.781  23.670  0.00  0.00    +0.007 A 
ATOM     15  C   UNL     1       9.965   1.391  22.518  0.00  0.00    +0.046 A 
ATOM     16  C   UNL     1       8.827   2.079  22.104  0.00  0.00    +0.134 A 
BRANCH  11  17
ATOM     17  C   UNL     1       7.099   3.832  22.221  0.00  0.00    +0.346 C 
ATOM     18  O   UNL     1       6.078   3.200  21.954  0.00  0.00    -0.245 OA
BRANCH  17  20
ATOM     19  C   UNL     1       6.285   5.967  22.579  0.00  0.00    +0.280 C 
ATOM     20  O   UNL     1       7.263   5.142  21.928  0.00  0.00    -0.464 OA
ENDBRANCH  17  20
ENDBRANCH  11  17
BRANCH  16  21
ATOM     21  O   UNL     1       8.319   1.613  20.913  0.00  0.00    -0.506 OA
ATOM     22  H   UNL     1       8.976   1.781  20.200  0.00  0.00    +0.292 HD
ENDBRANCH  16  21
ENDBRANCH  10  12
ENDBRANCH   9  10
ENDBRANCH   8   9
ENDBRANCH   7   8
ENDBRANCH   6   7
ENDBRANCH   2   6
ENDBRANCH   1   4
BRANCH   1  23
ATOM     23  N   UNL     1       4.821   1.793  27.865  0.00  0.00    -0.269 N 
ATOM     24  H   UNL     1       4.805   1.941  28.868  0.00  0.00    +0.153 HD
ATOM     25  C   UNL     1       3.733   1.157  27.362  0.00  0.00    +0.401 C 
ATOM     26  O   UNL     1       3.446   1.124  26.167  0.00  0.00    -0.226 OA
BRANCH  25  27
ATOM     27  O   UNL     1       3.009   0.625  28.372  0.00  0.00    -0.446 OA
BRANCH  27  28
ATOM     28  C   UNL     1       2.637  -0.754  28.247  0.00  0.00    +0.261 C 
BRANCH  28  29
ATOM     29  C   UNL     1       3.788  -1.639  28.624  0.00  0.00    +0.006 C 
ATOM     30  C   UNL     1       4.761  -2.018  27.782  0.00  0.00    +0.007 C 
ENDBRANCH  28  29
ENDBRANCH  27  28
ENDBRANCH  25  27
ENDBRANCH   1  23
BRANCH   1  31
ATOM     31  C   UNL     1       7.145   2.001  27.110  0.00  0.00    +0.067 C 
BRANCH  31  32
ATOM     32  C   UNL     1       7.336   0.766  26.260  0.00  0.00    -0.045 A 
ATOM     33  C   UNL     1       8.086  -0.315  26.732  0.00  0.00    +0.005 A 
ATOM     34  C   UNL     1       8.176  -1.490  25.981  0.00  0.00    +0.024 A 
ATOM     35  C   UNL     1       7.520  -1.605  24.746  0.00  0.00    +0.042 A 
ATOM     36  C   UNL     1       6.817  -0.506  24.246  0.00  0.00    +0.024 A 
ATOM     37  C   UNL     1       6.728   0.669  24.999  0.00  0.00    +0.005 A 
BRANCH  35  38
ATOM     38  N   UNL     1       7.461  -2.876  24.108  0.00  0.00    -0.230 N 
ATOM     39  C   UNL     1       7.960  -3.149  22.828  0.00  0.00    +0.332 C 
ATOM     40  O   UNL     1       7.676  -4.134  22.147  0.00  0.00    -0.262 OA
BRANCH  38  41
ATOM     41  C   UNL     1       6.561  -3.825  24.710  0.00  0.00    +0.056 A 
ATOM     42  C   UNL     1       7.003  -4.990  25.374  0.00  0.00    +0.081 A 
ATOM     43  C   UNL     1       6.055  -5.910  25.868  0.00  0.00    +0.017 A 
ATOM     44  C   UNL     1       4.689  -5.697  25.678  0.00  0.00    +0.001 A 
ATOM     45  C   UNL     1       4.248  -4.548  25.033  0.00  0.00    +0.002 A 
ATOM     46  C   UNL     1       5.174  -3.617  24.565  0.00  0.00    +0.025 A 
BRANCH  42  47
ATOM     47  C   UNL     1       8.447  -5.178  25.700  0.00  0.00    +0.339 C 
ATOM     48  O   UNL     1       9.275  -5.566  24.890  0.00  0.00    -0.245 OA
BRANCH  47  49
ATOM     49  O   UNL     1       8.770  -4.883  26.977  0.00  0.00    -0.477 OA
ATOM     50  H   UNL     1       8.681  -3.941  27.218  0.00  0.00    +0.295 HD
ENDBRANCH  47  49
ENDBRANCH  42  47
ENDBRANCH  38  41
BRANCH  39  51
ATOM     51  C   UNL     1       9.066  -2.227  22.297  0.00  0.00    +0.393 C 
ATOM     52  O   UNL     1       8.884  -1.416  21.407  0.00  0.00    -0.240 OA
BRANCH  51  53
ATOM     53  O   UNL     1      10.250  -2.486  22.878  0.00  0.00    -0.474 OA
ATOM     54  H   UNL     1      10.980  -1.945  22.498  0.00  0.00    +0.296 HD
ENDBRANCH  51  53
ENDBRANCH  39  51
ENDBRANCH  35  38
ENDBRANCH  31  32
ENDBRANCH   1  31
TORSDOF 22
ENDMDL
MODEL 6
REMARK VINA RESULT:      -5.4      2.166      3.988
REMARK  Name = 
REMARK  23 active torsions:
REMARK  status: ('A' for Active; 'I' for Inactive)
REMARK    1  A    between atoms: C_1  and  O_2
REMARK    2  A    between atoms: O_2  and  C_3
REMARK    3  A    between atoms: C_3  and  C_5
REMARK    4  A    between atoms: C_6  and  O_7
REMARK    5  A    between atoms: C_11  and  O_12
REMARK    6  A    between atoms: O_12  and  C_13
REMARK    7  A    between atoms: C_13  and  C_14
REMARK    8  A    between atoms: C_14  and  C_15
REMARK    9  A    between atoms: C_15  and  C_16
REMARK   10  A    between atoms: C_16  and  N_17
REMARK   11  A    between atoms: C_18  and  C_20
REMARK   12  A    between atoms: C_20  and  C_22
REMARK   13  A    between atoms: C_20  and  N_44
REMARK   14  A    between atoms: C_22  and  C_23
REMARK   15  A    between atoms: C_26  and  N_29
REMARK   16  A    between atoms: N_29  and  C_35
REMARK   17  A    between atoms: C_30  and  C_32
REMARK   18  A    between atoms: C_32  and  O_33
REMARK   19  A    between atoms: C_40  and  C_41
REMARK   20  A    between atoms: C_41  and  O_42
REMARK   21  A    between atoms: C_45  and  O_47
REMARK   22  A    between atoms: O_47  and  C_48
REMARK   23  A    between atoms: C_48  and  C_49
REMARK                            x       y       z     vdW  Elec       q    Type
REMARK                         _______ _______ _______ _____ _____    ______ ____
ROOT
ATOM      1  C   UNL     1       7.158   1.533  26.856  0.00  0.00    +0.166 C 
ENDROOT
BRANCH   1   4
ATOM      2  N   UNL     1       7.471   3.818  25.916  0.00  0.00    -0.314 N 
ATOM      3  H   UNL     1       7.554   3.326  25.031  0.00  0.00    +0.149 HD
ATOM      4  C   UNL     1       7.298   3.062  27.068  0.00  0.00    +0.234 C 
ATOM      5  O   UNL     1       7.172   3.582  28.175  0.00  0.00    -0.274 OA
BRANCH   2   6
ATOM      6  C   UNL     1       7.901   5.203  26.004  0.00  0.00    +0.104 C 
BRANCH   6   7
ATOM      7  C   UNL     1       9.209   5.511  25.275  0.00  0.00    +0.022 C 
BRANCH   7   8
ATOM      8  C   UNL     1       9.140   6.682  24.304  0.00  0.00    +0.042 C 
BRANCH   8   9
ATOM      9  C   UNL     1       7.894   6.770  23.422  0.00  0.00    +0.229 C 
BRANCH   9  10
ATOM     10  O   UNL     1       7.804   5.780  22.374  0.00  0.00    -0.491 OA
BRANCH  10  12
ATOM     11  C   UNL     1       7.063   3.445  22.560  0.00  0.00    +0.142 A 
ATOM     12  C   UNL     1       6.803   4.837  22.582  0.00  0.00    +0.138 A 
ATOM     13  C   UNL     1       5.472   5.258  22.827  0.00  0.00    +0.047 A 
ATOM     14  C   UNL     1       4.408   4.366  22.918  0.00  0.00    +0.007 A 
ATOM     15  C   UNL     1       4.645   3.015  22.795  0.00  0.00    +0.046 A 
ATOM     16  C   UNL     1       5.952   2.559  22.644  0.00  0.00    +0.134 A 
BRANCH  11  17
ATOM     17  C   UNL     1       8.401   2.782  22.486  0.00  0.00    +0.346 C 
ATOM     18  O   UNL     1       8.671   2.021  21.557  0.00  0.00    -0.245 OA
BRANCH  17  20
ATOM     19  C   UNL     1      10.611   2.745  23.169  0.00  0.00    +0.280 C 
ATOM     20  O   UNL     1       9.247   3.036  23.510  0.00  0.00    -0.464 OA
ENDBRANCH  17  20
ENDBRANCH  11  17
BRANCH  16  21
ATOM     21  O   UNL     1       6.041   1.186  22.586  0.00  0.00    -0.506 OA
ATOM     22  H   UNL     1       5.826   0.817  23.472  0.00  0.00    +0.292 HD
ENDBRANCH  16  21
ENDBRANCH  10  12
ENDBRANCH   9  10
ENDBRANCH   8   9
ENDBRANCH   7   8
ENDBRANCH   6   7
ENDBRANCH   2   6
ENDBRANCH   1   4
BRANCH   1  23
ATOM     23  N   UNL     1       8.066   1.128  25.785  0.00  0.00    -0.269 N 
ATOM     24  H   UNL     1       8.288   1.789  25.048  0.00  0.00    +0.153 HD
ATOM     25  C   UNL     1       8.936   0.095  25.910  0.00  0.00    +0.401 C 
ATOM     26  O   UNL     1       8.990  -0.645  26.890  0.00  0.00    -0.226 OA
BRANCH  25  27
ATOM     27  O   UNL     1       9.746   0.049  24.829  0.00  0.00    -0.446 OA
BRANCH  27  28
ATOM     28  C   UNL     1       9.838  -1.205  24.141  0.00  0.00    +0.261 C 
BRANCH  28  29
ATOM     29  C   UNL     1       8.496  -1.599  23.599  0.00  0.00    +0.006 C 
ATOM     30  C   UNL     1       8.252  -1.881  22.310  0.00  0.00    +0.007 C 
ENDBRANCH  28  29
ENDBRANCH  27  28
ENDBRANCH  25  27
ENDBRANCH   1  23
BRANCH   1  31
ATOM     31  C   UNL     1       5.710   1.163  26.466  0.00  0.00    +0.067 C 
BRANCH  31  32
ATOM     32  C   UNL     1       5.468  -0.325  26.356  0.00  0.00    -0.045 A 
ATOM     33  C   UNL     1       5.140  -0.904  25.126  0.00  0.00    +0.005 A 
ATOM     34  C   UNL     1       5.014  -2.291  25.014  0.00  0.00    +0.024 A 
ATOM     35  C   UNL     1       5.211  -3.123  26.127  0.00  0.00    +0.042 A 
ATOM     36  C   UNL     1       5.482  -2.542  27.368  0.00  0.00    +0.024 A 
ATOM     37  C   UNL     1       5.608  -1.154  27.479  0.00  0.00    +0.005 A 
BRANCH  35  38
ATOM     38  N   UNL     1       5.279  -4.532  25.936  0.00  0.00    -0.230 N 
ATOM     39  C   UNL     1       4.863  -5.484  26.876  0.00  0.00    +0.332 C 
ATOM     40  O   UNL     1       5.167  -6.676  26.864  0.00  0.00    -0.262 OA
BRANCH  38  41
ATOM     41  C   UNL     1       6.107  -4.964  24.841  0.00  0.00    +0.056 A 
ATOM     42  C   UNL     1       7.516  -5.015  24.915  0.00  0.00    +0.081 A 
ATOM     43  C   UNL     1       8.259  -5.374  23.772  0.00  0.00    +0.017 A 
ATOM     44  C   UNL     1       7.619  -5.647  22.562  0.00  0.00    +0.001 A 
ATOM     45  C   UNL     1       6.233  -5.607  22.485  0.00  0.00    +0.002 A 
ATOM     46  C   UNL     1       5.485  -5.281  23.615  0.00  0.00    +0.025 A 
BRANCH  42  47
ATOM     47  C   UNL     1       8.214  -4.852  26.223  0.00  0.00    +0.339 C 
ATOM     48  O   UNL     1       8.760  -3.815  26.572  0.00  0.00    -0.245 OA
BRANCH  47  49
ATOM     49  O   UNL     1       8.198  -5.955  27.002  0.00  0.00    -0.477 OA
ATOM     50  H   UNL     1       7.539  -5.942  27.721  0.00  0.00    +0.295 HD
ENDBRANCH  47  49
ENDBRANCH  42  47
ENDBRANCH  38  41
BRANCH  39  51
ATOM     51  C   UNL     1       3.824  -5.036  27.913  0.00  0.00    +0.393 C 
ATOM     52  O   UNL     1       4.061  -4.974  29.106  0.00  0.00    -0.240 OA
BRANCH  51  53
ATOM     53  O   UNL     1       2.626  -4.806  27.347  0.00  0.00    -0.474 OA
ATOM     54  H   UNL     1       2.666  -4.101  26.662  0.00  0.00    +0.296 HD
ENDBRANCH  51  53
ENDBRANCH  39  51
ENDBRANCH  35  38
ENDBRANCH  31  32
ENDBRANCH   1  31
TORSDOF 22
ENDMDL
MODEL 7
REMARK VINA RESULT:      -5.4      2.438      8.890
REMARK  Name = 
REMARK  23 active torsions:
REMARK  status: ('A' for Active; 'I' for Inactive)
REMARK    1  A    between atoms: C_1  and  O_2
REMARK    2  A    between atoms: O_2  and  C_3
REMARK    3  A    between atoms: C_3  and  C_5
REMARK    4  A    between atoms: C_6  and  O_7
REMARK    5  A    between atoms: C_11  and  O_12
REMARK    6  A    between atoms: O_12  and  C_13
REMARK    7  A    between atoms: C_13  and  C_14
REMARK    8  A    between atoms: C_14  and  C_15
REMARK    9  A    between atoms: C_15  and  C_16
REMARK   10  A    between atoms: C_16  and  N_17
REMARK   11  A    between atoms: C_18  and  C_20
REMARK   12  A    between atoms: C_20  and  C_22
REMARK   13  A    between atoms: C_20  and  N_44
REMARK   14  A    between atoms: C_22  and  C_23
REMARK   15  A    between atoms: C_26  and  N_29
REMARK   16  A    between atoms: N_29  and  C_35
REMARK   17  A    between atoms: C_30  and  C_32
REMARK   18  A    between atoms: C_32  and  O_33
REMARK   19  A    between atoms: C_40  and  C_41
REMARK   20  A    between atoms: C_41  and  O_42
REMARK   21  A    between atoms: C_45  and  O_47
REMARK   22  A    between atoms: O_47  and  C_48
REMARK   23  A    between atoms: C_48  and  C_49
REMARK                            x       y       z     vdW  Elec       q    Type
REMARK                         _______ _______ _______ _____ _____    ______ ____
ROOT
ATOM      1  C   UNL     1       9.391  -1.635  24.740  0.00  0.00    +0.166 C 
ENDROOT
BRANCH   1   4
ATOM      2  N   UNL     1       7.960  -3.597  25.289  0.00  0.00    -0.314 N 
ATOM      3  H   UNL     1       7.373  -2.906  25.748  0.00  0.00    +0.149 HD
ATOM      4  C   UNL     1       9.142  -3.164  24.703  0.00  0.00    +0.234 C 
ATOM      5  O   UNL     1       9.897  -3.935  24.114  0.00  0.00    -0.274 OA
BRANCH   2   6
ATOM      6  C   UNL     1       7.755  -5.007  25.574  0.00  0.00    +0.104 C 
BRANCH   6   7
ATOM      7  C   UNL     1       6.527  -5.311  26.433  0.00  0.00    +0.022 C 
BRANCH   7   8
ATOM      8  C   UNL     1       5.539  -4.160  26.568  0.00  0.00    +0.042 C 
BRANCH   8   9
ATOM      9  C   UNL     1       4.125  -4.404  26.040  0.00  0.00    +0.229 C 
BRANCH   9  10
ATOM     10  O   UNL     1       3.768  -3.662  24.853  0.00  0.00    -0.491 OA
BRANCH  10  12
ATOM     11  C   UNL     1       4.759  -5.172  23.186  0.00  0.00    +0.142 A 
ATOM     12  C   UNL     1       4.618  -3.891  23.776  0.00  0.00    +0.138 A 
ATOM     13  C   UNL     1       5.377  -2.825  23.232  0.00  0.00    +0.047 A 
ATOM     14  C   UNL     1       6.334  -3.015  22.239  0.00  0.00    +0.007 A 
ATOM     15  C   UNL     1       6.544  -4.280  21.735  0.00  0.00    +0.046 A 
ATOM     16  C   UNL     1       5.754  -5.336  22.182  0.00  0.00    +0.134 A 
BRANCH  11  17
ATOM     17  C   UNL     1       3.946  -6.391  23.483  0.00  0.00    +0.346 C 
ATOM     18  O   UNL     1       4.435  -7.330  24.110  0.00  0.00    -0.245 OA
BRANCH  17  20
ATOM     19  C   UNL     1       1.697  -6.425  24.019  0.00  0.00    +0.280 C 
ATOM     20  O   UNL     1       2.690  -6.403  22.983  0.00  0.00    -0.464 OA
ENDBRANCH  17  20
ENDBRANCH  11  17
BRANCH  16  21
ATOM     21  O   UNL     1       6.041  -6.527  21.555  0.00  0.00    -0.506 OA
ATOM     22  H   UNL     1       7.000  -6.718  21.660  0.00  0.00    +0.292 HD
ENDBRANCH  16  21
ENDBRANCH  10  12
ENDBRANCH   9  10
ENDBRANCH   8   9
ENDBRANCH   7   8
ENDBRANCH   6   7
ENDBRANCH   2   6
ENDBRANCH   1   4
BRANCH   1  23
ATOM     23  N   UNL     1       8.208  -0.985  25.300  0.00  0.00    -0.269 N 
ATOM     24  H   UNL     1       7.314  -1.096  24.833  0.00  0.00    +0.153 HD
ATOM     25  C   UNL     1       8.133  -0.582  26.593  0.00  0.00    +0.401 C 
ATOM     26  O   UNL     1       9.068  -0.647  27.390  0.00  0.00    -0.226 OA
BRANCH  25  27
ATOM     27  O   UNL     1       6.879  -0.158  26.867  0.00  0.00    -0.446 OA
BRANCH  27  28
ATOM     28  C   UNL     1       5.880  -0.403  25.869  0.00  0.00    +0.261 C 
BRANCH  28  29
ATOM     29  C   UNL     1       5.352   0.895  25.333  0.00  0.00    +0.006 C 
ATOM     30  C   UNL     1       5.877   1.554  24.290  0.00  0.00    +0.007 C 
ENDBRANCH  28  29
ENDBRANCH  27  28
ENDBRANCH  25  27
ENDBRANCH   1  23
BRANCH   1  31
ATOM     31  C   UNL     1       9.652  -1.086  23.320  0.00  0.00    +0.067 C 
BRANCH  31  32
ATOM     32  C   UNL     1       9.705   0.423  23.247  0.00  0.00    -0.045 A 
ATOM     33  C   UNL     1       8.952   1.117  22.296  0.00  0.00    +0.005 A 
ATOM     34  C   UNL     1       8.931   2.514  22.299  0.00  0.00    +0.024 A 
ATOM     35  C   UNL     1       9.663   3.241  23.250  0.00  0.00    +0.042 A 
ATOM     36  C   UNL     1      10.461   2.550  24.165  0.00  0.00    +0.024 A 
ATOM     37  C   UNL     1      10.480   1.152  24.161  0.00  0.00    +0.005 A 
BRANCH  35  38
ATOM     38  N   UNL     1       9.459   4.646  23.356  0.00  0.00    -0.230 N 
ATOM     39  C   UNL     1      10.462   5.576  23.661  0.00  0.00    +0.332 C 
ATOM     40  O   UNL     1      10.271   6.732  24.036  0.00  0.00    -0.262 OA
BRANCH  38  41
ATOM     41  C   UNL     1       8.085   5.062  23.454  0.00  0.00    +0.056 A 
ATOM     42  C   UNL     1       7.327   4.940  24.639  0.00  0.00    +0.081 A 
ATOM     43  C   UNL     1       5.963   5.296  24.632  0.00  0.00    +0.017 A 
ATOM     44  C   UNL     1       5.348   5.736  23.458  0.00  0.00    +0.001 A 
ATOM     45  C   UNL     1       6.090   5.867  22.291  0.00  0.00    +0.002 A 
ATOM     46  C   UNL     1       7.446   5.544  22.293  0.00  0.00    +0.025 A 
BRANCH  42  47
ATOM     47  C   UNL     1       7.988   4.594  25.932  0.00  0.00    +0.339 C 
ATOM     48  O   UNL     1       7.911   3.492  26.454  0.00  0.00    -0.245 OA
BRANCH  47  49
ATOM     49  O   UNL     1       8.685   5.608  26.487  0.00  0.00    -0.477 OA
ATOM     50  H   UNL     1       8.164   6.201  27.060  0.00  0.00    +0.295 HD
ENDBRANCH  47  49
ENDBRANCH  42  47
ENDBRANCH  38  41
BRANCH  39  51
ATOM     51  C   UNL     1      11.910   5.169  23.356  0.00  0.00    +0.393 C 
ATOM     52  O   UNL     1      12.802   5.221  24.182  0.00  0.00    -0.240 OA
BRANCH  51  53
ATOM     53  O   UNL     1      12.069   4.833  22.064  0.00  0.00    -0.474 OA
ATOM     54  H   UNL     1      12.979   4.511  21.870  0.00  0.00    +0.296 HD
ENDBRANCH  51  53
ENDBRANCH  39  51
ENDBRANCH  35  38
ENDBRANCH  31  32
ENDBRANCH   1  31
TORSDOF 22
ENDMDL
MODEL 8
REMARK VINA RESULT:      -5.4      2.303      8.751
REMARK  Name = 
REMARK  23 active torsions:
REMARK  status: ('A' for Active; 'I' for Inactive)
REMARK    1  A    between atoms: C_1  and  O_2
REMARK    2  A    between atoms: O_2  and  C_3
REMARK    3  A    between atoms: C_3  and  C_5
REMARK    4  A    between atoms: C_6  and  O_7
REMARK    5  A    between atoms: C_11  and  O_12
REMARK    6  A    between atoms: O_12  and  C_13
REMARK    7  A    between atoms: C_13  and  C_14
REMARK    8  A    between atoms: C_14  and  C_15
REMARK    9  A    between atoms: C_15  and  C_16
REMARK   10  A    between atoms: C_16  and  N_17
REMARK   11  A    between atoms: C_18  and  C_20
REMARK   12  A    between atoms: C_20  and  C_22
REMARK   13  A    between atoms: C_20  and  N_44
REMARK   14  A    between atoms: C_22  and  C_23
REMARK   15  A    between atoms: C_26  and  N_29
REMARK   16  A    between atoms: N_29  and  C_35
REMARK   17  A    between atoms: C_30  and  C_32
REMARK   18  A    between atoms: C_32  and  O_33
REMARK   19  A    between atoms: C_40  and  C_41
REMARK   20  A    between atoms: C_41  and  O_42
REMARK   21  A    between atoms: C_45  and  O_47
REMARK   22  A    between atoms: O_47  and  C_48
REMARK   23  A    between atoms: C_48  and  C_49
REMARK                            x       y       z     vdW  Elec       q    Type
REMARK                         _______ _______ _______ _____ _____    ______ ____
ROOT
ATOM      1  C   UNL     1       9.234  -1.467  24.231  0.00  0.00    +0.166 C 
ENDROOT
BRANCH   1   4
ATOM      2  N   UNL     1       7.961  -3.540  23.699  0.00  0.00    -0.314 N 
ATOM      3  H   UNL     1       7.169  -2.907  23.626  0.00  0.00    +0.149 HD
ATOM      4  C   UNL     1       9.191  -3.007  24.062  0.00  0.00    +0.234 C 
ATOM      5  O   UNL     1      10.200  -3.703  24.154  0.00  0.00    -0.274 OA
BRANCH   2   6
ATOM      6  C   UNL     1       7.723  -4.970  23.795  0.00  0.00    +0.104 C 
BRANCH   6   7
ATOM      7  C   UNL     1       7.150  -5.607  22.529  0.00  0.00    +0.022 C 
BRANCH   7   8
ATOM      8  C   UNL     1       5.633  -5.744  22.511  0.00  0.00    +0.042 C 
BRANCH   8   9
ATOM      9  C   UNL     1       5.024  -6.749  23.490  0.00  0.00    +0.229 C 
BRANCH   9  10
ATOM     10  O   UNL     1       4.043  -6.210  24.403  0.00  0.00    -0.491 OA
BRANCH  10  12
ATOM     11  C   UNL     1       4.740  -4.348  25.848  0.00  0.00    +0.142 A 
ATOM     12  C   UNL     1       4.589  -5.733  25.591  0.00  0.00    +0.138 A 
ATOM     13  C   UNL     1       5.014  -6.642  26.592  0.00  0.00    +0.047 A 
ATOM     14  C   UNL     1       5.679  -6.233  27.743  0.00  0.00    +0.007 A 
ATOM     15  C   UNL     1       5.918  -4.891  27.946  0.00  0.00    +0.046 A 
ATOM     16  C   UNL     1       5.435  -3.962  27.028  0.00  0.00    +0.134 A 
BRANCH  11  17
ATOM     17  C   UNL     1       4.217  -3.219  25.019  0.00  0.00    +0.346 C 
ATOM     18  O   UNL     1       4.786  -2.893  23.978  0.00  0.00    -0.245 OA
BRANCH  17  20
ATOM     19  C   UNL     1       1.936  -3.351  25.376  0.00  0.00    +0.280 C 
ATOM     20  O   UNL     1       3.135  -2.574  25.510  0.00  0.00    -0.464 OA
ENDBRANCH  17  20
ENDBRANCH  11  17
BRANCH  16  21
ATOM     21  O   UNL     1       5.702  -2.660  27.387  0.00  0.00    -0.506 OA
ATOM     22  H   UNL     1       4.866  -2.235  27.681  0.00  0.00    +0.292 HD
ENDBRANCH  16  21
ENDBRANCH  10  12
ENDBRANCH   9  10
ENDBRANCH   8   9
ENDBRANCH   7   8
ENDBRANCH   6   7
ENDBRANCH   2   6
ENDBRANCH   1   4
BRANCH   1  23
ATOM     23  N   UNL     1       7.866  -0.980  24.397  0.00  0.00    -0.269 N 
ATOM     24  H   UNL     1       7.183  -1.164  23.670  0.00  0.00    +0.153 HD
ATOM     25  C   UNL     1       7.343  -0.655  25.606  0.00  0.00    +0.401 C 
ATOM     26  O   UNL     1       7.983  -0.659  26.657  0.00  0.00    -0.226 OA
BRANCH  25  27
ATOM     27  O   UNL     1       6.025  -0.385  25.475  0.00  0.00    -0.446 OA
BRANCH  27  28
ATOM     28  C   UNL     1       5.556   0.844  26.044  0.00  0.00    +0.261 C 
BRANCH  28  29
ATOM     29  C   UNL     1       5.164   1.803  24.959  0.00  0.00    +0.006 C 
ATOM     30  C   UNL     1       5.755   1.869  23.756  0.00  0.00    +0.007 C 
ENDBRANCH  28  29
ENDBRANCH  27  28
ENDBRANCH  25  27
ENDBRANCH   1  23
BRANCH   1  31
ATOM     31  C   UNL     1       9.868  -0.796  22.992  0.00  0.00    +0.067 C 
BRANCH  31  32
ATOM     32  C   UNL     1       9.854   0.715  23.041  0.00  0.00    -0.045 A 
ATOM     33  C   UNL     1       9.114   1.450  22.111  0.00  0.00    +0.005 A 
ATOM     34  C   UNL     1       9.028   2.840  22.222  0.00  0.00    +0.024 A 
ATOM     35  C   UNL     1       9.681   3.519  23.262  0.00  0.00    +0.042 A 
ATOM     36  C   UNL     1      10.467   2.792  24.159  0.00  0.00    +0.024 A 
ATOM     37  C   UNL     1      10.552   1.401  24.046  0.00  0.00    +0.005 A 
BRANCH  35  38
ATOM     38  N   UNL     1       9.406   4.901  23.467  0.00  0.00    -0.230 N 
ATOM     39  C   UNL     1      10.360   5.855  23.845  0.00  0.00    +0.332 C 
ATOM     40  O   UNL     1      10.110   6.970  24.301  0.00  0.00    -0.262 OA
BRANCH  38  41
ATOM     41  C   UNL     1       8.013   5.240  23.586  0.00  0.00    +0.056 A 
ATOM     42  C   UNL     1       7.278   5.069  24.780  0.00  0.00    +0.081 A 
ATOM     43  C   UNL     1       5.896   5.350  24.792  0.00  0.00    +0.017 A 
ATOM     44  C   UNL     1       5.243   5.763  23.629  0.00  0.00    +0.001 A 
ATOM     45  C   UNL     1       5.962   5.942  22.454  0.00  0.00    +0.002 A 
ATOM     46  C   UNL     1       7.333   5.694  22.436  0.00  0.00    +0.025 A 
BRANCH  42  47
ATOM     47  C   UNL     1       7.973   4.752  26.061  0.00  0.00    +0.339 C 
ATOM     48  O   UNL     1       8.498   5.598  26.770  0.00  0.00    -0.245 OA
BRANCH  47  49
ATOM     49  O   UNL     1       7.979   3.440  26.379  0.00  0.00    -0.477 OA
ATOM     50  H   UNL     1       7.123   3.087  26.688  0.00  0.00    +0.295 HD
ENDBRANCH  47  49
ENDBRANCH  42  47
ENDBRANCH  38  41
BRANCH  39  51
ATOM     51  C   UNL     1      11.828   5.544  23.522  0.00  0.00    +0.393 C 
ATOM     52  O   UNL     1      12.720   5.617  24.347  0.00  0.00    -0.240 OA
BRANCH  51  53
ATOM     53  O   UNL     1      12.000   5.264  22.218  0.00  0.00    -0.474 OA
ATOM     54  H   UNL     1      11.414   5.804  21.639  0.00  0.00    +0.296 HD
ENDBRANCH  51  53
ENDBRANCH  39  51
ENDBRANCH  35  38
ENDBRANCH  31  32
ENDBRANCH   1  31
TORSDOF 22
ENDMDL
MODEL 9
REMARK VINA RESULT:      -5.4      2.740      9.218
REMARK  Name = 
REMARK  23 active torsions:
REMARK  status: ('A' for Active; 'I' for Inactive)
REMARK    1  A    between atoms: C_1  and  O_2
REMARK    2  A    between atoms: O_2  and  C_3
REMARK    3  A    between atoms: C_3  and  C_5
REMARK    4  A    between atoms: C_6  and  O_7
REMARK    5  A    between atoms: C_11  and  O_12
REMARK    6  A    between atoms: O_12  and  C_13
REMARK    7  A    between atoms: C_13  and  C_14
REMARK    8  A    between atoms: C_14  and  C_15
REMARK    9  A    between atoms: C_15  and  C_16
REMARK   10  A    between atoms: C_16  and  N_17
REMARK   11  A    between atoms: C_18  and  C_20
REMARK   12  A    between atoms: C_20  and  C_22
REMARK   13  A    between atoms: C_20  and  N_44
REMARK   14  A    between atoms: C_22  and  C_23
REMARK   15  A    between atoms: C_26  and  N_29
REMARK   16  A    between atoms: N_29  and  C_35
REMARK   17  A    between atoms: C_30  and  C_32
REMARK   18  A    between atoms: C_32  and  O_33
REMARK   19  A    between atoms: C_40  and  C_41
REMARK   20  A    between atoms: C_41  and  O_42
REMARK   21  A    between atoms: C_45  and  O_47
REMARK   22  A    between atoms: O_47  and  C_48
REMARK   23  A    between atoms: C_48  and  C_49
REMARK                            x       y       z     vdW  Elec       q    Type
REMARK                         _______ _______ _______ _____ _____    ______ ____
ROOT
ATOM      1  C   UNL     1       9.618  -1.613  24.362  0.00  0.00    +0.166 C 
ENDROOT
BRANCH   1   4
ATOM      2  N   UNL     1       8.159  -3.318  23.284  0.00  0.00    -0.314 N 
ATOM      3  H   UNL     1       7.618  -2.512  22.986  0.00  0.00    +0.149 HD
ATOM      4  C   UNL     1       9.272  -3.098  24.084  0.00  0.00    +0.234 C 
ATOM      5  O   UNL     1       9.988  -4.019  24.471  0.00  0.00    -0.274 OA
BRANCH   2   6
ATOM      6  C   UNL     1       7.569  -4.644  23.195  0.00  0.00    +0.104 C 
BRANCH   6   7
ATOM      7  C   UNL     1       7.083  -5.032  21.798  0.00  0.00    +0.022 C 
BRANCH   7   8
ATOM      8  C   UNL     1       5.943  -6.041  21.774  0.00  0.00    +0.042 C 
BRANCH   8   9
ATOM      9  C   UNL     1       4.977  -6.014  22.959  0.00  0.00    +0.229 C 
BRANCH   9  10
ATOM     10  O   UNL     1       5.031  -7.164  23.831  0.00  0.00    -0.491 OA
BRANCH  10  12
ATOM     11  C   UNL     1       3.172  -7.409  25.417  0.00  0.00    +0.142 A 
ATOM     12  C   UNL     1       4.467  -6.943  25.082  0.00  0.00    +0.138 A 
ATOM     13  C   UNL     1       5.191  -6.233  26.072  0.00  0.00    +0.047 A 
ATOM     14  C   UNL     1       4.634  -5.873  27.296  0.00  0.00    +0.007 A 
ATOM     15  C   UNL     1       3.337  -6.239  27.583  0.00  0.00    +0.046 A 
ATOM     16  C   UNL     1       2.626  -7.014  26.671  0.00  0.00    +0.134 A 
BRANCH  11  17
ATOM     17  C   UNL     1       2.302  -8.312  24.601  0.00  0.00    +0.346 C 
ATOM     18  O   UNL     1       1.999  -9.429  25.015  0.00  0.00    -0.245 OA
BRANCH  17  20
ATOM     19  C   UNL     1       1.036  -6.720  23.500  0.00  0.00    +0.280 C 
ATOM     20  O   UNL     1       1.928  -7.839  23.390  0.00  0.00    -0.464 OA
ENDBRANCH  17  20
ENDBRANCH  11  17
BRANCH  16  21
ATOM     21  O   UNL     1       1.365  -7.346  27.114  0.00  0.00    -0.506 OA
ATOM     22  H   UNL     1       0.850  -7.711  26.359  0.00  0.00    +0.292 HD
ENDBRANCH  16  21
ENDBRANCH  10  12
ENDBRANCH   9  10
ENDBRANCH   8   9
ENDBRANCH   7   8
ENDBRANCH   6   7
ENDBRANCH   2   6
ENDBRANCH   1   4
BRANCH   1  23
ATOM     23  N   UNL     1       8.400  -0.923  24.780  0.00  0.00    -0.269 N 
ATOM     24  H   UNL     1       7.586  -0.945  24.175  0.00  0.00    +0.153 HD
ATOM     25  C   UNL     1       8.145  -0.599  26.072  0.00  0.00    +0.401 C 
ATOM     26  O   UNL     1       8.938  -0.776  26.996  0.00  0.00    -0.226 OA
BRANCH  25  27
ATOM     27  O   UNL     1       6.890  -0.110  26.180  0.00  0.00    -0.446 OA
BRANCH  27  28
ATOM     28  C   UNL     1       6.078  -0.141  25.000  0.00  0.00    +0.261 C 
BRANCH  28  29
ATOM     29  C   UNL     1       5.780   1.254  24.536  0.00  0.00    +0.006 C 
ATOM     30  C   UNL     1       5.966   1.691  23.282  0.00  0.00    +0.007 C 
ENDBRANCH  28  29
ENDBRANCH  27  28
ENDBRANCH  25  27
ENDBRANCH   1  23
BRANCH   1  31
ATOM     31  C   UNL     1      10.181  -0.934  23.093  0.00  0.00    +0.067 C 
BRANCH  31  32
ATOM     32  C   UNL     1      10.095   0.575  23.118  0.00  0.00    -0.045 A 
ATOM     33  C   UNL     1       9.377   1.264  22.136  0.00  0.00    +0.005 A 
ATOM     34  C   UNL     1       9.221   2.649  22.221  0.00  0.00    +0.024 A 
ATOM     35  C   UNL     1       9.781   3.371  23.287  0.00  0.00    +0.042 A 
ATOM     36  C   UNL     1      10.546   2.692  24.238  0.00  0.00    +0.024 A 
ATOM     37  C   UNL     1      10.701   1.305  24.151  0.00  0.00    +0.005 A 
BRANCH  35  38
ATOM     38  N   UNL     1       9.432   4.741  23.455  0.00  0.00    -0.230 N 
ATOM     39  C   UNL     1      10.330   5.752  23.821  0.00  0.00    +0.332 C 
ATOM     40  O   UNL     1      10.016   6.863  24.247  0.00  0.00    -0.262 OA
BRANCH  38  41
ATOM     41  C   UNL     1       8.021   5.009  23.549  0.00  0.00    +0.056 A 
ATOM     42  C   UNL     1       7.277   4.810  24.732  0.00  0.00    +0.081 A 
ATOM     43  C   UNL     1       5.883   5.019  24.720  0.00  0.00    +0.017 A 
ATOM     44  C   UNL     1       5.228   5.390  23.544  0.00  0.00    +0.001 A 
ATOM     45  C   UNL     1       5.956   5.596  22.379  0.00  0.00    +0.002 A 
ATOM     46  C   UNL     1       7.339   5.419  22.385  0.00  0.00    +0.025 A 
BRANCH  42  47
ATOM     47  C   UNL     1       7.966   4.538  26.027  0.00  0.00    +0.339 C 
ATOM     48  O   UNL     1       8.470   5.410  26.719  0.00  0.00    -0.245 OA
BRANCH  47  49
ATOM     49  O   UNL     1       7.992   3.234  26.378  0.00  0.00    -0.477 OA
ATOM     50  H   UNL     1       8.858   2.909  26.691  0.00  0.00    +0.295 HD
ENDBRANCH  47  49
ENDBRANCH  42  47
ENDBRANCH  38  41
BRANCH  39  51
ATOM     51  C   UNL     1      11.816   5.511  23.523  0.00  0.00    +0.393 C 
ATOM     52  O   UNL     1      12.687   5.611  24.367  0.00  0.00    -0.240 OA
BRANCH  51  53
ATOM     53  O   UNL     1      12.025   5.257  22.219  0.00  0.00    -0.474 OA
ATOM     54  H   UNL     1      11.919   4.302  22.002  0.00  0.00    +0.296 HD
ENDBRANCH  51  53
ENDBRANCH  39  51
ENDBRANCH  35  38
ENDBRANCH  31  32
ENDBRANCH   1  31
TORSDOF 22
ENDMDL
