MODEL 1
REMARK VINA RESULT:      -4.5      0.000      0.000
REMARK  Name = 
REMARK  9 active torsions:
REMARK  status: ('A' for Active; 'I' for Inactive)
REMARK    1  A    between atoms: C_1  and  C_2
REMARK    2  A    between atoms: C_2  and  C_3
REMARK    3  A    between atoms: C_3  and  C_4
REMARK    4  A    between atoms: C_4  and  S_6
REMARK    5  A    between atoms: S_6  and  C_7
REMARK    6  A    between atoms: C_7  and  C_8
REMARK    7  A    between atoms: C_8  and  N_10
REMARK    8  A    between atoms: C_8  and  C_11
REMARK    9  A    between atoms: C_11  and  O_12
REMARK                            x       y       z     vdW  Elec       q    Type
REMARK                         _______ _______ _______ _____ _____    ______ ____
ROOT
ATOM      1  C   UNK     1       8.869  -4.989  24.963  0.00  0.00    +0.171 C 
ENDROOT
BRANCH   1   2
ATOM      2  N   UNK     1      10.129  -5.681  25.382  0.00  0.00    -0.318 NA
ATOM      3  H   UNK     1      10.919  -5.110  25.062  0.00  0.00    +0.119 HD
ATOM      4  H   UNK     1      10.174  -5.622  26.406  0.00  0.00    +0.119 HD
ENDBRANCH   1   2
BRANCH   1   5
ATOM      5  C   UNK     1       7.768  -5.353  25.963  0.00  0.00    +0.323 C 
ATOM      6  O   UNK     1       6.574  -5.343  25.721  0.00  0.00    -0.249 OA
BRANCH   5   7
ATOM      7  O   UNK     1       8.287  -5.674  27.176  0.00  0.00    -0.480 OA
ATOM      8  H   UNK     1       8.742  -4.860  27.511  0.00  0.00    +0.295 HD
ENDBRANCH   5   7
ENDBRANCH   1   5
BRANCH   1   9
ATOM      9  C   UNK     1       9.022  -3.461  24.948  0.00  0.00    +0.107 C 
BRANCH   9  10
ATOM     10  S   UNK     1       8.490  -2.785  23.338  0.00  0.00    -0.086 S 
BRANCH  10  11
ATOM     11  C   UNK     1       9.582  -1.402  23.230  0.00  0.00    +0.189 C 
ATOM     12  O   UNK     1      10.168  -0.969  24.213  0.00  0.00    -0.285 OA
BRANCH  11  13
ATOM     13  C   UNK     1       9.663  -0.797  21.844  0.00  0.00    +0.086 C 
BRANCH  13  15
ATOM     14  C   UNK     1       8.535   1.428  21.529  0.00  0.00    +0.004 C 
ATOM     15  C   UNK     1       9.836   0.720  21.880  0.00  0.00    +0.005 C 
ENDBRANCH  13  15
ENDBRANCH  11  13
ENDBRANCH  10  11
ENDBRANCH   9  10
ENDBRANCH   1   9
TORSDOF 8
ENDMDL
MODEL 2
REMARK VINA RESULT:      -4.5      1.683      1.808
REMARK  Name = 
REMARK  9 active torsions:
REMARK  status: ('A' for Active; 'I' for Inactive)
REMARK    1  A    between atoms: C_1  and  C_2
REMARK    2  A    between atoms: C_2  and  C_3
REMARK    3  A    between atoms: C_3  and  C_4
REMARK    4  A    between atoms: C_4  and  S_6
REMARK    5  A    between atoms: S_6  and  C_7
REMARK    6  A    between atoms: C_7  and  C_8
REMARK    7  A    between atoms: C_8  and  N_10
REMARK    8  A    between atoms: C_8  and  C_11
REMARK    9  A    between atoms: C_11  and  O_12
REMARK                            x       y       z     vdW  Elec       q    Type
REMARK                         _______ _______ _______ _____ _____    ______ ____
ROOT
ATOM      1  C   UNK     1       7.853  -4.537  24.820  0.00  0.00    +0.171 C 
ENDROOT
BRANCH   1   2
ATOM      2  N   UNK     1       8.293  -5.189  23.545  0.00  0.00    -0.318 NA
ATOM      3  H   UNK     1       9.201  -5.633  23.719  0.00  0.00    +0.119 HD
ATOM      4  H   UNK     1       7.655  -5.976  23.379  0.00  0.00    +0.119 HD
ENDBRANCH   1   2
BRANCH   1   5
ATOM      5  C   UNK     1       8.716  -5.084  25.959  0.00  0.00    +0.323 C 
ATOM      6  O   UNK     1       8.565  -4.820  27.139  0.00  0.00    -0.249 OA
BRANCH   5   7
ATOM      7  O   UNK     1       9.698  -5.898  25.491  0.00  0.00    -0.480 OA
ATOM      8  H   UNK     1      10.104  -5.431  24.718  0.00  0.00    +0.295 HD
ENDBRANCH   5   7
ENDBRANCH   1   5
BRANCH   1   9
ATOM      9  C   UNK     1       8.017  -3.012  24.780  0.00  0.00    +0.107 C 
BRANCH   9  10
ATOM     10  S   UNK     1       9.608  -2.565  24.003  0.00  0.00    -0.086 S 
BRANCH  10  11
ATOM     11  C   UNK     1       9.011  -1.910  22.476  0.00  0.00    +0.189 C 
ATOM     12  O   UNK     1       7.965  -2.301  21.976  0.00  0.00    -0.285 OA
BRANCH  11  13
ATOM     13  C   UNK     1       9.935  -0.886  21.849  0.00  0.00    +0.086 C 
BRANCH  13  15
ATOM     14  C   UNK     1       9.996   1.622  22.007  0.00  0.00    +0.004 C 
ATOM     15  C   UNK     1       9.214   0.416  21.507  0.00  0.00    +0.005 C 
ENDBRANCH  13  15
ENDBRANCH  11  13
ENDBRANCH  10  11
ENDBRANCH   9  10
ENDBRANCH   1   9
TORSDOF 8
ENDMDL
MODEL 3
REMARK VINA RESULT:      -4.4      3.641      4.662
REMARK  Name = 
REMARK  9 active torsions:
REMARK  status: ('A' for Active; 'I' for Inactive)
REMARK    1  A    between atoms: C_1  and  C_2
REMARK    2  A    between atoms: C_2  and  C_3
REMARK    3  A    between atoms: C_3  and  C_4
REMARK    4  A    between atoms: C_4  and  S_6
REMARK    5  A    between atoms: S_6  and  C_7
REMARK    6  A    between atoms: C_7  and  C_8
REMARK    7  A    between atoms: C_8  and  N_10
REMARK    8  A    between atoms: C_8  and  C_11
REMARK    9  A    between atoms: C_11  and  O_12
REMARK                            x       y       z     vdW  Elec       q    Type
REMARK                         _______ _______ _______ _____ _____    ______ ____
ROOT
ATOM      1  C   UNK     1       7.779  -4.801  26.052  0.00  0.00    +0.171 C 
ENDROOT
BRANCH   1   2
ATOM      2  N   UNK     1       7.941  -5.717  27.226  0.00  0.00    -0.318 NA
ATOM      3  H   UNK     1       7.037  -5.768  27.708  0.00  0.00    +0.119 HD
ATOM      4  H   UNK     1       8.078  -6.662  26.848  0.00  0.00    +0.119 HD
ENDBRANCH   1   2
BRANCH   1   5
ATOM      5  C   UNK     1       9.014  -4.945  25.159  0.00  0.00    +0.323 C 
ATOM      6  O   UNK     1       9.303  -4.198  24.241  0.00  0.00    -0.249 OA
BRANCH   5   7
ATOM      7  O   UNK     1       9.751  -6.033  25.504  0.00  0.00    -0.480 OA
ATOM      8  H   UNK     1       9.854  -6.001  26.488  0.00  0.00    +0.295 HD
ENDBRANCH   5   7
ENDBRANCH   1   5
BRANCH   1   9
ATOM      9  C   UNK     1       6.537  -5.141  25.217  0.00  0.00    +0.107 C 
BRANCH   9  10
ATOM     10  S   UNK     1       5.674  -3.613  24.712  0.00  0.00    -0.086 S 
BRANCH  10  11
ATOM     11  C   UNK     1       5.062  -4.132  23.139  0.00  0.00    +0.189 C 
ATOM     12  O   UNK     1       3.954  -4.635  23.016  0.00  0.00    -0.285 OA
BRANCH  11  13
ATOM     13  C   UNK     1       6.053  -3.945  22.008  0.00  0.00    +0.086 C 
BRANCH  13  15
ATOM     14  C   UNK     1       7.245  -6.155  21.897  0.00  0.00    +0.004 C 
ATOM     15  C   UNK     1       6.263  -5.224  21.201  0.00  0.00    +0.005 C 
ENDBRANCH  13  15
ENDBRANCH  11  13
ENDBRANCH  10  11
ENDBRANCH   9  10
ENDBRANCH   1   9
TORSDOF 8
ENDMDL
MODEL 4
REMARK VINA RESULT:      -4.4      2.456      2.647
REMARK  Name = 
REMARK  9 active torsions:
REMARK  status: ('A' for Active; 'I' for Inactive)
REMARK    1  A    between atoms: C_1  and  C_2
REMARK    2  A    between atoms: C_2  and  C_3
REMARK    3  A    between atoms: C_3  and  C_4
REMARK    4  A    between atoms: C_4  and  S_6
REMARK    5  A    between atoms: S_6  and  C_7
REMARK    6  A    between atoms: C_7  and  C_8
REMARK    7  A    between atoms: C_8  and  N_10
REMARK    8  A    between atoms: C_8  and  C_11
REMARK    9  A    between atoms: C_11  and  O_12
REMARK                            x       y       z     vdW  Elec       q    Type
REMARK                         _______ _______ _______ _____ _____    ______ ____
ROOT
ATOM      1  C   UNK     1       8.763  -4.415  26.581  0.00  0.00    +0.171 C 
ENDROOT
BRANCH   1   2
ATOM      2  N   UNK     1       8.059  -5.575  27.217  0.00  0.00    -0.318 NA
ATOM      3  H   UNK     1       7.995  -5.387  28.223  0.00  0.00    +0.119 HD
ATOM      4  H   UNK     1       7.085  -5.545  26.893  0.00  0.00    +0.119 HD
ENDBRANCH   1   2
BRANCH   1   5
ATOM      5  C   UNK     1       9.621  -4.947  25.431  0.00  0.00    +0.323 C 
ATOM      6  O   UNK     1      10.058  -4.273  24.515  0.00  0.00    -0.249 OA
BRANCH   5   7
ATOM      7  O   UNK     1       9.826  -6.286  25.543  0.00  0.00    -0.480 OA
ATOM      8  H   UNK     1      10.775  -6.404  25.797  0.00  0.00    +0.295 HD
ENDBRANCH   5   7
ENDBRANCH   1   5
BRANCH   1   9
ATOM      9  C   UNK     1       7.781  -3.381  26.012  0.00  0.00    +0.107 C 
BRANCH   9  10
ATOM     10  S   UNK     1       8.370  -1.688  26.359  0.00  0.00    -0.086 S 
BRANCH  10  11
ATOM     11  C   UNK     1       8.489  -1.078  24.706  0.00  0.00    +0.189 C 
ATOM     12  O   UNK     1       7.496  -0.899  24.015  0.00  0.00    -0.285 OA
BRANCH  11  13
ATOM     13  C   UNK     1       9.914  -0.864  24.238  0.00  0.00    +0.086 C 
BRANCH  13  15
ATOM     14  C   UNK     1       9.941   1.645  24.390  0.00  0.00    +0.004 C 
ATOM     15  C   UNK     1      10.565   0.352  24.893  0.00  0.00    +0.005 C 
ENDBRANCH  13  15
ENDBRANCH  11  13
ENDBRANCH  10  11
ENDBRANCH   9  10
ENDBRANCH   1   9
TORSDOF 8
ENDMDL
MODEL 5
REMARK VINA RESULT:      -4.4      3.159      6.111
REMARK  Name = 
REMARK  9 active torsions:
REMARK  status: ('A' for Active; 'I' for Inactive)
REMARK    1  A    between atoms: C_1  and  C_2
REMARK    2  A    between atoms: C_2  and  C_3
REMARK    3  A    between atoms: C_3  and  C_4
REMARK    4  A    between atoms: C_4  and  S_6
REMARK    5  A    between atoms: S_6  and  C_7
REMARK    6  A    between atoms: C_7  and  C_8
REMARK    7  A    between atoms: C_8  and  N_10
REMARK    8  A    between atoms: C_8  and  C_11
REMARK    9  A    between atoms: C_11  and  O_12
REMARK                            x       y       z     vdW  Elec       q    Type
REMARK                         _______ _______ _______ _____ _____    ______ ____
ROOT
ATOM      1  C   UNK     1       9.884  -0.054  22.307  0.00  0.00    +0.171 C 
ENDROOT
BRANCH   1   2
ATOM      2  N   UNK     1       9.797  -1.011  21.159  0.00  0.00    -0.318 NA
ATOM      3  H   UNK     1      10.693  -1.506  21.097  0.00  0.00    +0.119 HD
ATOM      4  H   UNK     1       9.126  -1.740  21.430  0.00  0.00    +0.119 HD
ENDBRANCH   1   2
BRANCH   1   5
ATOM      5  C   UNK     1       9.189   1.248  21.898  0.00  0.00    +0.323 C 
ATOM      6  O   UNK     1       7.982   1.415  21.864  0.00  0.00    -0.249 OA
BRANCH   5   7
ATOM      7  O   UNK     1      10.091   2.204  21.554  0.00  0.00    -0.480 OA
ATOM      8  H   UNK     1      10.520   1.897  20.716  0.00  0.00    +0.295 HD
ENDBRANCH   5   7
ENDBRANCH   1   5
BRANCH   1   9
ATOM      9  C   UNK     1       9.193  -0.593  23.567  0.00  0.00    +0.107 C 
BRANCH   9  10
ATOM     10  S   UNK     1       9.653  -2.339  23.846  0.00  0.00    -0.086 S 
BRANCH  10  11
ATOM     11  C   UNK     1       8.182  -3.122  23.263  0.00  0.00    +0.189 C 
ATOM     12  O   UNK     1       7.393  -2.542  22.530  0.00  0.00    -0.285 OA
BRANCH  11  13
ATOM     13  C   UNK     1       7.985  -4.524  23.801  0.00  0.00    +0.086 C 
BRANCH  13  15
ATOM     14  C   UNK     1       7.138  -6.019  21.966  0.00  0.00    +0.004 C 
ATOM     15  C   UNK     1       6.761  -5.211  23.199  0.00  0.00    +0.005 C 
ENDBRANCH  13  15
ENDBRANCH  11  13
ENDBRANCH  10  11
ENDBRANCH   9  10
ENDBRANCH   1   9
TORSDOF 8
ENDMDL
MODEL 6
REMARK VINA RESULT:      -4.4      2.998      6.040
REMARK  Name = 
REMARK  9 active torsions:
REMARK  status: ('A' for Active; 'I' for Inactive)
REMARK    1  A    between atoms: C_1  and  C_2
REMARK    2  A    between atoms: C_2  and  C_3
REMARK    3  A    between atoms: C_3  and  C_4
REMARK    4  A    between atoms: C_4  and  S_6
REMARK    5  A    between atoms: S_6  and  C_7
REMARK    6  A    between atoms: C_7  and  C_8
REMARK    7  A    between atoms: C_8  and  N_10
REMARK    8  A    between atoms: C_8  and  C_11
REMARK    9  A    between atoms: C_11  and  O_12
REMARK                            x       y       z     vdW  Elec       q    Type
REMARK                         _______ _______ _______ _____ _____    ______ ____
ROOT
ATOM      1  C   UNK     1       9.585  -0.022  22.379  0.00  0.00    +0.171 C 
ENDROOT
BRANCH   1   2
ATOM      2  N   UNK     1       9.875  -0.913  21.210  0.00  0.00    -0.318 NA
ATOM      3  H   UNK     1      10.515  -0.411  20.587  0.00  0.00    +0.119 HD
ATOM      4  H   UNK     1      10.434  -1.697  21.567  0.00  0.00    +0.119 HD
ENDBRANCH   1   2
BRANCH   1   5
ATOM      5  C   UNK     1       9.011   1.294  21.846  0.00  0.00    +0.323 C 
ATOM      6  O   UNK     1       7.823   1.534  21.711  0.00  0.00    -0.249 OA
BRANCH   5   7
ATOM      7  O   UNK     1       9.997   2.169  21.518  0.00  0.00    -0.480 OA
ATOM      8  H   UNK     1      10.326   2.552  22.370  0.00  0.00    +0.295 HD
ENDBRANCH   5   7
ENDBRANCH   1   5
BRANCH   1   9
ATOM      9  C   UNK     1       8.562  -0.640  23.341  0.00  0.00    +0.107 C 
BRANCH   9  10
ATOM     10  S   UNK     1       7.902  -2.198  22.653  0.00  0.00    -0.086 S 
BRANCH  10  11
ATOM     11  C   UNK     1       8.740  -3.352  23.695  0.00  0.00    +0.189 C 
ATOM     12  O   UNK     1       9.906  -3.187  24.028  0.00  0.00    -0.285 OA
BRANCH  11  13
ATOM     13  C   UNK     1       7.898  -4.554  24.072  0.00  0.00    +0.086 C 
BRANCH  13  15
ATOM     14  C   UNK     1       7.207  -5.941  22.092  0.00  0.00    +0.004 C 
ATOM     15  C   UNK     1       6.796  -4.834  23.053  0.00  0.00    +0.005 C 
ENDBRANCH  13  15
ENDBRANCH  11  13
ENDBRANCH  10  11
ENDBRANCH   9  10
ENDBRANCH   1   9
TORSDOF 8
ENDMDL
MODEL 7
REMARK VINA RESULT:      -4.3      3.051      6.159
REMARK  Name = 
REMARK  9 active torsions:
REMARK  status: ('A' for Active; 'I' for Inactive)
REMARK    1  A    between atoms: C_1  and  C_2
REMARK    2  A    between atoms: C_2  and  C_3
REMARK    3  A    between atoms: C_3  and  C_4
REMARK    4  A    between atoms: C_4  and  S_6
REMARK    5  A    between atoms: S_6  and  C_7
REMARK    6  A    between atoms: C_7  and  C_8
REMARK    7  A    between atoms: C_8  and  N_10
REMARK    8  A    between atoms: C_8  and  C_11
REMARK    9  A    between atoms: C_11  and  O_12
REMARK                            x       y       z     vdW  Elec       q    Type
REMARK                         _______ _______ _______ _____ _____    ______ ____
ROOT
ATOM      1  C   UNK     1       9.809  -0.094  22.221  0.00  0.00    +0.171 C 
ENDROOT
BRANCH   1   2
ATOM      2  N   UNK     1       9.649  -1.007  21.045  0.00  0.00    -0.318 NA
ATOM      3  H   UNK     1       8.645  -1.097  20.854  0.00  0.00    +0.119 HD
ATOM      4  H   UNK     1      10.016  -0.506  20.227  0.00  0.00    +0.119 HD
ENDBRANCH   1   2
BRANCH   1   5
ATOM      5  C   UNK     1       9.224   1.271  21.849  0.00  0.00    +0.323 C 
ATOM      6  O   UNK     1       8.035   1.515  21.739  0.00  0.00    -0.249 OA
BRANCH   5   7
ATOM      7  O   UNK     1      10.203   2.188  21.635  0.00  0.00    -0.480 OA
ATOM      8  H   UNK     1       9.753   3.067  21.559  0.00  0.00    +0.295 HD
ENDBRANCH   5   7
ENDBRANCH   1   5
BRANCH   1   9
ATOM      9  C   UNK     1       9.072  -0.612  23.464  0.00  0.00    +0.107 C 
BRANCH   9  10
ATOM     10  S   UNK     1       9.681  -2.274  23.915  0.00  0.00    -0.086 S 
BRANCH  10  11
ATOM     11  C   UNK     1       8.319  -3.244  23.348  0.00  0.00    +0.189 C 
ATOM     12  O   UNK     1       7.623  -2.886  22.408  0.00  0.00    -0.285 OA
BRANCH  11  13
ATOM     13  C   UNK     1       8.083  -4.498  24.165  0.00  0.00    +0.086 C 
BRANCH  13  15
ATOM     14  C   UNK     1       8.642  -4.785  26.598  0.00  0.00    +0.004 C 
ATOM     15  C   UNK     1       9.194  -4.748  25.181  0.00  0.00    +0.005 C 
ENDBRANCH  13  15
ENDBRANCH  11  13
ENDBRANCH  10  11
ENDBRANCH   9  10
ENDBRANCH   1   9
TORSDOF 8
ENDMDL
MODEL 8
REMARK VINA RESULT:      -4.3      1.833      2.067
REMARK  Name = 
REMARK  9 active torsions:
REMARK  status: ('A' for Active; 'I' for Inactive)
REMARK    1  A    between atoms: C_1  and  C_2
REMARK    2  A    between atoms: C_2  and  C_3
REMARK    3  A    between atoms: C_3  and  C_4
REMARK    4  A    between atoms: C_4  and  S_6
REMARK    5  A    between atoms: S_6  and  C_7
REMARK    6  A    between atoms: C_7  and  C_8
REMARK    7  A    between atoms: C_8  and  N_10
REMARK    8  A    between atoms: C_8  and  C_11
REMARK    9  A    between atoms: C_11  and  O_12
REMARK                            x       y       z     vdW  Elec       q    Type
REMARK                         _______ _______ _______ _____ _____    ______ ____
ROOT
ATOM      1  C   UNK     1       8.790  -5.253  24.836  0.00  0.00    +0.171 C 
ENDROOT
BRANCH   1   2
ATOM      2  N   UNK     1      10.285  -5.193  24.924  0.00  0.00    -0.318 NA
ATOM      3  H   UNK     1      10.526  -4.712  25.797  0.00  0.00    +0.119 HD
ATOM      4  H   UNK     1      10.612  -6.156  25.069  0.00  0.00    +0.119 HD
ENDBRANCH   1   2
BRANCH   1   5
ATOM      5  C   UNK     1       8.231  -5.357  26.258  0.00  0.00    +0.323 C 
ATOM      6  O   UNK     1       7.172  -5.882  26.555  0.00  0.00    -0.249 OA
BRANCH   5   7
ATOM      7  O   UNK     1       9.059  -4.770  27.161  0.00  0.00    -0.480 OA
ATOM      8  H   UNK     1       9.668  -4.185  26.644  0.00  0.00    +0.295 HD
ENDBRANCH   5   7
ENDBRANCH   1   5
BRANCH   1   9
ATOM      9  C   UNK     1       8.197  -4.001  24.176  0.00  0.00    +0.107 C 
BRANCH   9  10
ATOM     10  S   UNK     1       9.447  -2.671  24.097  0.00  0.00    -0.086 S 
BRANCH  10  11
ATOM     11  C   UNK     1       8.866  -1.650  25.415  0.00  0.00    +0.189 C 
ATOM     12  O   UNK     1       7.985  -2.025  26.178  0.00  0.00    -0.285 OA
BRANCH  11  13
ATOM     13  C   UNK     1       9.518  -0.283  25.459  0.00  0.00    +0.086 C 
BRANCH  13  15
ATOM     14  C   UNK     1      10.681   1.475  24.091  0.00  0.00    +0.004 C 
ATOM     15  C   UNK     1       9.683   0.327  24.070  0.00  0.00    +0.005 C 
ENDBRANCH  13  15
ENDBRANCH  11  13
ENDBRANCH  10  11
ENDBRANCH   9  10
ENDBRANCH   1   9
TORSDOF 8
ENDMDL
MODEL 9
REMARK VINA RESULT:      -4.3      2.624      5.444
REMARK  Name = 
REMARK  9 active torsions:
REMARK  status: ('A' for Active; 'I' for Inactive)
REMARK    1  A    between atoms: C_1  and  C_2
REMARK    2  A    between atoms: C_2  and  C_3
REMARK    3  A    between atoms: C_3  and  C_4
REMARK    4  A    between atoms: C_4  and  S_6
REMARK    5  A    between atoms: S_6  and  C_7
REMARK    6  A    between atoms: C_7  and  C_8
REMARK    7  A    between atoms: C_8  and  N_10
REMARK    8  A    between atoms: C_8  and  C_11
REMARK    9  A    between atoms: C_11  and  O_12
REMARK                            x       y       z     vdW  Elec       q    Type
REMARK                         _______ _______ _______ _____ _____    ______ ____
ROOT
ATOM      1  C   UNK     1       9.178  -2.178  23.529  0.00  0.00    +0.171 C 
ENDROOT
BRANCH   1   2
ATOM      2  N   UNK     1      10.028  -3.274  24.095  0.00  0.00    -0.318 NA
ATOM      3  H   UNK     1       9.708  -4.158  23.688  0.00  0.00    +0.119 HD
ATOM      4  H   UNK     1      10.972  -3.146  23.711  0.00  0.00    +0.119 HD
ENDBRANCH   1   2
BRANCH   1   5
ATOM      5  C   UNK     1      10.086  -1.225  22.747  0.00  0.00    +0.323 C 
ATOM      6  O   UNK     1      10.632  -0.240  23.213  0.00  0.00    -0.249 OA
BRANCH   5   7
ATOM      7  O   UNK     1      10.196  -1.600  21.446  0.00  0.00    -0.480 OA
ATOM      8  H   UNK     1      11.008  -2.163  21.385  0.00  0.00    +0.295 HD
ENDBRANCH   5   7
ENDBRANCH   1   5
BRANCH   1   9
ATOM      9  C   UNK     1       8.102  -2.712  22.573  0.00  0.00    +0.107 C 
BRANCH   9  10
ATOM     10  S   UNK     1       6.513  -2.907  23.452  0.00  0.00    -0.086 S 
BRANCH  10  11
ATOM     11  C   UNK     1       6.733  -4.540  24.087  0.00  0.00    +0.189 C 
ATOM     12  O   UNK     1       7.445  -4.761  25.057  0.00  0.00    -0.285 OA
BRANCH  11  13
ATOM     13  C   UNK     1       6.011  -5.606  23.289  0.00  0.00    +0.086 C 
BRANCH  13  15
ATOM     14  C   UNK     1       6.204  -5.719  20.785  0.00  0.00    +0.004 C 
ATOM     15  C   UNK     1       6.840  -6.111  22.110  0.00  0.00    +0.005 C 
ENDBRANCH  13  15
ENDBRANCH  11  13
ENDBRANCH  10  11
ENDBRANCH   9  10
ENDBRANCH   1   9
TORSDOF 8
ENDMDL
