MODEL 1
REMARK VINA RESULT:      -7.7      0.000      0.000
REMARK  Name = 
REMARK  6 active torsions:
REMARK  status: ('A' for Active; 'I' for Inactive)
REMARK    1  A    between atoms: C_1  and  C_2
REMARK    2  A    between atoms: C_4  and  C_26
REMARK    3  A    between atoms: C_6  and  O_7
REMARK    4  A    between atoms: O_7  and  C_8
REMARK    5  A    between atoms: C_12  and  C_13
REMARK    6  A    between atoms: C_13  and  C_14
REMARK                            x       y       z     vdW  Elec       q    Type
REMARK                         _______ _______ _______ _____ _____    ______ ____
ROOT
ATOM      1  C   UNL     1       9.686  -1.703  23.704  0.00  0.00    +0.142 A 
ATOM      2  C   UNL     1       9.848  -1.515  22.327  0.00  0.00    +0.048 A 
ATOM      3  C   UNL     1       9.713  -0.242  21.757  0.00  0.00    +0.007 A 
ATOM      4  C   UNL     1       9.347   0.862  22.539  0.00  0.00    -0.040 A 
ATOM      5  C   UNL     1       9.157   0.668  23.916  0.00  0.00    +0.023 A 
ATOM      6  C   UNL     1       9.319  -0.601  24.488  0.00  0.00    +0.060 A 
ATOM      7 BR   UNL     1       8.960  -0.788  26.346  0.00  0.00    -0.046 Br
ENDROOT
BRANCH   1   8
ATOM      8  O   UNL     1       9.771  -2.930  24.328  0.00  0.00    -0.455 OA
BRANCH   8  12
ATOM      9  C   UNL     1       5.756  -5.191  22.511  0.00  0.00    +0.044 C 
ATOM     10  C   UNL     1       6.714  -4.929  23.637  0.00  0.00    -0.046 A 
ATOM     11  C   UNL     1       7.852  -4.147  23.399  0.00  0.00    +0.049 A 
ATOM     12  C   UNL     1       8.673  -3.750  24.457  0.00  0.00    +0.130 A 
ATOM     13  C   UNL     1       8.432  -4.249  25.740  0.00  0.00    +0.065 A 
ATOM     14  C   UNL     1       7.340  -5.090  25.978  0.00  0.00    +0.055 A 
ATOM     15  C   UNL     1       6.464  -5.404  24.929  0.00  0.00    +0.022 A 
BRANCH  14  16
ATOM     16  C   UNL     1       7.108  -5.623  27.291  0.00  0.00    +0.099 C 
ATOM     17  N   UNL     1       6.912  -6.054  28.350  0.00  0.00    -0.191 NA
ENDBRANCH  14  16
ENDBRANCH   8  12
ENDBRANCH   1   8
BRANCH   4  18
ATOM     18  C   UNL     1       9.036   2.187  21.882  0.00  0.00    +0.093 C 
BRANCH  18  19
ATOM     19  C   UNL     1       7.590   2.506  22.072  0.00  0.00    +0.076 A 
ATOM     20  C   UNL     1       7.008   3.792  22.259  0.00  0.00    +0.045 A 
ATOM     21  C   UNL     1       5.688   3.533  22.576  0.00  0.00    +0.178 A 
ATOM     22  N   UNL     1       4.747   4.443  22.875  0.00  0.00    -0.130 NA
ATOM     23  N   UNL     1       5.128   5.711  22.858  0.00  0.00    -0.156 NA
ATOM     24  C   UNL     1       6.409   6.040  22.554  0.00  0.00    +0.136 A 
ATOM     25  N   UNL     1       5.547   2.181  22.552  0.00  0.00    -0.259 N 
ATOM     26  H   UNL     1       4.707   1.654  22.760  0.00  0.00    +0.191 HD
ATOM     27  C   UNL     1       7.409   5.128  22.247  0.00  0.00    +0.035 A 
ATOM     28  N   UNL     1       6.688   1.521  22.253  0.00  0.00    -0.176 NA
ENDBRANCH  18  19
ENDBRANCH   4  18
TORSDOF 5
ENDMDL
MODEL 2
REMARK VINA RESULT:      -7.7      1.881      2.551
REMARK  Name = 
REMARK  6 active torsions:
REMARK  status: ('A' for Active; 'I' for Inactive)
REMARK    1  A    between atoms: C_1  and  C_2
REMARK    2  A    between atoms: C_4  and  C_26
REMARK    3  A    between atoms: C_6  and  O_7
REMARK    4  A    between atoms: O_7  and  C_8
REMARK    5  A    between atoms: C_12  and  C_13
REMARK    6  A    between atoms: C_13  and  C_14
REMARK                            x       y       z     vdW  Elec       q    Type
REMARK                         _______ _______ _______ _____ _____    ______ ____
ROOT
ATOM      1  C   UNL     1       9.613  -2.126  24.115  0.00  0.00    +0.142 A 
ATOM      2  C   UNL     1       9.979  -2.059  22.766  0.00  0.00    +0.048 A 
ATOM      3  C   UNL     1      10.157  -0.823  22.133  0.00  0.00    +0.007 A 
ATOM      4  C   UNL     1       9.908   0.378  22.813  0.00  0.00    -0.040 A 
ATOM      5  C   UNL     1       9.512   0.310  24.158  0.00  0.00    +0.023 A 
ATOM      6  C   UNL     1       9.360  -0.929  24.798  0.00  0.00    +0.060 A 
ATOM      7 BR   UNL     1       8.741  -0.928  26.595  0.00  0.00    -0.046 Br
ENDROOT
BRANCH   1   8
ATOM      8  O   UNL     1       9.387  -3.306  24.793  0.00  0.00    -0.455 OA
BRANCH   8  12
ATOM      9  C   UNL     1       5.458  -5.749  26.561  0.00  0.00    +0.044 C 
ATOM     10  C   UNL     1       6.247  -5.198  25.409  0.00  0.00    -0.046 A 
ATOM     11  C   UNL     1       7.377  -4.411  25.667  0.00  0.00    +0.049 A 
ATOM     12  C   UNL     1       8.223  -4.022  24.627  0.00  0.00    +0.130 A 
ATOM     13  C   UNL     1       7.864  -4.305  23.306  0.00  0.00    +0.065 A 
ATOM     14  C   UNL     1       6.701  -5.028  23.028  0.00  0.00    +0.055 A 
ATOM     15  C   UNL     1       5.909  -5.500  24.085  0.00  0.00    +0.022 A 
BRANCH  14  16
ATOM     16  C   UNL     1       6.320  -5.297  21.670  0.00  0.00    +0.099 C 
ATOM     17  N   UNL     1       6.005  -5.517  20.576  0.00  0.00    -0.191 NA
ENDBRANCH  14  16
ENDBRANCH   8  12
ENDBRANCH   1   8
BRANCH   4  18
ATOM     18  C   UNL     1       9.934   1.692  22.067  0.00  0.00    +0.093 C 
BRANCH  18  19
ATOM     19  C   UNL     1       8.639   2.404  22.274  0.00  0.00    +0.076 A 
ATOM     20  C   UNL     1       8.374   3.467  23.185  0.00  0.00    +0.045 A 
ATOM     21  C   UNL     1       7.005   3.639  23.129  0.00  0.00    +0.178 A 
ATOM     22  N   UNL     1       6.282   4.513  23.848  0.00  0.00    -0.130 NA
ATOM     23  N   UNL     1       6.954   5.284  24.688  0.00  0.00    -0.156 NA
ATOM     24  C   UNL     1       8.303   5.170  24.796  0.00  0.00    +0.136 A 
ATOM     25  N   UNL     1       6.541   2.733  22.228  0.00  0.00    -0.259 N 
ATOM     26  H   UNL     1       5.575   2.578  21.964  0.00  0.00    +0.191 HD
ATOM     27  C   UNL     1       9.081   4.275  24.075  0.00  0.00    +0.035 A 
ATOM     28  N   UNL     1       7.509   1.959  21.689  0.00  0.00    -0.176 NA
ENDBRANCH  18  19
ENDBRANCH   4  18
TORSDOF 5
ENDMDL
MODEL 3
REMARK VINA RESULT:      -7.6      1.997      2.461
REMARK  Name = 
REMARK  6 active torsions:
REMARK  status: ('A' for Active; 'I' for Inactive)
REMARK    1  A    between atoms: C_1  and  C_2
REMARK    2  A    between atoms: C_4  and  C_26
REMARK    3  A    between atoms: C_6  and  O_7
REMARK    4  A    between atoms: O_7  and  C_8
REMARK    5  A    between atoms: C_12  and  C_13
REMARK    6  A    between atoms: C_13  and  C_14
REMARK                            x       y       z     vdW  Elec       q    Type
REMARK                         _______ _______ _______ _____ _____    ______ ____
ROOT
ATOM      1  C   UNL     1       9.144  -1.910  23.654  0.00  0.00    +0.142 A 
ATOM      2  C   UNL     1       9.419  -1.666  22.303  0.00  0.00    +0.048 A 
ATOM      3  C   UNL     1       9.845  -0.402  21.877  0.00  0.00    +0.007 A 
ATOM      4  C   UNL     1       9.941   0.668  22.778  0.00  0.00    -0.040 A 
ATOM      5  C   UNL     1       9.637   0.430  24.127  0.00  0.00    +0.023 A 
ATOM      6  C   UNL     1       9.237  -0.843  24.557  0.00  0.00    +0.060 A 
ATOM      7 BR   UNL     1       8.766  -1.054  26.386  0.00  0.00    -0.046 Br
ENDROOT
BRANCH   1   8
ATOM      8  O   UNL     1       8.689  -3.119  24.139  0.00  0.00    -0.455 OA
BRANCH   8  12
ATOM      9  C   UNL     1       6.056  -5.971  21.063  0.00  0.00    +0.044 C 
ATOM     10  C   UNL     1       6.145  -5.081  22.268  0.00  0.00    -0.046 A 
ATOM     11  C   UNL     1       7.401  -4.626  22.692  0.00  0.00    +0.049 A 
ATOM     12  C   UNL     1       7.505  -3.670  23.705  0.00  0.00    +0.130 A 
ATOM     13  C   UNL     1       6.356  -3.267  24.391  0.00  0.00    +0.065 A 
ATOM     14  C   UNL     1       5.103  -3.767  24.026  0.00  0.00    +0.055 A 
ATOM     15  C   UNL     1       4.996  -4.652  22.943  0.00  0.00    +0.022 A 
BRANCH  14  16
ATOM     16  C   UNL     1       3.925  -3.372  24.747  0.00  0.00    +0.099 C 
ATOM     17  N   UNL     1       2.978  -3.046  25.332  0.00  0.00    -0.191 NA
ENDBRANCH  14  16
ENDBRANCH   8  12
ENDBRANCH   1   8
BRANCH   4  18
ATOM     18  C   UNL     1      10.232   2.062  22.271  0.00  0.00    +0.093 C 
BRANCH  18  19
ATOM     19  C   UNL     1       9.377   3.043  23.004  0.00  0.00    +0.076 A 
ATOM     20  C   UNL     1       7.973   3.239  22.862  0.00  0.00    +0.045 A 
ATOM     21  C   UNL     1       7.704   4.372  23.607  0.00  0.00    +0.178 A 
ATOM     22  N   UNL     1       6.510   4.969  23.745  0.00  0.00    -0.130 NA
ATOM     23  N   UNL     1       5.495   4.410  23.106  0.00  0.00    -0.156 NA
ATOM     24  C   UNL     1       5.685   3.295  22.356  0.00  0.00    +0.136 A 
ATOM     25  N   UNL     1       8.890   4.769  24.141  0.00  0.00    -0.259 N 
ATOM     26  H   UNL     1       9.052   5.582  24.724  0.00  0.00    +0.191 HD
ATOM     27  C   UNL     1       6.904   2.655  22.184  0.00  0.00    +0.035 A 
ATOM     28  N   UNL     1       9.933   3.985  23.791  0.00  0.00    -0.176 NA
ENDBRANCH  18  19
ENDBRANCH   4  18
TORSDOF 5
ENDMDL
MODEL 4
REMARK VINA RESULT:      -7.6      2.037      2.865
REMARK  Name = 
REMARK  6 active torsions:
REMARK  status: ('A' for Active; 'I' for Inactive)
REMARK    1  A    between atoms: C_1  and  C_2
REMARK    2  A    between atoms: C_4  and  C_26
REMARK    3  A    between atoms: C_6  and  O_7
REMARK    4  A    between atoms: O_7  and  C_8
REMARK    5  A    between atoms: C_12  and  C_13
REMARK    6  A    between atoms: C_13  and  C_14
REMARK                            x       y       z     vdW  Elec       q    Type
REMARK                         _______ _______ _______ _____ _____    ______ ____
ROOT
ATOM      1  C   UNL     1       8.340  -3.113  25.101  0.00  0.00    +0.142 A 
ATOM      2  C   UNL     1       9.396  -3.302  24.201  0.00  0.00    +0.048 A 
ATOM      3  C   UNL     1      10.201  -2.226  23.807  0.00  0.00    +0.007 A 
ATOM      4  C   UNL     1       9.930  -0.923  24.249  0.00  0.00    -0.040 A 
ATOM      5  C   UNL     1       8.853  -0.730  25.128  0.00  0.00    +0.023 A 
ATOM      6  C   UNL     1       8.065  -1.813  25.543  0.00  0.00    +0.060 A 
ATOM      7 BR   UNL     1       6.578  -1.446  26.668  0.00  0.00    -0.046 Br
ENDROOT
BRANCH   1   8
ATOM      8  O   UNL     1       7.487  -4.119  25.505  0.00  0.00    -0.455 OA
BRANCH   8  12
ATOM      9  C   UNL     1       6.301  -5.447  20.884  0.00  0.00    +0.044 C 
ATOM     10  C   UNL     1       6.130  -5.582  22.369  0.00  0.00    -0.046 A 
ATOM     11  C   UNL     1       6.981  -4.868  23.223  0.00  0.00    +0.049 A 
ATOM     12  C   UNL     1       6.746  -4.843  24.600  0.00  0.00    +0.130 A 
ATOM     13  C   UNL     1       5.736  -5.644  25.140  0.00  0.00    +0.065 A 
ATOM     14  C   UNL     1       4.924  -6.418  24.305  0.00  0.00    +0.055 A 
ATOM     15  C   UNL     1       5.104  -6.361  22.916  0.00  0.00    +0.022 A 
BRANCH  14  16
ATOM     16  C   UNL     1       3.903  -7.259  24.863  0.00  0.00    +0.099 C 
ATOM     17  N   UNL     1       3.075  -7.933  25.316  0.00  0.00    -0.191 NA
ENDBRANCH  14  16
ENDBRANCH   8  12
ENDBRANCH   1   8
BRANCH   4  18
ATOM     18  C   UNL     1      10.698   0.247  23.678  0.00  0.00    +0.093 C 
BRANCH  18  19
ATOM     19  C   UNL     1       9.797   1.046  22.794  0.00  0.00    +0.076 A 
ATOM     20  C   UNL     1       9.062   2.214  23.143  0.00  0.00    +0.045 A 
ATOM     21  C   UNL     1       8.250   2.452  22.051  0.00  0.00    +0.178 A 
ATOM     22  N   UNL     1       7.345   3.437  21.930  0.00  0.00    -0.130 NA
ATOM     23  N   UNL     1       7.228   4.258  22.961  0.00  0.00    -0.156 NA
ATOM     24  C   UNL     1       7.994   4.086  24.068  0.00  0.00    +0.136 A 
ATOM     25  N   UNL     1       8.531   1.478  21.145  0.00  0.00    -0.259 N 
ATOM     26  H   UNL     1       8.097   1.346  20.239  0.00  0.00    +0.191 HD
ATOM     27  C   UNL     1       8.933   3.077  24.231  0.00  0.00    +0.035 A 
ATOM     28  N   UNL     1       9.468   0.599  21.566  0.00  0.00    -0.176 NA
ENDBRANCH  18  19
ENDBRANCH   4  18
TORSDOF 5
ENDMDL
MODEL 5
REMARK VINA RESULT:      -7.5      2.961      8.280
REMARK  Name = 
REMARK  6 active torsions:
REMARK  status: ('A' for Active; 'I' for Inactive)
REMARK    1  A    between atoms: C_1  and  C_2
REMARK    2  A    between atoms: C_4  and  C_26
REMARK    3  A    between atoms: C_6  and  O_7
REMARK    4  A    between atoms: O_7  and  C_8
REMARK    5  A    between atoms: C_12  and  C_13
REMARK    6  A    between atoms: C_13  and  C_14
REMARK                            x       y       z     vdW  Elec       q    Type
REMARK                         _______ _______ _______ _____ _____    ______ ____
ROOT
ATOM      1  C   UNL     1       9.485  -0.212  23.035  0.00  0.00    +0.142 A 
ATOM      2  C   UNL     1       9.333  -0.912  21.832  0.00  0.00    +0.048 A 
ATOM      3  C   UNL     1       8.673  -2.146  21.801  0.00  0.00    +0.007 A 
ATOM      4  C   UNL     1       8.206  -2.745  22.980  0.00  0.00    -0.040 A 
ATOM      5  C   UNL     1       8.384  -2.056  24.190  0.00  0.00    +0.023 A 
ATOM      6  C   UNL     1       9.021  -0.808  24.216  0.00  0.00    +0.060 A 
ATOM      7 BR   UNL     1       9.292   0.014  25.908  0.00  0.00    -0.046 Br
ENDROOT
BRANCH   1   8
ATOM      8  O   UNL     1      10.152   0.989  23.147  0.00  0.00    -0.455 OA
BRANCH   8  12
ATOM      9  C   UNL     1       6.147   3.789  22.343  0.00  0.00    +0.044 C 
ATOM     10  C   UNL     1       7.543   3.622  22.867  0.00  0.00    -0.046 A 
ATOM     11  C   UNL     1       8.129   2.349  22.862  0.00  0.00    +0.049 A 
ATOM     12  C   UNL     1       9.477   2.188  23.188  0.00  0.00    +0.130 A 
ATOM     13  C   UNL     1      10.208   3.284  23.654  0.00  0.00    +0.065 A 
ATOM     14  C   UNL     1       9.616   4.548  23.733  0.00  0.00    +0.055 A 
ATOM     15  C   UNL     1       8.290   4.720  23.310  0.00  0.00    +0.022 A 
BRANCH  14  16
ATOM     16  C   UNL     1      10.360   5.669  24.235  0.00  0.00    +0.099 C 
ATOM     17  N   UNL     1      10.963   6.576  24.633  0.00  0.00    -0.191 NA
ENDBRANCH  14  16
ENDBRANCH   8  12
ENDBRANCH   1   8
BRANCH   4  18
ATOM     18  C   UNL     1       7.655  -4.151  22.949  0.00  0.00    +0.093 C 
BRANCH  18  19
ATOM     19  C   UNL     1       7.956  -4.829  24.245  0.00  0.00    +0.076 A 
ATOM     20  C   UNL     1       7.150  -4.843  25.419  0.00  0.00    +0.045 A 
ATOM     21  C   UNL     1       7.948  -5.431  26.382  0.00  0.00    +0.178 A 
ATOM     22  N   UNL     1       7.627  -5.630  27.670  0.00  0.00    -0.130 NA
ATOM     23  N   UNL     1       6.425  -5.223  28.047  0.00  0.00    -0.156 NA
ATOM     24  C   UNL     1       5.586  -4.637  27.155  0.00  0.00    +0.136 A 
ATOM     25  N   UNL     1       9.122  -5.738  25.770  0.00  0.00    -0.259 N 
ATOM     26  H   UNL     1       9.938  -6.161  26.197  0.00  0.00    +0.191 HD
ATOM     27  C   UNL     1       5.886  -4.409  25.819  0.00  0.00    +0.035 A 
ATOM     28  N   UNL     1       9.165  -5.380  24.467  0.00  0.00    -0.176 NA
ENDBRANCH  18  19
ENDBRANCH   4  18
TORSDOF 5
ENDMDL
MODEL 6
REMARK VINA RESULT:      -7.5      2.093      2.847
REMARK  Name = 
REMARK  6 active torsions:
REMARK  status: ('A' for Active; 'I' for Inactive)
REMARK    1  A    between atoms: C_1  and  C_2
REMARK    2  A    between atoms: C_4  and  C_26
REMARK    3  A    between atoms: C_6  and  O_7
REMARK    4  A    between atoms: O_7  and  C_8
REMARK    5  A    between atoms: C_12  and  C_13
REMARK    6  A    between atoms: C_13  and  C_14
REMARK                            x       y       z     vdW  Elec       q    Type
REMARK                         _______ _______ _______ _____ _____    ______ ____
ROOT
ATOM      1  C   UNL     1       9.493  -2.250  24.296  0.00  0.00    +0.142 A 
ATOM      2  C   UNL     1      10.085  -2.251  23.027  0.00  0.00    +0.048 A 
ATOM      3  C   UNL     1      10.285  -1.052  22.331  0.00  0.00    +0.007 A 
ATOM      4  C   UNL     1       9.839   0.169  22.855  0.00  0.00    -0.040 A 
ATOM      5  C   UNL     1       9.220   0.166  24.114  0.00  0.00    +0.023 A 
ATOM      6  C   UNL     1       9.044  -1.032  24.822  0.00  0.00    +0.060 A 
ATOM      7 BR   UNL     1       8.122  -0.953  26.482  0.00  0.00    -0.046 Br
ENDROOT
BRANCH   1   8
ATOM      8  O   UNL     1       9.234  -3.393  25.023  0.00  0.00    -0.455 OA
BRANCH   8  12
ATOM      9  C   UNL     1       5.382  -6.074  26.606  0.00  0.00    +0.044 C 
ATOM     10  C   UNL     1       6.165  -5.438  25.495  0.00  0.00    -0.046 A 
ATOM     11  C   UNL     1       7.258  -4.619  25.810  0.00  0.00    +0.049 A 
ATOM     12  C   UNL     1       8.103  -4.147  24.803  0.00  0.00    +0.130 A 
ATOM     13  C   UNL     1       7.777  -4.381  23.465  0.00  0.00    +0.065 A 
ATOM     14  C   UNL     1       6.649  -5.137  23.133  0.00  0.00    +0.055 A 
ATOM     15  C   UNL     1       5.861  -5.690  24.152  0.00  0.00    +0.022 A 
BRANCH  14  16
ATOM     16  C   UNL     1       6.300  -5.356  21.758  0.00  0.00    +0.099 C 
ATOM     17  N   UNL     1       6.026  -5.537  20.645  0.00  0.00    -0.191 NA
ENDBRANCH  14  16
ENDBRANCH   8  12
ENDBRANCH   1   8
BRANCH   4  18
ATOM     18  C   UNL     1       9.906   1.424  22.015  0.00  0.00    +0.093 C 
BRANCH  18  19
ATOM     19  C   UNL     1       9.444   2.589  22.828  0.00  0.00    +0.076 A 
ATOM     20  C   UNL     1       8.150   3.183  22.827  0.00  0.00    +0.045 A 
ATOM     21  C   UNL     1       8.291   4.324  23.592  0.00  0.00    +0.178 A 
ATOM     22  N   UNL     1       7.338   5.235  23.848  0.00  0.00    -0.130 NA
ATOM     23  N   UNL     1       6.148   5.007  23.315  0.00  0.00    -0.156 NA
ATOM     24  C   UNL     1       5.936   3.905  22.551  0.00  0.00    +0.136 A 
ATOM     25  N   UNL     1       9.586   4.351  24.004  0.00  0.00    -0.259 N 
ATOM     26  H   UNL     1      10.030   5.067  24.567  0.00  0.00    +0.191 HD
ATOM     27  C   UNL     1       6.897   2.948  22.260  0.00  0.00    +0.035 A 
ATOM     28  N   UNL     1      10.321   3.310  23.553  0.00  0.00    -0.176 NA
ENDBRANCH  18  19
ENDBRANCH   4  18
TORSDOF 5
ENDMDL
MODEL 7
REMARK VINA RESULT:      -7.4      3.322      8.452
REMARK  Name = 
REMARK  6 active torsions:
REMARK  status: ('A' for Active; 'I' for Inactive)
REMARK    1  A    between atoms: C_1  and  C_2
REMARK    2  A    between atoms: C_4  and  C_26
REMARK    3  A    between atoms: C_6  and  O_7
REMARK    4  A    between atoms: O_7  and  C_8
REMARK    5  A    between atoms: C_12  and  C_13
REMARK    6  A    between atoms: C_13  and  C_14
REMARK                            x       y       z     vdW  Elec       q    Type
REMARK                         _______ _______ _______ _____ _____    ______ ____
ROOT
ATOM      1  C   UNL     1       8.094  -0.789  24.351  0.00  0.00    +0.142 A 
ATOM      2  C   UNL     1       7.523  -1.127  25.584  0.00  0.00    +0.048 A 
ATOM      3  C   UNL     1       7.907  -2.295  26.254  0.00  0.00    +0.007 A 
ATOM      4  C   UNL     1       8.820  -3.190  25.678  0.00  0.00    -0.040 A 
ATOM      5  C   UNL     1       9.370  -2.865  24.428  0.00  0.00    +0.023 A 
ATOM      6  C   UNL     1       9.005  -1.681  23.772  0.00  0.00    +0.060 A 
ATOM      7 BR   UNL     1       9.737  -1.363  22.047  0.00  0.00    -0.046 Br
ENDROOT
BRANCH   1   8
ATOM      8  O   UNL     1       7.740   0.326  23.621  0.00  0.00    -0.455 OA
BRANCH   8  12
ATOM      9  C   UNL     1       6.719   4.550  25.997  0.00  0.00    +0.044 C 
ATOM     10  C   UNL     1       7.664   3.682  25.218  0.00  0.00    -0.046 A 
ATOM     11  C   UNL     1       7.284   2.371  24.900  0.00  0.00    +0.049 A 
ATOM     12  C   UNL     1       8.066   1.596  24.040  0.00  0.00    +0.130 A 
ATOM     13  C   UNL     1       9.301   2.084  23.604  0.00  0.00    +0.065 A 
ATOM     14  C   UNL     1       9.725   3.364  23.972  0.00  0.00    +0.055 A 
ATOM     15  C   UNL     1       8.890   4.174  24.755  0.00  0.00    +0.022 A 
BRANCH  14  16
ATOM     16  C   UNL     1      11.005   3.855  23.545  0.00  0.00    +0.099 C 
ATOM     17  N   UNL     1      12.041   4.245  23.199  0.00  0.00    -0.191 NA
ENDBRANCH  14  16
ENDBRANCH   8  12
ENDBRANCH   1   8
BRANCH   4  18
ATOM     18  C   UNL     1       9.088  -4.526  26.332  0.00  0.00    +0.093 C 
BRANCH  18  19
ATOM     19  C   UNL     1       7.806  -5.281  26.457  0.00  0.00    +0.076 A 
ATOM     20  C   UNL     1       6.836  -5.508  25.440  0.00  0.00    +0.045 A 
ATOM     21  C   UNL     1       5.767  -6.082  26.102  0.00  0.00    +0.178 A 
ATOM     22  N   UNL     1       4.593  -6.442  25.558  0.00  0.00    -0.130 NA
ATOM     23  N   UNL     1       4.455  -6.227  24.259  0.00  0.00    -0.156 NA
ATOM     24  C   UNL     1       5.465  -5.667  23.544  0.00  0.00    +0.136 A 
ATOM     25  N   UNL     1       6.133  -6.179  27.408  0.00  0.00    -0.259 N 
ATOM     26  H   UNL     1       5.571  -6.537  28.171  0.00  0.00    +0.191 HD
ATOM     27  C   UNL     1       6.687  -5.276  24.073  0.00  0.00    +0.035 A 
ATOM     28  N   UNL     1       7.369  -5.696  27.663  0.00  0.00    -0.176 NA
ENDBRANCH  18  19
ENDBRANCH   4  18
TORSDOF 5
ENDMDL
MODEL 8
REMARK VINA RESULT:      -7.4      3.121      4.570
REMARK  Name = 
REMARK  6 active torsions:
REMARK  status: ('A' for Active; 'I' for Inactive)
REMARK    1  A    between atoms: C_1  and  C_2
REMARK    2  A    between atoms: C_4  and  C_26
REMARK    3  A    between atoms: C_6  and  O_7
REMARK    4  A    between atoms: O_7  and  C_8
REMARK    5  A    between atoms: C_12  and  C_13
REMARK    6  A    between atoms: C_13  and  C_14
REMARK                            x       y       z     vdW  Elec       q    Type
REMARK                         _______ _______ _______ _____ _____    ______ ____
ROOT
ATOM      1  C   UNL     1       5.393  -3.688  22.910  0.00  0.00    +0.142 A 
ATOM      2  C   UNL     1       5.529  -2.624  23.809  0.00  0.00    +0.048 A 
ATOM      3  C   UNL     1       6.768  -1.998  23.995  0.00  0.00    +0.007 A 
ATOM      4  C   UNL     1       7.916  -2.463  23.338  0.00  0.00    -0.040 A 
ATOM      5  C   UNL     1       7.786  -3.548  22.458  0.00  0.00    +0.023 A 
ATOM      6  C   UNL     1       6.539  -4.156  22.253  0.00  0.00    +0.060 A 
ATOM      7 BR   UNL     1       6.470  -5.672  21.107  0.00  0.00    -0.046 Br
ENDROOT
BRANCH   1   8
ATOM      8  O   UNL     1       4.214  -4.372  22.702  0.00  0.00    -0.455 OA
BRANCH   8  12
ATOM      9  C   UNL     1       1.436  -8.359  23.659  0.00  0.00    +0.044 C 
ATOM     10  C   UNL     1       2.571  -7.441  24.007  0.00  0.00    -0.046 A 
ATOM     11  C   UNL     1       2.920  -6.417  23.117  0.00  0.00    +0.049 A 
ATOM     12  C   UNL     1       3.858  -5.448  23.483  0.00  0.00    +0.130 A 
ATOM     13  C   UNL     1       4.549  -5.581  24.690  0.00  0.00    +0.065 A 
ATOM     14  C   UNL     1       4.261  -6.639  25.557  0.00  0.00    +0.055 A 
ATOM     15  C   UNL     1       3.249  -7.551  25.227  0.00  0.00    +0.022 A 
BRANCH  14  16
ATOM     16  C   UNL     1       4.988  -6.789  26.786  0.00  0.00    +0.099 C 
ATOM     17  N   UNL     1       5.569  -6.912  27.783  0.00  0.00    -0.191 NA
ENDBRANCH  14  16
ENDBRANCH   8  12
ENDBRANCH   1   8
BRANCH   4  18
ATOM     18  C   UNL     1       9.272  -1.890  23.683  0.00  0.00    +0.093 C 
BRANCH  18  19
ATOM     19  C   UNL     1       9.421  -0.550  23.040  0.00  0.00    +0.076 A 
ATOM     20  C   UNL     1       9.153   0.721  23.623  0.00  0.00    +0.045 A 
ATOM     21  C   UNL     1       9.260   1.614  22.575  0.00  0.00    +0.178 A 
ATOM     22  N   UNL     1       9.056   2.940  22.633  0.00  0.00    -0.130 NA
ATOM     23  N   UNL     1       8.723   3.433  23.815  0.00  0.00    -0.156 NA
ATOM     24  C   UNL     1       8.599   2.615  24.891  0.00  0.00    +0.136 A 
ATOM     25  N   UNL     1       9.583   0.879  21.478  0.00  0.00    -0.259 N 
ATOM     26  H   UNL     1       9.716   1.222  20.533  0.00  0.00    +0.191 HD
ATOM     27  C   UNL     1       8.795   1.241  24.867  0.00  0.00    +0.035 A 
ATOM     28  N   UNL     1       9.685  -0.446  21.723  0.00  0.00    -0.176 NA
ENDBRANCH  18  19
ENDBRANCH   4  18
TORSDOF 5
ENDMDL
MODEL 9
REMARK VINA RESULT:      -7.4      1.925      2.187
REMARK  Name = 
REMARK  6 active torsions:
REMARK  status: ('A' for Active; 'I' for Inactive)
REMARK    1  A    between atoms: C_1  and  C_2
REMARK    2  A    between atoms: C_4  and  C_26
REMARK    3  A    between atoms: C_6  and  O_7
REMARK    4  A    between atoms: O_7  and  C_8
REMARK    5  A    between atoms: C_12  and  C_13
REMARK    6  A    between atoms: C_13  and  C_14
REMARK                            x       y       z     vdW  Elec       q    Type
REMARK                         _______ _______ _______ _____ _____    ______ ____
ROOT
ATOM      1  C   UNL     1       9.250  -1.942  23.924  0.00  0.00    +0.142 A 
ATOM      2  C   UNL     1       9.567  -1.745  22.575  0.00  0.00    +0.048 A 
ATOM      3  C   UNL     1       9.951  -0.482  22.107  0.00  0.00    +0.007 A 
ATOM      4  C   UNL     1       9.962   0.630  22.961  0.00  0.00    -0.040 A 
ATOM      5  C   UNL     1       9.616   0.438  24.308  0.00  0.00    +0.023 A 
ATOM      6  C   UNL     1       9.259  -0.833  24.780  0.00  0.00    +0.060 A 
ATOM      7 BR   UNL     1       8.725  -0.985  26.598  0.00  0.00    -0.046 Br
ENDROOT
BRANCH   1   8
ATOM      8  O   UNL     1       8.832  -3.148  24.447  0.00  0.00    -0.455 OA
BRANCH   8  12
ATOM      9  C   UNL     1       6.321  -6.353  21.626  0.00  0.00    +0.044 C 
ATOM     10  C   UNL     1       6.363  -5.323  22.718  0.00  0.00    -0.046 A 
ATOM     11  C   UNL     1       7.602  -4.821  23.137  0.00  0.00    +0.049 A 
ATOM     12  C   UNL     1       7.666  -3.749  24.031  0.00  0.00    +0.130 A 
ATOM     13  C   UNL     1       6.490  -3.267  24.613  0.00  0.00    +0.065 A 
ATOM     14  C   UNL     1       5.252  -3.808  24.257  0.00  0.00    +0.055 A 
ATOM     15  C   UNL     1       5.188  -4.817  23.286  0.00  0.00    +0.022 A 
BRANCH  14  16
ATOM     16  C   UNL     1       4.046  -3.329  24.874  0.00  0.00    +0.099 C 
ATOM     17  N   UNL     1       3.069  -2.945  25.365  0.00  0.00    -0.191 NA
ENDBRANCH  14  16
ENDBRANCH   8  12
ENDBRANCH   1   8
BRANCH   4  18
ATOM     18  C   UNL     1      10.208   2.013  22.403  0.00  0.00    +0.093 C 
BRANCH  18  19
ATOM     19  C   UNL     1       8.944   2.805  22.471  0.00  0.00    +0.076 A 
ATOM     20  C   UNL     1       8.643   3.874  23.362  0.00  0.00    +0.045 A 
ATOM     21  C   UNL     1       7.303   4.135  23.152  0.00  0.00    +0.178 A 
ATOM     22  N   UNL     1       6.558   5.047  23.797  0.00  0.00    -0.130 NA
ATOM     23  N   UNL     1       7.176   5.765  24.721  0.00  0.00    -0.156 NA
ATOM     24  C   UNL     1       8.493   5.564  24.981  0.00  0.00    +0.136 A 
ATOM     25  N   UNL     1       6.891   3.268  22.189  0.00  0.00    -0.259 N 
ATOM     26  H   UNL     1       5.954   3.178  21.813  0.00  0.00    +0.191 HD
ATOM     27  C   UNL     1       9.292   4.627  24.340  0.00  0.00    +0.035 A 
ATOM     28  N   UNL     1       7.864   2.438  21.753  0.00  0.00    -0.176 NA
ENDBRANCH  18  19
ENDBRANCH   4  18
TORSDOF 5
ENDMDL
