MODEL 1
REMARK VINA RESULT:      -6.6      0.000      0.000
REMARK  Name = 
REMARK  9 active torsions:
REMARK  status: ('A' for Active; 'I' for Inactive)
REMARK    1  A    between atoms: C_2  and  C_4
REMARK    2  A    between atoms: N_8  and  C_10
REMARK    3  A    between atoms: C_13  and  C_15
REMARK    4  A    between atoms: C_15  and  O_16
REMARK    5  A    between atoms: O_16  and  P_17
REMARK    6  A    between atoms: P_17  and  O_18
REMARK    7  A    between atoms: P_17  and  O_19
REMARK    8  A    between atoms: C_21  and  O_23
REMARK    9  A    between atoms: C_24  and  O_26
REMARK                            x       y       z     vdW  Elec       q    Type
REMARK                         _______ _______ _______ _____ _____    ______ ____
ROOT
ATOM      1  C   UNL     1       9.277  -3.445  24.002  0.00  0.00    +0.439 C 
ATOM      2  C   UNL     1       9.286  -4.231  25.313  0.00  0.00    +0.244 C 
ATOM      3  C   UNL     1       7.893  -4.864  25.419  0.00  0.00    +0.183 C 
ATOM      4  C   UNL     1       7.143  -4.316  24.210  0.00  0.00    +0.183 C 
ATOM      5  O   UNL     1       8.155  -3.931  23.259  0.00  0.00    -0.309 OA
ENDROOT
BRANCH   1   8
ATOM      6  C   UNL     1       9.406   0.233  23.170  0.00  0.00    +0.100 A 
ATOM      7  C   UNL     1       9.303  -1.152  23.066  0.00  0.00    +0.324 A 
ATOM      8  N   UNL     1       9.213  -1.954  24.161  0.00  0.00    -0.173 N 
ATOM      9  C   UNL     1       9.248  -1.401  25.400  0.00  0.00    +0.311 A 
ATOM     10  C   UNL     1       9.341  -0.020  25.554  0.00  0.00    +0.071 A 
ATOM     11  C   UNL     1       9.426   0.808  24.437  0.00  0.00    +0.025 A 
BRANCH   6  15
ATOM     12  N   UNL     1      10.136   2.186  21.877  0.00  0.00    -0.325 N 
ATOM     13  H   UNL     1      10.499   2.693  22.670  0.00  0.00    +0.145 HD
ATOM     14  H   UNL     1      10.194   2.651  20.976  0.00  0.00    +0.145 HD
ATOM     15  C   UNL     1       9.531   0.968  21.895  0.00  0.00    +0.247 C 
ATOM     16  O   UNL     1       9.092   0.463  20.861  0.00  0.00    -0.270 OA
ENDBRANCH   6  15
ENDBRANCH   1   8
BRANCH   2  17
ATOM     17  O   UNL     1      10.315  -5.240  25.263  0.00  0.00    -0.380 OA
ATOM     18  H   UNL     1      11.190  -4.837  25.089  0.00  0.00    +0.210 HD
ENDBRANCH   2  17
BRANCH   3  19
ATOM     19  O   UNL     1       7.284  -4.438  26.629  0.00  0.00    -0.386 OA
ATOM     20  H   UNL     1       6.516  -3.875  26.406  0.00  0.00    +0.210 HD
ENDBRANCH   3  19
BRANCH   4  21
ATOM     21  C   UNL     1       6.242  -5.309  23.512  0.00  0.00    +0.206 C 
BRANCH  21  22
ATOM     22  O   UNL     1       5.258  -5.897  24.356  0.00  0.00    -0.284 OA
BRANCH  22  23
ATOM     23  P   UNL     1       3.753  -5.965  23.506  0.00  0.00    +0.472 P 
ATOM     24  O   UNL     1       2.406  -6.026  22.746  0.00  0.00    -0.228 OA
BRANCH  23  25
ATOM     25  O   UNL     1       3.731  -7.563  23.846  0.00  0.00    -0.303 OA
ATOM     26  H   UNL     1       4.268  -8.010  23.162  0.00  0.00    +0.222 HD
ENDBRANCH  23  25
BRANCH  23  27
ATOM     27  O   UNL     1       4.653  -6.013  22.147  0.00  0.00    -0.303 OA
ATOM     28  H   UNL     1       4.347  -6.714  21.543  0.00  0.00    +0.222 HD
ENDBRANCH  23  27
ENDBRANCH  22  23
ENDBRANCH  21  22
ENDBRANCH   4  21
TORSDOF 9
ENDMDL
MODEL 2
REMARK VINA RESULT:      -6.6      1.921      2.387
REMARK  Name = 
REMARK  9 active torsions:
REMARK  status: ('A' for Active; 'I' for Inactive)
REMARK    1  A    between atoms: C_2  and  C_4
REMARK    2  A    between atoms: N_8  and  C_10
REMARK    3  A    between atoms: C_13  and  C_15
REMARK    4  A    between atoms: C_15  and  O_16
REMARK    5  A    between atoms: O_16  and  P_17
REMARK    6  A    between atoms: P_17  and  O_18
REMARK    7  A    between atoms: P_17  and  O_19
REMARK    8  A    between atoms: C_21  and  O_23
REMARK    9  A    between atoms: C_24  and  O_26
REMARK                            x       y       z     vdW  Elec       q    Type
REMARK                         _______ _______ _______ _____ _____    ______ ____
ROOT
ATOM      1  C   UNL     1       8.377  -4.829  24.166  0.00  0.00    +0.439 C 
ATOM      2  C   UNL     1       8.867  -5.127  25.583  0.00  0.00    +0.244 C 
ATOM      3  C   UNL     1       7.602  -5.430  26.396  0.00  0.00    +0.183 C 
ATOM      4  C   UNL     1       6.461  -5.186  25.415  0.00  0.00    +0.183 C 
ATOM      5  O   UNL     1       7.036  -5.324  24.100  0.00  0.00    -0.309 OA
ENDROOT
BRANCH   1   8
ATOM      6  C   UNL     1       9.020  -1.115  24.336  0.00  0.00    +0.100 A 
ATOM      7  C   UNL     1       9.069  -2.487  24.575  0.00  0.00    +0.324 A 
ATOM      8  N   UNL     1       8.437  -3.383  23.769  0.00  0.00    -0.173 N 
ATOM      9  C   UNL     1       7.713  -2.937  22.712  0.00  0.00    +0.311 A 
ATOM     10  C   UNL     1       7.642  -1.575  22.429  0.00  0.00    +0.071 A 
ATOM     11  C   UNL     1       8.293  -0.652  23.244  0.00  0.00    +0.025 A 
BRANCH   6  15
ATOM     12  N   UNL     1       9.248  -0.160  26.585  0.00  0.00    -0.325 N 
ATOM     13  H   UNL     1       8.409  -0.584  26.951  0.00  0.00    +0.145 HD
ATOM     14  H   UNL     1       9.769   0.438  27.218  0.00  0.00    +0.145 HD
ATOM     15  C   UNL     1       9.727  -0.265  25.316  0.00  0.00    +0.247 C 
ATOM     16  O   UNL     1      10.749   0.331  24.973  0.00  0.00    -0.270 OA
ENDBRANCH   6  15
ENDBRANCH   1   8
BRANCH   2  17
ATOM     17  O   UNL     1       9.754  -6.263  25.558  0.00  0.00    -0.380 OA
ATOM     18  H   UNL     1      10.688  -5.974  25.500  0.00  0.00    +0.210 HD
ENDBRANCH   2  17
BRANCH   3  19
ATOM     19  O   UNL     1       7.531  -4.527  27.491  0.00  0.00    -0.386 OA
ATOM     20  H   UNL     1       8.308  -4.678  28.066  0.00  0.00    +0.210 HD
ENDBRANCH   3  19
BRANCH   4  21
ATOM     21  C   UNL     1       5.322  -6.176  25.500  0.00  0.00    +0.206 C 
BRANCH  21  22
ATOM     22  O   UNL     1       5.003  -6.805  24.264  0.00  0.00    -0.284 OA
BRANCH  22  23
ATOM     23  P   UNL     1       3.661  -5.985  23.543  0.00  0.00    +0.472 P 
ATOM     24  O   UNL     1       2.461  -5.251  22.897  0.00  0.00    -0.228 OA
BRANCH  23  25
ATOM     25  O   UNL     1       3.001  -7.459  23.299  0.00  0.00    -0.303 OA
ATOM     26  H   UNL     1       3.552  -7.914  22.632  0.00  0.00    +0.222 HD
ENDBRANCH  23  25
BRANCH  23  27
ATOM     27  O   UNL     1       4.582  -5.901  22.199  0.00  0.00    -0.303 OA
ATOM     28  H   UNL     1       4.740  -4.976  21.934  0.00  0.00    +0.222 HD
ENDBRANCH  23  27
ENDBRANCH  22  23
ENDBRANCH  21  22
ENDBRANCH   4  21
TORSDOF 9
ENDMDL
MODEL 3
REMARK VINA RESULT:      -6.5      3.397      7.219
REMARK  Name = 
REMARK  9 active torsions:
REMARK  status: ('A' for Active; 'I' for Inactive)
REMARK    1  A    between atoms: C_2  and  C_4
REMARK    2  A    between atoms: N_8  and  C_10
REMARK    3  A    between atoms: C_13  and  C_15
REMARK    4  A    between atoms: C_15  and  O_16
REMARK    5  A    between atoms: O_16  and  P_17
REMARK    6  A    between atoms: P_17  and  O_18
REMARK    7  A    between atoms: P_17  and  O_19
REMARK    8  A    between atoms: C_21  and  O_23
REMARK    9  A    between atoms: C_24  and  O_26
REMARK                            x       y       z     vdW  Elec       q    Type
REMARK                         _______ _______ _______ _____ _____    ______ ____
ROOT
ATOM      1  C   UNL     1       9.311  -2.297  23.412  0.00  0.00    +0.439 C 
ATOM      2  C   UNL     1       8.726  -1.642  22.160  0.00  0.00    +0.244 C 
ATOM      3  C   UNL     1       8.218  -0.269  22.617  0.00  0.00    +0.183 C 
ATOM      4  C   UNL     1       8.453  -0.268  24.123  0.00  0.00    +0.183 C 
ATOM      5  O   UNL     1       9.489  -1.242  24.361  0.00  0.00    -0.309 OA
ENDROOT
BRANCH   1   8
ATOM      6  C   UNL     1       6.648  -4.951  23.739  0.00  0.00    +0.100 A 
ATOM      7  C   UNL     1       7.550  -4.027  23.214  0.00  0.00    +0.324 A 
ATOM      8  N   UNL     1       8.480  -3.405  23.989  0.00  0.00    -0.173 N 
ATOM      9  C   UNL     1       8.523  -3.665  25.320  0.00  0.00    +0.311 A 
ATOM     10  C   UNL     1       7.648  -4.588  25.888  0.00  0.00    +0.071 A 
ATOM     11  C   UNL     1       6.699  -5.234  25.100  0.00  0.00    +0.025 A 
BRANCH   6  15
ATOM     12  N   UNL     1       5.991  -6.652  22.098  0.00  0.00    -0.325 N 
ATOM     13  H   UNL     1       6.860  -7.161  22.139  0.00  0.00    +0.145 HD
ATOM     14  H   UNL     1       5.290  -6.999  21.451  0.00  0.00    +0.145 HD
ATOM     15  C   UNL     1       5.677  -5.518  22.783  0.00  0.00    +0.247 C 
ATOM     16  O   UNL     1       4.590  -4.962  22.623  0.00  0.00    -0.270 OA
ENDBRANCH   6  15
ENDBRANCH   1   8
BRANCH   2  17
ATOM     17  O   UNL     1       9.756  -1.510  21.159  0.00  0.00    -0.380 OA
ATOM     18  H   UNL     1       9.388  -1.642  20.262  0.00  0.00    +0.210 HD
ENDBRANCH   2  17
BRANCH   3  19
ATOM     19  O   UNL     1       6.833  -0.168  22.321  0.00  0.00    -0.386 OA
ATOM     20  H   UNL     1       6.737   0.127  21.393  0.00  0.00    +0.210 HD
ENDBRANCH   3  19
BRANCH   4  21
ATOM     21  C   UNL     1       8.946   1.043  24.693  0.00  0.00    +0.206 C 
BRANCH  21  22
ATOM     22  O   UNL     1       8.736   2.164  23.842  0.00  0.00    -0.284 OA
BRANCH  22  23
ATOM     23  P   UNL     1      10.249   2.956  23.568  0.00  0.00    +0.472 P 
ATOM     24  O   UNL     1      11.603   3.665  23.323  0.00  0.00    -0.228 OA
BRANCH  23  25
ATOM     25  O   UNL     1      10.097   2.518  22.001  0.00  0.00    -0.303 OA
ATOM     26  H   UNL     1      10.637   3.142  21.475  0.00  0.00    +0.222 HD
ENDBRANCH  23  25
BRANCH  23  27
ATOM     27  O   UNL     1      10.936   1.593  24.141  0.00  0.00    -0.303 OA
ATOM     28  H   UNL     1      11.901   1.693  24.233  0.00  0.00    +0.222 HD
ENDBRANCH  23  27
ENDBRANCH  22  23
ENDBRANCH  21  22
ENDBRANCH   4  21
TORSDOF 9
ENDMDL
MODEL 4
REMARK VINA RESULT:      -6.3      2.125      2.954
REMARK  Name = 
REMARK  9 active torsions:
REMARK  status: ('A' for Active; 'I' for Inactive)
REMARK    1  A    between atoms: C_2  and  C_4
REMARK    2  A    between atoms: N_8  and  C_10
REMARK    3  A    between atoms: C_13  and  C_15
REMARK    4  A    between atoms: C_15  and  O_16
REMARK    5  A    between atoms: O_16  and  P_17
REMARK    6  A    between atoms: P_17  and  O_18
REMARK    7  A    between atoms: P_17  and  O_19
REMARK    8  A    between atoms: C_21  and  O_23
REMARK    9  A    between atoms: C_24  and  O_26
REMARK                            x       y       z     vdW  Elec       q    Type
REMARK                         _______ _______ _______ _____ _____    ______ ____
ROOT
ATOM      1  C   UNL     1       9.405  -1.542  24.712  0.00  0.00    +0.439 C 
ATOM      2  C   UNL     1       8.066  -1.431  25.442  0.00  0.00    +0.244 C 
ATOM      3  C   UNL     1       7.208  -2.580  24.899  0.00  0.00    +0.183 C 
ATOM      4  C   UNL     1       8.076  -3.213  23.817  0.00  0.00    +0.183 C 
ATOM      5  O   UNL     1       9.434  -2.853  24.142  0.00  0.00    -0.309 OA
ENDROOT
BRANCH   1   8
ATOM      6  C   UNL     1       9.884   1.836  23.101  0.00  0.00    +0.100 A 
ATOM      7  C   UNL     1       9.819   0.803  24.034  0.00  0.00    +0.324 A 
ATOM      8  N   UNL     1       9.640  -0.494  23.665  0.00  0.00    -0.173 N 
ATOM      9  C   UNL     1       9.494  -0.800  22.351  0.00  0.00    +0.311 A 
ATOM     10  C   UNL     1       9.561   0.197  21.381  0.00  0.00    +0.071 A 
ATOM     11  C   UNL     1       9.752   1.526  21.751  0.00  0.00    +0.025 A 
BRANCH   6  15
ATOM     12  N   UNL     1      11.077   3.976  23.228  0.00  0.00    -0.325 N 
ATOM     13  H   UNL     1      11.800   3.719  22.573  0.00  0.00    +0.145 HD
ATOM     14  H   UNL     1      11.147   4.900  23.641  0.00  0.00    +0.145 HD
ATOM     15  C   UNL     1      10.048   3.195  23.655  0.00  0.00    +0.247 C 
ATOM     16  O   UNL     1       9.243   3.609  24.491  0.00  0.00    -0.270 OA
ENDBRANCH   6  15
ENDBRANCH   1   8
BRANCH   2  17
ATOM     17  O   UNL     1       8.279  -1.566  26.862  0.00  0.00    -0.380 OA
ATOM     18  H   UNL     1       8.716  -2.418  27.069  0.00  0.00    +0.210 HD
ENDBRANCH   2  17
BRANCH   3  19
ATOM     19  O   UNL     1       6.017  -2.042  24.342  0.00  0.00    -0.386 OA
ATOM     20  H   UNL     1       5.579  -1.493  25.023  0.00  0.00    +0.210 HD
ENDBRANCH   3  19
BRANCH   4  21
ATOM     21  C   UNL     1       8.025  -4.723  23.759  0.00  0.00    +0.206 C 
BRANCH  21  22
ATOM     22  O   UNL     1       6.713  -5.257  23.629  0.00  0.00    -0.284 OA
BRANCH  22  23
ATOM     23  P   UNL     1       6.307  -5.353  21.950  0.00  0.00    +0.472 P 
ATOM     24  O   UNL     1       5.943  -5.440  20.447  0.00  0.00    -0.228 OA
BRANCH  23  25
ATOM     25  O   UNL     1       5.189  -4.198  22.242  0.00  0.00    -0.303 OA
ATOM     26  H   UNL     1       5.666  -3.347  22.306  0.00  0.00    +0.222 HD
ENDBRANCH  23  25
BRANCH  23  27
ATOM     27  O   UNL     1       5.422  -6.662  22.356  0.00  0.00    -0.303 OA
ATOM     28  H   UNL     1       4.581  -6.689  21.865  0.00  0.00    +0.222 HD
ENDBRANCH  23  27
ENDBRANCH  22  23
ENDBRANCH  21  22
ENDBRANCH   4  21
TORSDOF 9
ENDMDL
MODEL 5
REMARK VINA RESULT:      -6.3      2.355      3.711
REMARK  Name = 
REMARK  9 active torsions:
REMARK  status: ('A' for Active; 'I' for Inactive)
REMARK    1  A    between atoms: C_2  and  C_4
REMARK    2  A    between atoms: N_8  and  C_10
REMARK    3  A    between atoms: C_13  and  C_15
REMARK    4  A    between atoms: C_15  and  O_16
REMARK    5  A    between atoms: O_16  and  P_17
REMARK    6  A    between atoms: P_17  and  O_18
REMARK    7  A    between atoms: P_17  and  O_19
REMARK    8  A    between atoms: C_21  and  O_23
REMARK    9  A    between atoms: C_24  and  O_26
REMARK                            x       y       z     vdW  Elec       q    Type
REMARK                         _______ _______ _______ _____ _____    ______ ____
ROOT
ATOM      1  C   UNL     1       6.604  -2.850  22.725  0.00  0.00    +0.439 C 
ATOM      2  C   UNL     1       6.706  -4.039  21.769  0.00  0.00    +0.244 C 
ATOM      3  C   UNL     1       6.581  -5.286  22.654  0.00  0.00    +0.183 C 
ATOM      4  C   UNL     1       6.517  -4.731  24.072  0.00  0.00    +0.183 C 
ATOM      5  O   UNL     1       6.060  -3.369  23.942  0.00  0.00    -0.309 OA
ENDROOT
BRANCH   1   8
ATOM      6  C   UNL     1       9.337  -0.258  22.503  0.00  0.00    +0.100 A 
ATOM      7  C   UNL     1       8.102  -0.900  22.433  0.00  0.00    +0.324 A 
ATOM      8  N   UNL     1       7.896  -2.131  22.976  0.00  0.00    -0.173 N 
ATOM      9  C   UNL     1       8.925  -2.774  23.584  0.00  0.00    +0.311 A 
ATOM     10  C   UNL     1      10.175  -2.167  23.686  0.00  0.00    +0.071 A 
ATOM     11  C   UNL     1      10.391  -0.904  23.140  0.00  0.00    +0.025 A 
BRANCH   6  15
ATOM     12  N   UNL     1       8.426   1.444  20.988  0.00  0.00    -0.325 N 
ATOM     13  H   UNL     1       7.621   0.902  20.712  0.00  0.00    +0.145 HD
ATOM     14  H   UNL     1       8.529   2.357  20.557  0.00  0.00    +0.145 HD
ATOM     15  C   UNL     1       9.416   1.059  21.840  0.00  0.00    +0.247 C 
ATOM     16  O   UNL     1      10.373   1.798  22.074  0.00  0.00    -0.270 OA
ENDBRANCH   6  15
ENDBRANCH   1   8
BRANCH   2  17
ATOM     17  O   UNL     1       5.636  -3.975  20.804  0.00  0.00    -0.380 OA
ATOM     18  H   UNL     1       5.728  -4.685  20.136  0.00  0.00    +0.210 HD
ENDBRANCH   2  17
BRANCH   3  19
ATOM     19  O   UNL     1       7.735  -6.094  22.478  0.00  0.00    -0.386 OA
ATOM     20  H   UNL     1       7.697  -6.831  23.120  0.00  0.00    +0.210 HD
ENDBRANCH   3  19
BRANCH   4  21
ATOM     21  C   UNL     1       5.543  -5.433  24.991  0.00  0.00    +0.206 C 
BRANCH  21  22
ATOM     22  O   UNL     1       6.142  -6.004  26.148  0.00  0.00    -0.284 OA
BRANCH  22  23
ATOM     23  P   UNL     1       7.550  -5.090  26.564  0.00  0.00    +0.472 P 
ATOM     24  O   UNL     1       8.811  -4.271  26.936  0.00  0.00    -0.228 OA
BRANCH  23  25
ATOM     25  O   UNL     1       7.827  -6.204  27.725  0.00  0.00    -0.303 OA
ATOM     26  H   UNL     1       7.808  -5.736  28.584  0.00  0.00    +0.222 HD
ENDBRANCH  23  25
BRANCH  23  27
ATOM     27  O   UNL     1       6.535  -4.117  27.391  0.00  0.00    -0.303 OA
ATOM     28  H   UNL     1       5.604  -4.328  27.196  0.00  0.00    +0.222 HD
ENDBRANCH  23  27
ENDBRANCH  22  23
ENDBRANCH  21  22
ENDBRANCH   4  21
TORSDOF 9
ENDMDL
MODEL 6
REMARK VINA RESULT:      -6.2      2.686      3.753
REMARK  Name = 
REMARK  9 active torsions:
REMARK  status: ('A' for Active; 'I' for Inactive)
REMARK    1  A    between atoms: C_2  and  C_4
REMARK    2  A    between atoms: N_8  and  C_10
REMARK    3  A    between atoms: C_13  and  C_15
REMARK    4  A    between atoms: C_15  and  O_16
REMARK    5  A    between atoms: O_16  and  P_17
REMARK    6  A    between atoms: P_17  and  O_18
REMARK    7  A    between atoms: P_17  and  O_19
REMARK    8  A    between atoms: C_21  and  O_23
REMARK    9  A    between atoms: C_24  and  O_26
REMARK                            x       y       z     vdW  Elec       q    Type
REMARK                         _______ _______ _______ _____ _____    ______ ____
ROOT
ATOM      1  C   UNL     1       6.908  -1.880  22.844  0.00  0.00    +0.439 C 
ATOM      2  C   UNL     1       7.551  -3.239  22.568  0.00  0.00    +0.244 C 
ATOM      3  C   UNL     1       7.777  -3.870  23.948  0.00  0.00    +0.183 C 
ATOM      4  C   UNL     1       7.342  -2.788  24.928  0.00  0.00    +0.183 C 
ATOM      5  O   UNL     1       6.443  -1.931  24.196  0.00  0.00    -0.309 OA
ENDROOT
BRANCH   1   8
ATOM      6  C   UNL     1       8.089   1.691  22.542  0.00  0.00    +0.100 A 
ATOM      7  C   UNL     1       7.350   0.557  22.872  0.00  0.00    +0.324 A 
ATOM      8  N   UNL     1       7.810  -0.701  22.629  0.00  0.00    -0.173 N 
ATOM      9  C   UNL     1       9.013  -0.867  22.023  0.00  0.00    +0.311 A 
ATOM     10  C   UNL     1       9.791   0.237  21.683  0.00  0.00    +0.071 A 
ATOM     11  C   UNL     1       9.331   1.527  21.936  0.00  0.00    +0.025 A 
BRANCH   6  15
ATOM     12  N   UNL     1       7.817   4.096  22.141  0.00  0.00    -0.325 N 
ATOM     13  H   UNL     1       8.537   4.156  21.437  0.00  0.00    +0.145 HD
ATOM     14  H   UNL     1       7.346   4.962  22.383  0.00  0.00    +0.145 HD
ATOM     15  C   UNL     1       7.445   2.987  22.836  0.00  0.00    +0.247 C 
ATOM     16  O   UNL     1       6.571   3.045  23.702  0.00  0.00    -0.270 OA
ENDBRANCH   6  15
ENDBRANCH   1   8
BRANCH   2  17
ATOM     17  O   UNL     1       6.659  -4.041  21.769  0.00  0.00    -0.380 OA
ATOM     18  H   UNL     1       7.129  -4.423  20.999  0.00  0.00    +0.210 HD
ENDBRANCH   2  17
BRANCH   3  19
ATOM     19  O   UNL     1       9.159  -4.165  24.099  0.00  0.00    -0.386 OA
ATOM     20  H   UNL     1       9.510  -3.624  24.834  0.00  0.00    +0.210 HD
ENDBRANCH   3  19
BRANCH   4  21
ATOM     21  C   UNL     1       6.583  -3.287  26.137  0.00  0.00    +0.206 C 
BRANCH  21  22
ATOM     22  O   UNL     1       6.106  -4.622  26.015  0.00  0.00    -0.284 OA
BRANCH  22  23
ATOM     23  P   UNL     1       6.549  -5.511  27.431  0.00  0.00    +0.472 P 
ATOM     24  O   UNL     1       6.945  -6.307  28.698  0.00  0.00    -0.228 OA
BRANCH  23  25
ATOM     25  O   UNL     1       7.965  -5.832  26.683  0.00  0.00    -0.303 OA
ATOM     26  H   UNL     1       7.792  -6.540  26.031  0.00  0.00    +0.222 HD
ENDBRANCH  23  25
BRANCH  23  27
ATOM     27  O   UNL     1       5.657  -6.726  26.807  0.00  0.00    -0.303 OA
ATOM     28  H   UNL     1       6.033  -7.047  25.966  0.00  0.00    +0.222 HD
ENDBRANCH  23  27
ENDBRANCH  22  23
ENDBRANCH  21  22
ENDBRANCH   4  21
TORSDOF 9
ENDMDL
MODEL 7
REMARK VINA RESULT:      -6.2      2.558      3.837
REMARK  Name = 
REMARK  9 active torsions:
REMARK  status: ('A' for Active; 'I' for Inactive)
REMARK    1  A    between atoms: C_2  and  C_4
REMARK    2  A    between atoms: N_8  and  C_10
REMARK    3  A    between atoms: C_13  and  C_15
REMARK    4  A    between atoms: C_15  and  O_16
REMARK    5  A    between atoms: O_16  and  P_17
REMARK    6  A    between atoms: P_17  and  O_18
REMARK    7  A    between atoms: P_17  and  O_19
REMARK    8  A    between atoms: C_21  and  O_23
REMARK    9  A    between atoms: C_24  and  O_26
REMARK                            x       y       z     vdW  Elec       q    Type
REMARK                         _______ _______ _______ _____ _____    ______ ____
ROOT
ATOM      1  C   UNL     1       5.552  -2.919  23.127  0.00  0.00    +0.439 C 
ATOM      2  C   UNL     1       6.333  -4.032  22.428  0.00  0.00    +0.244 C 
ATOM      3  C   UNL     1       6.502  -5.135  23.480  0.00  0.00    +0.183 C 
ATOM      4  C   UNL     1       5.894  -4.539  24.744  0.00  0.00    +0.183 C 
ATOM      5  O   UNL     1       4.985  -3.512  24.299  0.00  0.00    -0.309 OA
ENDROOT
BRANCH   1   8
ATOM      6  C   UNL     1       8.448  -0.509  23.331  0.00  0.00    +0.100 A 
ATOM      7  C   UNL     1       7.593  -1.532  22.925  0.00  0.00    +0.324 A 
ATOM      8  N   UNL     1       6.361  -1.705  23.475  0.00  0.00    -0.173 N 
ATOM      9  C   UNL     1       5.951  -0.877  24.469  0.00  0.00    +0.311 A 
ATOM     10  C   UNL     1       6.767   0.166  24.902  0.00  0.00    +0.071 A 
ATOM     11  C   UNL     1       8.027   0.353  24.338  0.00  0.00    +0.025 A 
BRANCH   6  15
ATOM     12  N   UNL     1       9.904  -0.989  21.416  0.00  0.00    -0.325 N 
ATOM     13  H   UNL     1       9.192  -1.453  20.871  0.00  0.00    +0.145 HD
ATOM     14  H   UNL     1      10.830  -0.939  21.003  0.00  0.00    +0.145 HD
ATOM     15  C   UNL     1       9.766  -0.469  22.665  0.00  0.00    +0.247 C 
ATOM     16  O   UNL     1      10.722   0.044  23.248  0.00  0.00    -0.270 OA
ENDBRANCH   6  15
ENDBRANCH   1   8
BRANCH   2  17
ATOM     17  O   UNL     1       5.584  -4.507  21.291  0.00  0.00    -0.380 OA
ATOM     18  H   UNL     1       4.841  -5.076  21.577  0.00  0.00    +0.210 HD
ENDBRANCH   2  17
BRANCH   3  19
ATOM     19  O   UNL     1       7.887  -5.395  23.658  0.00  0.00    -0.386 OA
ATOM     20  H   UNL     1       8.357  -4.539  23.704  0.00  0.00    +0.210 HD
ENDBRANCH   3  19
BRANCH   4  21
ATOM     21  C   UNL     1       5.086  -5.504  25.582  0.00  0.00    +0.206 C 
BRANCH  21  22
ATOM     22  O   UNL     1       5.871  -6.433  26.322  0.00  0.00    -0.284 OA
BRANCH  22  23
ATOM     23  P   UNL     1       5.973  -5.903  27.965  0.00  0.00    +0.472 P 
ATOM     24  O   UNL     1       6.063  -5.429  29.437  0.00  0.00    -0.228 OA
BRANCH  23  25
ATOM     25  O   UNL     1       7.590  -6.090  27.837  0.00  0.00    -0.303 OA
ATOM     26  H   UNL     1       7.751  -7.013  27.556  0.00  0.00    +0.222 HD
ENDBRANCH  23  25
BRANCH  23  27
ATOM     27  O   UNL     1       5.576  -7.434  28.363  0.00  0.00    -0.303 OA
ATOM     28  H   UNL     1       6.332  -8.038  28.247  0.00  0.00    +0.222 HD
ENDBRANCH  23  27
ENDBRANCH  22  23
ENDBRANCH  21  22
ENDBRANCH   4  21
TORSDOF 9
ENDMDL
MODEL 8
REMARK VINA RESULT:      -6.2      3.539      7.090
REMARK  Name = 
REMARK  9 active torsions:
REMARK  status: ('A' for Active; 'I' for Inactive)
REMARK    1  A    between atoms: C_2  and  C_4
REMARK    2  A    between atoms: N_8  and  C_10
REMARK    3  A    between atoms: C_13  and  C_15
REMARK    4  A    between atoms: C_15  and  O_16
REMARK    5  A    between atoms: O_16  and  P_17
REMARK    6  A    between atoms: P_17  and  O_18
REMARK    7  A    between atoms: P_17  and  O_19
REMARK    8  A    between atoms: C_21  and  O_23
REMARK    9  A    between atoms: C_24  and  O_26
REMARK                            x       y       z     vdW  Elec       q    Type
REMARK                         _______ _______ _______ _____ _____    ______ ____
ROOT
ATOM      1  C   UNL     1       8.473  -4.573  26.380  0.00  0.00    +0.439 C 
ATOM      2  C   UNL     1       9.035  -4.778  24.973  0.00  0.00    +0.244 C 
ATOM      3  C   UNL     1       9.005  -3.392  24.316  0.00  0.00    +0.183 C 
ATOM      4  C   UNL     1       8.332  -2.502  25.355  0.00  0.00    +0.183 C 
ATOM      5  O   UNL     1       8.520  -3.164  26.622  0.00  0.00    -0.309 OA
ENDROOT
BRANCH   1   8
ATOM      6  C   UNL     1       5.135  -6.185  25.671  0.00  0.00    +0.100 A 
ATOM      7  C   UNL     1       6.473  -5.802  25.591  0.00  0.00    +0.324 A 
ATOM      8  N   UNL     1       7.086  -5.109  26.588  0.00  0.00    -0.173 N 
ATOM      9  C   UNL     1       6.377  -4.750  27.687  0.00  0.00    +0.311 A 
ATOM     10  C   UNL     1       5.039  -5.118  27.816  0.00  0.00    +0.071 A 
ATOM     11  C   UNL     1       4.407  -5.835  26.803  0.00  0.00    +0.025 A 
BRANCH   6  15
ATOM     12  N   UNL     1       5.044  -6.582  23.252  0.00  0.00    -0.325 N 
ATOM     13  H   UNL     1       5.701  -5.855  23.013  0.00  0.00    +0.145 HD
ATOM     14  H   UNL     1       4.643  -7.104  22.479  0.00  0.00    +0.145 HD
ATOM     15  C   UNL     1       4.600  -6.904  24.497  0.00  0.00    +0.247 C 
ATOM     16  O   UNL     1       3.764  -7.793  24.662  0.00  0.00    -0.270 OA
ENDBRANCH   6  15
ENDBRANCH   1   8
BRANCH   2  17
ATOM     17  O   UNL     1      10.383  -5.283  25.061  0.00  0.00    -0.380 OA
ATOM     18  H   UNL     1      10.383  -6.254  25.185  0.00  0.00    +0.210 HD
ENDBRANCH   2  17
BRANCH   3  19
ATOM     19  O   UNL     1       8.228  -3.461  23.129  0.00  0.00    -0.386 OA
ATOM     20  H   UNL     1       8.829  -3.370  22.362  0.00  0.00    +0.210 HD
ENDBRANCH   3  19
BRANCH   4  21
ATOM     21  C   UNL     1       8.924  -1.118  25.493  0.00  0.00    +0.206 C 
BRANCH  21  22
ATOM     22  O   UNL     1       8.532  -0.212  24.468  0.00  0.00    -0.284 OA
BRANCH  22  23
ATOM     23  P   UNL     1       9.811   0.920  24.194  0.00  0.00    +0.472 P 
ATOM     24  O   UNL     1      10.956   1.933  23.950  0.00  0.00    -0.228 OA
BRANCH  23  25
ATOM     25  O   UNL     1      10.506  -0.222  23.255  0.00  0.00    -0.303 OA
ATOM     26  H   UNL     1      10.109  -0.142  22.365  0.00  0.00    +0.222 HD
ENDBRANCH  23  25
BRANCH  23  27
ATOM     27  O   UNL     1      10.392   0.438  25.641  0.00  0.00    -0.303 OA
ATOM     28  H   UNL     1      10.095   1.029  26.357  0.00  0.00    +0.222 HD
ENDBRANCH  23  27
ENDBRANCH  22  23
ENDBRANCH  21  22
ENDBRANCH   4  21
TORSDOF 9
ENDMDL
MODEL 9
REMARK VINA RESULT:      -6.2      4.136      7.267
REMARK  Name = 
REMARK  9 active torsions:
REMARK  status: ('A' for Active; 'I' for Inactive)
REMARK    1  A    between atoms: C_2  and  C_4
REMARK    2  A    between atoms: N_8  and  C_10
REMARK    3  A    between atoms: C_13  and  C_15
REMARK    4  A    between atoms: C_15  and  O_16
REMARK    5  A    between atoms: O_16  and  P_17
REMARK    6  A    between atoms: P_17  and  O_18
REMARK    7  A    between atoms: P_17  and  O_19
REMARK    8  A    between atoms: C_21  and  O_23
REMARK    9  A    between atoms: C_24  and  O_26
REMARK                            x       y       z     vdW  Elec       q    Type
REMARK                         _______ _______ _______ _____ _____    ______ ____
ROOT
ATOM      1  C   UNL     1       6.210  -1.598  23.495  0.00  0.00    +0.439 C 
ATOM      2  C   UNL     1       6.390  -0.978  24.882  0.00  0.00    +0.244 C 
ATOM      3  C   UNL     1       7.580  -0.020  24.748  0.00  0.00    +0.183 C 
ATOM      4  C   UNL     1       8.068  -0.229  23.319  0.00  0.00    +0.183 C 
ATOM      5  O   UNL     1       6.943  -0.765  22.593  0.00  0.00    -0.309 OA
ENDROOT
BRANCH   1   8
ATOM      6  C   UNL     1       8.033  -4.828  24.188  0.00  0.00    +0.100 A 
ATOM      7  C   UNL     1       7.473  -3.559  24.325  0.00  0.00    +0.324 A 
ATOM      8  N   UNL     1       6.647  -3.029  23.383  0.00  0.00    -0.173 N 
ATOM      9  C   UNL     1       6.374  -3.737  22.258  0.00  0.00    +0.311 A 
ATOM     10  C   UNL     1       6.904  -5.013  22.081  0.00  0.00    +0.071 A 
ATOM     11  C   UNL     1       7.743  -5.566  23.045  0.00  0.00    +0.025 A 
BRANCH   6  15
ATOM     12  N   UNL     1       8.411  -5.761  26.425  0.00  0.00    -0.325 N 
ATOM     13  H   UNL     1       7.432  -5.855  26.653  0.00  0.00    +0.145 HD
ATOM     14  H   UNL     1       9.073  -6.037  27.143  0.00  0.00    +0.145 HD
ATOM     15  C   UNL     1       8.936  -5.255  25.276  0.00  0.00    +0.247 C 
ATOM     16  O   UNL     1      10.154  -5.156  25.125  0.00  0.00    -0.270 OA
ENDBRANCH   6  15
ENDBRANCH   1   8
BRANCH   2  17
ATOM     17  O   UNL     1       5.190  -0.271  25.253  0.00  0.00    -0.380 OA
ATOM     18  H   UNL     1       5.067   0.523  24.694  0.00  0.00    +0.210 HD
ENDBRANCH   2  17
BRANCH   3  19
ATOM     19  O   UNL     1       8.580  -0.393  25.684  0.00  0.00    -0.386 OA
ATOM     20  H   UNL     1       9.362  -0.711  25.189  0.00  0.00    +0.210 HD
ENDBRANCH   3  19
BRANCH   4  21
ATOM     21  C   UNL     1       8.494   1.030  22.598  0.00  0.00    +0.206 C 
BRANCH  21  22
ATOM     22  O   UNL     1       8.487   2.198  23.411  0.00  0.00    -0.284 OA
BRANCH  22  23
ATOM     23  P   UNL     1      10.048   2.941  23.346  0.00  0.00    +0.472 P 
ATOM     24  O   UNL     1      11.445   3.606  23.288  0.00  0.00    -0.228 OA
BRANCH  23  25
ATOM     25  O   UNL     1      10.212   2.267  21.867  0.00  0.00    -0.303 OA
ATOM     26  H   UNL     1      10.793   1.487  21.970  0.00  0.00    +0.222 HD
ENDBRANCH  23  25
BRANCH  23  27
ATOM     27  O   UNL     1      10.558   1.683  24.250  0.00  0.00    -0.303 OA
ATOM     28  H   UNL     1      11.261   1.183  23.798  0.00  0.00    +0.222 HD
ENDBRANCH  23  27
ENDBRANCH  22  23
ENDBRANCH  21  22
ENDBRANCH   4  21
TORSDOF 9
ENDMDL
