MODEL 1
REMARK VINA RESULT:      71.1      0.000      0.000
REMARK  Name = 
REMARK  22 active torsions:
REMARK  status: ('A' for Active; 'I' for Inactive)
REMARK    1  A    between atoms: C_1  and  C_2
REMARK    2  A    between atoms: C_2  and  C_3
REMARK    3  A    between atoms: C_4  and  C_5
REMARK    4  A    between atoms: C_6  and  C_7
REMARK    5  A    between atoms: C_6  and  C_8
REMARK    6  A    between atoms: C_9  and  C_10
REMARK    7  A    between atoms: C_11  and  C_12
REMARK    8  A    between atoms: C_14  and  O_15
REMARK    9  A    between atoms: C_17  and  C_18
REMARK   10  A    between atoms: C_17  and  C_19
REMARK   11  A    between atoms: C_20  and  C_21
REMARK   12  A    between atoms: C_22  and  C_23
REMARK   13  A    between atoms: C_24  and  C_25
REMARK   14  A    between atoms: C_24  and  C_26
REMARK   15  A    between atoms: C_27  and  C_28
REMARK   16  A    between atoms: C_29  and  C_30
REMARK   17  A    between atoms: C_29  and  C_31
REMARK   18  A    between atoms: C_32  and  C_33
REMARK   19  A    between atoms: C_34  and  C_35
REMARK   20  A    between atoms: C_37  and  O_38
REMARK   21  A    between atoms: C_40  and  C_41
REMARK   22  A    between atoms: C_40  and  C_42
REMARK                            x       y       z     vdW  Elec       q    Type
REMARK                         _______ _______ _______ _____ _____    ______ ____
ROOT
ATOM      1  C   UNL     1       9.686   1.454  23.602  0.00  0.00    +0.000 C 
ATOM      2  C   UNL     1       9.597   1.505  22.267  0.00  0.00    +0.000 C 
ENDROOT
BRANCH   1   5
ATOM      3  C   UNL     1       9.484  -1.460  23.352  0.00  0.00    +0.044 C 
ATOM      4  C   UNL     1       8.657  -0.681  24.355  0.00  0.00    -0.050 C 
ATOM      5  C   UNL     1       8.792   0.659  24.432  0.00  0.00    +0.003 C 
BRANCH   4   6
ATOM      6  C   UNL     1       7.694  -1.372  25.229  0.00  0.00    +0.003 C 
ATOM      7  C   UNL     1       6.562  -1.954  24.804  0.00  0.00    +0.001 C 
BRANCH   7   8
ATOM      8  C   UNL     1       5.551  -2.627  25.596  0.00  0.00    +0.003 C 
ATOM      9  C   UNL     1       4.442  -2.020  26.083  0.00  0.00    -0.051 C 
ATOM     10  C   UNL     1       4.080  -0.567  25.840  0.00  0.00    +0.044 C 
BRANCH   9  11
ATOM     11  C   UNL     1       3.464  -2.791  26.860  0.00  0.00    -0.000 C 
ATOM     12  C   UNL     1       3.245  -4.112  26.721  0.00  0.00    -0.018 C 
BRANCH  12  13
ATOM     13  C   UNL     1       2.354  -4.953  27.612  0.00  0.00    +0.043 C 
ATOM     14  C   UNL     1       3.198  -5.843  28.625  0.00  0.00    -0.022 C 
ATOM     15  C   UNL     1       4.738  -5.671  28.467  0.00  0.00    +0.012 C 
ATOM     16  C   UNL     1       2.871  -5.330  30.053  0.00  0.00    +0.012 C 
ATOM     17  C   UNL     1       2.933  -7.382  28.601  0.00  0.00    +0.042 C 
ATOM     18  C   UNL     1       1.846  -7.949  27.694  0.00  0.00    +0.138 C 
ATOM     19  C   UNL     1       1.116  -6.998  26.829  0.00  0.00    +0.003 C 
ATOM     20  C   UNL     1       1.319  -5.676  26.774  0.00  0.00    -0.067 C 
ATOM     21  C   UNL     1       0.443  -4.849  25.863  0.00  0.00    +0.039 C 
BRANCH  18  22
ATOM     22  O   UNL     1       0.873  -8.614  28.496  0.00  0.00    -0.388 OA
ATOM     23  H   UNL     1       0.844  -8.147  29.348  0.00  0.00    +0.210 HD
ENDBRANCH  18  22
ENDBRANCH  12  13
ENDBRANCH   9  11
ENDBRANCH   7   8
ENDBRANCH   4   6
ENDBRANCH   1   5
BRANCH   2  24
ATOM     24  C   UNL     1      10.495   2.283  21.430  0.00  0.00    +0.003 C 
ATOM     25  C   UNL     1      11.294   3.290  21.843  0.00  0.00    -0.050 C 
ATOM     26  C   UNL     1      11.361   3.760  23.282  0.00  0.00    +0.044 C 
BRANCH  25  27
ATOM     27  C   UNL     1      12.160   3.993  20.875  0.00  0.00    +0.003 C 
ATOM     28  C   UNL     1      12.093   3.797  19.548  0.00  0.00    +0.001 C 
BRANCH  28  29
ATOM     29  C   UNL     1      12.890   4.432  18.519  0.00  0.00    +0.003 C 
ATOM     30  C   UNL     1      12.961   4.019  17.230  0.00  0.00    -0.050 C 
ATOM     31  C   UNL     1      12.216   2.821  16.673  0.00  0.00    +0.044 C 
BRANCH  30  32
ATOM     32  C   UNL     1      13.814   4.743  16.275  0.00  0.00    +0.003 C 
ATOM     33  C   UNL     1      14.606   4.165  15.353  0.00  0.00    +0.004 C 
BRANCH  33  34
ATOM     34  C   UNL     1      15.487   4.865  14.415  0.00  0.00    -0.043 C 
ATOM     35  C   UNL     1      15.175   6.358  14.200  0.00  0.00    -0.008 C 
ATOM     36  C   UNL     1      13.701   6.557  13.750  0.00  0.00    +0.016 C 
ATOM     37  C   UNL     1      15.355   7.103  15.548  0.00  0.00    +0.016 C 
ATOM     38  C   UNL     1      16.051   7.087  13.138  0.00  0.00    +0.042 C 
ATOM     39  C   UNL     1      17.212   6.346  12.488  0.00  0.00    +0.119 C 
ATOM     40  C   UNL     1      17.372   4.854  12.751  0.00  0.00    +0.062 C 
ATOM     41  C   UNL     1      16.459   4.203  13.751  0.00  0.00    -0.067 C 
ATOM     42  C   UNL     1      16.740   2.717  13.876  0.00  0.00    +0.039 C 
BRANCH  39  43
ATOM     43  O   UNL     1      18.431   7.021  12.822  0.00  0.00    -0.391 OA
ATOM     44  H   UNL     1      19.126   6.351  12.868  0.00  0.00    +0.210 HD
ENDBRANCH  39  43
ENDBRANCH  33  34
ENDBRANCH  30  32
ENDBRANCH  28  29
ENDBRANCH  25  27
ENDBRANCH   2  24
TORSDOF 12
ENDMDL
MODEL 2
REMARK VINA RESULT:      73.7      3.418      4.782
REMARK  Name = 
REMARK  22 active torsions:
REMARK  status: ('A' for Active; 'I' for Inactive)
REMARK    1  A    between atoms: C_1  and  C_2
REMARK    2  A    between atoms: C_2  and  C_3
REMARK    3  A    between atoms: C_4  and  C_5
REMARK    4  A    between atoms: C_6  and  C_7
REMARK    5  A    between atoms: C_6  and  C_8
REMARK    6  A    between atoms: C_9  and  C_10
REMARK    7  A    between atoms: C_11  and  C_12
REMARK    8  A    between atoms: C_14  and  O_15
REMARK    9  A    between atoms: C_17  and  C_18
REMARK   10  A    between atoms: C_17  and  C_19
REMARK   11  A    between atoms: C_20  and  C_21
REMARK   12  A    between atoms: C_22  and  C_23
REMARK   13  A    between atoms: C_24  and  C_25
REMARK   14  A    between atoms: C_24  and  C_26
REMARK   15  A    between atoms: C_27  and  C_28
REMARK   16  A    between atoms: C_29  and  C_30
REMARK   17  A    between atoms: C_29  and  C_31
REMARK   18  A    between atoms: C_32  and  C_33
REMARK   19  A    between atoms: C_34  and  C_35
REMARK   20  A    between atoms: C_37  and  O_38
REMARK   21  A    between atoms: C_40  and  C_41
REMARK   22  A    between atoms: C_40  and  C_42
REMARK                            x       y       z     vdW  Elec       q    Type
REMARK                         _______ _______ _______ _____ _____    ______ ____
ROOT
ATOM      1  C   UNL     1       8.652   0.425  25.092  0.00  0.00    +0.000 C 
ATOM      2  C   UNL     1       8.636   1.656  24.567  0.00  0.00    +0.000 C 
ENDROOT
BRANCH   1   5
ATOM      3  C   UNL     1       7.157   1.107  27.520  0.00  0.00    +0.044 C 
ATOM      4  C   UNL     1       6.727  -0.019  26.601  0.00  0.00    -0.050 C 
ATOM      5  C   UNL     1       7.448  -0.288  25.493  0.00  0.00    +0.003 C 
BRANCH   4   6
ATOM      6  C   UNL     1       5.541  -0.833  26.920  0.00  0.00    +0.003 C 
ATOM      7  C   UNL     1       5.547  -2.167  27.053  0.00  0.00    +0.001 C 
BRANCH   7   8
ATOM      8  C   UNL     1       4.427  -3.043  27.335  0.00  0.00    +0.003 C 
ATOM      9  C   UNL     1       3.971  -3.990  26.481  0.00  0.00    -0.051 C 
ATOM     10  C   UNL     1       4.588  -4.297  25.129  0.00  0.00    +0.044 C 
BRANCH   9  11
ATOM     11  C   UNL     1       2.840  -4.843  26.864  0.00  0.00    -0.000 C 
ATOM     12  C   UNL     1       2.950  -6.009  27.528  0.00  0.00    -0.018 C 
BRANCH  12  13
ATOM     13  C   UNL     1       1.792  -6.826  28.066  0.00  0.00    +0.043 C 
ATOM     14  C   UNL     1       1.958  -7.143  29.616  0.00  0.00    -0.022 C 
ATOM     15  C   UNL     1       3.269  -6.566  30.230  0.00  0.00    +0.012 C 
ATOM     16  C   UNL     1       0.803  -6.410  30.350  0.00  0.00    +0.012 C 
ATOM     17  C   UNL     1       1.912  -8.645  30.039  0.00  0.00    +0.042 C 
ATOM     18  C   UNL     1       1.632  -9.718  28.991  0.00  0.00    +0.138 C 
ATOM     19  C   UNL     1       1.464  -9.275  27.591  0.00  0.00    +0.003 C 
ATOM     20  C   UNL     1       1.529  -8.010  27.156  0.00  0.00    -0.067 C 
ATOM     21  C   UNL     1       1.284  -7.736  25.692  0.00  0.00    +0.039 C 
BRANCH  18  22
ATOM     22  O   UNL     1       0.444 -10.420  29.351  0.00  0.00    -0.388 OA
ATOM     23  H   UNL     1      -0.203  -9.751  29.633  0.00  0.00    +0.210 HD
ENDBRANCH  18  22
ENDBRANCH  12  13
ENDBRANCH   9  11
ENDBRANCH   7   8
ENDBRANCH   4   6
ENDBRANCH   1   5
BRANCH   2  24
ATOM     24  C   UNL     1       9.832   2.368  24.149  0.00  0.00    +0.003 C 
ATOM     25  C   UNL     1      11.105   2.029  24.448  0.00  0.00    -0.050 C 
ATOM     26  C   UNL     1      11.466   0.821  25.289  0.00  0.00    +0.044 C 
BRANCH  25  27
ATOM     27  C   UNL     1      12.227   2.850  23.950  0.00  0.00    +0.003 C 
ATOM     28  C   UNL     1      12.555   2.939  22.651  0.00  0.00    +0.001 C 
BRANCH  28  29
ATOM     29  C   UNL     1      13.630   3.711  22.061  0.00  0.00    +0.003 C 
ATOM     30  C   UNL     1      14.077   4.901  22.532  0.00  0.00    -0.050 C 
ATOM     31  C   UNL     1      13.512   5.606  23.750  0.00  0.00    +0.044 C 
BRANCH  30  32
ATOM     32  C   UNL     1      15.173   5.596  21.841  0.00  0.00    +0.003 C 
ATOM     33  C   UNL     1      16.331   5.028  21.457  0.00  0.00    +0.004 C 
BRANCH  33  34
ATOM     34  C   UNL     1      17.447   5.708  20.797  0.00  0.00    -0.043 C 
ATOM     35  C   UNL     1      18.779   5.700  21.569  0.00  0.00    -0.008 C 
ATOM     36  C   UNL     1      18.598   6.300  22.992  0.00  0.00    +0.016 C 
ATOM     37  C   UNL     1      19.250   4.233  21.738  0.00  0.00    +0.016 C 
ATOM     38  C   UNL     1      19.947   6.497  20.913  0.00  0.00    +0.042 C 
ATOM     39  C   UNL     1      19.755   7.107  19.531  0.00  0.00    +0.119 C 
ATOM     40  C   UNL     1      18.366   7.086  18.905  0.00  0.00    +0.062 C 
ATOM     41  C   UNL     1      17.272   6.342  19.617  0.00  0.00    -0.067 C 
ATOM     42  C   UNL     1      15.955   6.440  18.870  0.00  0.00    +0.039 C 
BRANCH  39  43
ATOM     43  O   UNL     1      20.691   6.505  18.630  0.00  0.00    -0.391 OA
ATOM     44  H   UNL     1      21.047   7.209  18.074  0.00  0.00    +0.210 HD
ENDBRANCH  39  43
ENDBRANCH  33  34
ENDBRANCH  30  32
ENDBRANCH  28  29
ENDBRANCH  25  27
ENDBRANCH   2  24
TORSDOF 12
ENDMDL
