MODEL 1
REMARK VINA RESULT:      -5.4      0.000      0.000
REMARK  Name = 
REMARK  6 active torsions:
REMARK  status: ('A' for Active; 'I' for Inactive)
REMARK    1  A    between atoms: C_1  and  C_2
REMARK    2  A    between atoms: C_2  and  N_4
REMARK    3  A    between atoms: C_2  and  C_5
REMARK    4  A    between atoms: C_5  and  O_7
REMARK    5  A    between atoms: C_5  and  C_8
REMARK    6  A    between atoms: C_10  and  O_11
REMARK                            x       y       z     vdW  Elec       q    Type
REMARK                         _______ _______ _______ _____ _____    ______ ____
ROOT
ATOM      1  C   UNL     1       9.936   2.596  23.093  0.00  0.00    +0.161 C 
ENDROOT
BRANCH   1   2
ATOM      2  C   UNL     1      10.722   3.857  23.394  0.00  0.00    -0.014 A 
ATOM      3  C   UNL     1      10.073   4.959  23.975  0.00  0.00    +0.006 A 
ATOM      4  C   UNL     1      10.784   6.120  24.289  0.00  0.00    +0.004 A 
ATOM      5  C   UNL     1      12.152   6.190  24.034  0.00  0.00    +0.045 A 
ATOM      6  C   UNL     1      12.801   5.103  23.464  0.00  0.00    +0.117 A 
ATOM      7  C   UNL     1      12.101   3.943  23.140  0.00  0.00    +0.051 A 
BRANCH   6   8
ATOM      8  O   UNL     1      14.142   5.205  23.242  0.00  0.00    -0.507 OA
ATOM      9  H   UNL     1      14.611   4.931  24.047  0.00  0.00    +0.292 HD
ENDBRANCH   6   8
ENDBRANCH   1   2
BRANCH   1  11
ATOM     10  C   UNL     1      10.344   0.050  23.235  0.00  0.00    +0.026 C 
ATOM     11  C   UNL     1      10.332   1.384  23.990  0.00  0.00    +0.081 C 
BRANCH  11  12
ATOM     12  N   UNL     1       9.385   1.275  25.120  0.00  0.00    -0.325 NA
ATOM     13  H   UNL     1       8.505   0.910  24.739  0.00  0.00    +0.119 HD
ATOM     14  H   UNL     1       9.714   0.573  25.780  0.00  0.00    +0.119 HD
ENDBRANCH  11  12
ENDBRANCH   1  11
BRANCH   1  15
ATOM     15  O   UNL     1      10.071   2.242  21.707  0.00  0.00    -0.386 OA
ATOM     16  H   UNL     1      10.519   2.997  21.285  0.00  0.00    +0.210 HD
ENDBRANCH   1  15
TORSDOF 5
ENDMDL
MODEL 2
REMARK VINA RESULT:      -4.9      3.527      5.098
REMARK  Name = 
REMARK  6 active torsions:
REMARK  status: ('A' for Active; 'I' for Inactive)
REMARK    1  A    between atoms: C_1  and  C_2
REMARK    2  A    between atoms: C_2  and  N_4
REMARK    3  A    between atoms: C_2  and  C_5
REMARK    4  A    between atoms: C_5  and  O_7
REMARK    5  A    between atoms: C_5  and  C_8
REMARK    6  A    between atoms: C_10  and  O_11
REMARK                            x       y       z     vdW  Elec       q    Type
REMARK                         _______ _______ _______ _____ _____    ______ ____
ROOT
ATOM      1  C   UNL     1       9.380  -2.326  22.883  0.00  0.00    +0.161 C 
ENDROOT
BRANCH   1   2
ATOM      2  C   UNL     1       9.742  -0.879  23.152  0.00  0.00    -0.014 A 
ATOM      3  C   UNL     1      10.186  -0.498  24.428  0.00  0.00    +0.006 A 
ATOM      4  C   UNL     1      10.555   0.824  24.689  0.00  0.00    +0.004 A 
ATOM      5  C   UNL     1      10.491   1.779  23.676  0.00  0.00    +0.045 A 
ATOM      6  C   UNL     1      10.058   1.407  22.410  0.00  0.00    +0.117 A 
ATOM      7  C   UNL     1       9.681   0.094  22.140  0.00  0.00    +0.051 A 
BRANCH   6   8
ATOM      8  O   UNL     1      10.022   2.367  21.442  0.00  0.00    -0.507 OA
ATOM      9  H   UNL     1      10.352   1.982  20.613  0.00  0.00    +0.292 HD
ENDBRANCH   6   8
ENDBRANCH   1   2
BRANCH   1  11
ATOM     10  C   UNL     1       6.963  -1.926  23.702  0.00  0.00    +0.026 C 
ATOM     11  C   UNL     1       7.859  -2.552  22.627  0.00  0.00    +0.081 C 
BRANCH  11  12
ATOM     12  N   UNL     1       7.577  -4.003  22.568  0.00  0.00    -0.325 NA
ATOM     13  H   UNL     1       8.047  -4.432  23.372  0.00  0.00    +0.119 HD
ATOM     14  H   UNL     1       6.581  -4.167  22.708  0.00  0.00    +0.119 HD
ENDBRANCH  11  12
ENDBRANCH   1  11
BRANCH   1  15
ATOM     15  O   UNL     1       9.822  -3.162  23.965  0.00  0.00    -0.386 OA
ATOM     16  H   UNL     1       9.713  -4.077  23.652  0.00  0.00    +0.210 HD
ENDBRANCH   1  15
TORSDOF 5
ENDMDL
MODEL 3
REMARK VINA RESULT:      -4.8      6.654      8.138
REMARK  Name = 
REMARK  6 active torsions:
REMARK  status: ('A' for Active; 'I' for Inactive)
REMARK    1  A    between atoms: C_1  and  C_2
REMARK    2  A    between atoms: C_2  and  N_4
REMARK    3  A    between atoms: C_2  and  C_5
REMARK    4  A    between atoms: C_5  and  O_7
REMARK    5  A    between atoms: C_5  and  C_8
REMARK    6  A    between atoms: C_10  and  O_11
REMARK                            x       y       z     vdW  Elec       q    Type
REMARK                         _______ _______ _______ _____ _____    ______ ____
ROOT
ATOM      1  C   UNL     1       6.037  -3.920  22.889  0.00  0.00    +0.161 C 
ENDROOT
BRANCH   1   2
ATOM      2  C   UNL     1       7.409  -3.303  23.072  0.00  0.00    -0.014 A 
ATOM      3  C   UNL     1       8.192  -3.663  24.181  0.00  0.00    +0.006 A 
ATOM      4  C   UNL     1       9.472  -3.130  24.353  0.00  0.00    +0.004 A 
ATOM      5  C   UNL     1       9.987  -2.237  23.415  0.00  0.00    +0.045 A 
ATOM      6  C   UNL     1       9.220  -1.880  22.314  0.00  0.00    +0.117 A 
ATOM      7  C   UNL     1       7.940  -2.399  22.136  0.00  0.00    +0.051 A 
BRANCH   6   8
ATOM      8  O   UNL     1       9.763  -1.014  21.413  0.00  0.00    -0.507 OA
ATOM      9  H   UNL     1      10.394  -1.500  20.857  0.00  0.00    +0.292 HD
ENDBRANCH   6   8
ENDBRANCH   1   2
BRANCH   1  11
ATOM     10  C   UNL     1       6.973  -5.865  21.471  0.00  0.00    +0.026 C 
ATOM     11  C   UNL     1       6.072  -5.459  22.642  0.00  0.00    +0.081 C 
BRANCH  11  12
ATOM     12  N   UNL     1       4.702  -5.948  22.372  0.00  0.00    -0.325 NA
ATOM     13  H   UNL     1       4.222  -5.213  21.842  0.00  0.00    +0.119 HD
ATOM     14  H   UNL     1       4.741  -6.757  21.753  0.00  0.00    +0.119 HD
ENDBRANCH  11  12
ENDBRANCH   1  11
BRANCH   1  15
ATOM     15  O   UNL     1       5.335  -3.270  21.818  0.00  0.00    -0.386 OA
ATOM     16  H   UNL     1       4.547  -2.869  22.226  0.00  0.00    +0.210 HD
ENDBRANCH   1  15
TORSDOF 5
ENDMDL
MODEL 4
REMARK VINA RESULT:      -4.7      2.694      5.351
REMARK  Name = 
REMARK  6 active torsions:
REMARK  status: ('A' for Active; 'I' for Inactive)
REMARK    1  A    between atoms: C_1  and  C_2
REMARK    2  A    between atoms: C_2  and  N_4
REMARK    3  A    between atoms: C_2  and  C_5
REMARK    4  A    between atoms: C_5  and  O_7
REMARK    5  A    between atoms: C_5  and  C_8
REMARK    6  A    between atoms: C_10  and  O_11
REMARK                            x       y       z     vdW  Elec       q    Type
REMARK                         _______ _______ _______ _____ _____    ______ ____
ROOT
ATOM      1  C   UNL     1      10.343   2.074  22.555  0.00  0.00    +0.161 C 
ENDROOT
BRANCH   1   2
ATOM      2  C   UNL     1      10.020   0.786  23.287  0.00  0.00    -0.014 A 
ATOM      3  C   UNL     1      10.024  -0.432  22.587  0.00  0.00    +0.006 A 
ATOM      4  C   UNL     1       9.760  -1.634  23.248  0.00  0.00    +0.004 A 
ATOM      5  C   UNL     1       9.496  -1.634  24.617  0.00  0.00    +0.045 A 
ATOM      6  C   UNL     1       9.495  -0.434  25.315  0.00  0.00    +0.117 A 
ATOM      7  C   UNL     1       9.750   0.771  24.666  0.00  0.00    +0.051 A 
BRANCH   6   8
ATOM      8  O   UNL     1       9.245  -0.476  26.655  0.00  0.00    -0.507 OA
ATOM      9  H   UNL     1       8.654  -1.225  26.835  0.00  0.00    +0.292 HD
ENDBRANCH   6   8
ENDBRANCH   1   2
BRANCH   1  11
ATOM     10  C   UNL     1       9.153   4.142  23.543  0.00  0.00    +0.026 C 
ATOM     11  C   UNL     1      10.443   3.316  23.492  0.00  0.00    +0.081 C 
BRANCH  11  12
ATOM     12  N   UNL     1      11.543   4.193  23.035  0.00  0.00    -0.325 NA
ATOM     13  H   UNL     1      12.187   4.301  23.826  0.00  0.00    +0.119 HD
ATOM     14  H   UNL     1      12.076   3.726  22.304  0.00  0.00    +0.119 HD
ENDBRANCH  11  12
ENDBRANCH   1  11
BRANCH   1  15
ATOM     15  O   UNL     1       9.375   2.318  21.522  0.00  0.00    -0.386 OA
ATOM     16  H   UNL     1       9.265   1.469  21.059  0.00  0.00    +0.210 HD
ENDBRANCH   1  15
TORSDOF 5
ENDMDL
MODEL 5
REMARK VINA RESULT:      -4.7      4.228      6.341
REMARK  Name = 
REMARK  6 active torsions:
REMARK  status: ('A' for Active; 'I' for Inactive)
REMARK    1  A    between atoms: C_1  and  C_2
REMARK    2  A    between atoms: C_2  and  N_4
REMARK    3  A    between atoms: C_2  and  C_5
REMARK    4  A    between atoms: C_5  and  O_7
REMARK    5  A    between atoms: C_5  and  C_8
REMARK    6  A    between atoms: C_10  and  O_11
REMARK                            x       y       z     vdW  Elec       q    Type
REMARK                         _______ _______ _______ _____ _____    ______ ____
ROOT
ATOM      1  C   UNL     1      10.014  -0.008  22.262  0.00  0.00    +0.161 C 
ENDROOT
BRANCH   1   2
ATOM      2  C   UNL     1       9.595  -0.879  23.429  0.00  0.00    -0.014 A 
ATOM      3  C   UNL     1       8.939  -0.303  24.529  0.00  0.00    +0.006 A 
ATOM      4  C   UNL     1       8.517  -1.092  25.600  0.00  0.00    +0.004 A 
ATOM      5  C   UNL     1       8.738  -2.468  25.583  0.00  0.00    +0.045 A 
ATOM      6  C   UNL     1       9.382  -3.046  24.497  0.00  0.00    +0.117 A 
ATOM      7  C   UNL     1       9.814  -2.268  23.426  0.00  0.00    +0.051 A 
BRANCH   6   8
ATOM      8  O   UNL     1       9.569  -4.396  24.511  0.00  0.00    -0.507 OA
ATOM      9  H   UNL     1       8.772  -4.815  24.875  0.00  0.00    +0.292 HD
ENDBRANCH   6   8
ENDBRANCH   1   2
BRANCH   1  11
ATOM     10  C   UNL     1       8.110   1.566  21.509  0.00  0.00    +0.026 C 
ATOM     11  C   UNL     1       9.412   1.429  22.307  0.00  0.00    +0.081 C 
BRANCH  11  12
ATOM     12  N   UNL     1      10.395   2.396  21.771  0.00  0.00    -0.325 NA
ATOM     13  H   UNL     1      10.001   2.771  20.902  0.00  0.00    +0.119 HD
ATOM     14  H   UNL     1      10.478   3.190  22.404  0.00  0.00    +0.119 HD
ENDBRANCH  11  12
ENDBRANCH   1  11
BRANCH   1  15
ATOM     15  O   UNL     1       9.675  -0.640  21.017  0.00  0.00    -0.386 OA
ATOM     16  H   UNL     1       9.751   0.055  20.340  0.00  0.00    +0.210 HD
ENDBRANCH   1  15
TORSDOF 5
ENDMDL
MODEL 6
REMARK VINA RESULT:      -4.7      9.361      9.684
REMARK  Name = 
REMARK  6 active torsions:
REMARK  status: ('A' for Active; 'I' for Inactive)
REMARK    1  A    between atoms: C_1  and  C_2
REMARK    2  A    between atoms: C_2  and  N_4
REMARK    3  A    between atoms: C_2  and  C_5
REMARK    4  A    between atoms: C_5  and  O_7
REMARK    5  A    between atoms: C_5  and  C_8
REMARK    6  A    between atoms: C_10  and  O_11
REMARK                            x       y       z     vdW  Elec       q    Type
REMARK                         _______ _______ _______ _____ _____    ______ ____
ROOT
ATOM      1  C   UNL     1       5.948  -4.430  23.266  0.00  0.00    +0.161 C 
ENDROOT
BRANCH   1   2
ATOM      2  C   UNL     1       6.935  -4.536  24.411  0.00  0.00    -0.014 A 
ATOM      3  C   UNL     1       6.497  -4.329  25.729  0.00  0.00    +0.006 A 
ATOM      4  C   UNL     1       7.383  -4.451  26.802  0.00  0.00    +0.004 A 
ATOM      5  C   UNL     1       8.715  -4.789  26.571  0.00  0.00    +0.045 A 
ATOM      6  C   UNL     1       9.154  -4.999  25.271  0.00  0.00    +0.117 A 
ATOM      7  C   UNL     1       8.282  -4.873  24.193  0.00  0.00    +0.051 A 
BRANCH   6   8
ATOM      8  O   UNL     1      10.461  -5.340  25.086  0.00  0.00    -0.507 OA
ATOM      9  H   UNL     1      10.516  -6.303  24.971  0.00  0.00    +0.292 HD
ENDBRANCH   6   8
ENDBRANCH   1   2
BRANCH   1  11
ATOM     10  C   UNL     1       6.243  -5.762  21.072  0.00  0.00    +0.026 C 
ATOM     11  C   UNL     1       5.718  -5.776  22.513  0.00  0.00    +0.081 C 
BRANCH  11  12
ATOM     12  N   UNL     1       4.272  -6.086  22.482  0.00  0.00    -0.325 NA
ATOM     13  H   UNL     1       3.909  -5.729  21.593  0.00  0.00    +0.119 HD
ATOM     14  H   UNL     1       4.136  -7.095  22.453  0.00  0.00    +0.119 HD
ENDBRANCH  11  12
ENDBRANCH   1  11
BRANCH   1  15
ATOM     15  O   UNL     1       6.365  -3.417  22.337  0.00  0.00    -0.386 OA
ATOM     16  H   UNL     1       6.125  -3.753  21.456  0.00  0.00    +0.210 HD
ENDBRANCH   1  15
TORSDOF 5
ENDMDL
MODEL 7
REMARK VINA RESULT:      -4.7      2.985      6.016
REMARK  Name = 
REMARK  6 active torsions:
REMARK  status: ('A' for Active; 'I' for Inactive)
REMARK    1  A    between atoms: C_1  and  C_2
REMARK    2  A    between atoms: C_2  and  N_4
REMARK    3  A    between atoms: C_2  and  C_5
REMARK    4  A    between atoms: C_5  and  O_7
REMARK    5  A    between atoms: C_5  and  C_8
REMARK    6  A    between atoms: C_10  and  O_11
REMARK                            x       y       z     vdW  Elec       q    Type
REMARK                         _______ _______ _______ _____ _____    ______ ____
ROOT
ATOM      1  C   UNL     1      10.069   1.577  22.323  0.00  0.00    +0.161 C 
ENDROOT
BRANCH   1   2
ATOM      2  C   UNL     1       9.454   0.257  22.743  0.00  0.00    -0.014 A 
ATOM      3  C   UNL     1      10.249  -0.711  23.379  0.00  0.00    +0.006 A 
ATOM      4  C   UNL     1       9.695  -1.921  23.802  0.00  0.00    +0.004 A 
ATOM      5  C   UNL     1       8.340  -2.177  23.601  0.00  0.00    +0.045 A 
ATOM      6  C   UNL     1       7.547  -1.223  22.977  0.00  0.00    +0.117 A 
ATOM      7  C   UNL     1       8.089  -0.015  22.545  0.00  0.00    +0.051 A 
BRANCH   6   8
ATOM      8  O   UNL     1       6.224  -1.504  22.810  0.00  0.00    -0.507 OA
ATOM      9  H   UNL     1       6.080  -2.443  23.013  0.00  0.00    +0.292 HD
ENDBRANCH   6   8
ENDBRANCH   1   2
BRANCH   1  11
ATOM     10  C   UNL     1       9.250   2.907  24.380  0.00  0.00    +0.026 C 
ATOM     11  C   UNL     1      10.452   2.497  23.522  0.00  0.00    +0.081 C 
BRANCH  11  12
ATOM     12  N   UNL     1      11.106   3.723  23.015  0.00  0.00    -0.325 NA
ATOM     13  H   UNL     1      10.404   4.470  23.044  0.00  0.00    +0.119 HD
ATOM     14  H   UNL     1      11.844   4.011  23.655  0.00  0.00    +0.119 HD
ENDBRANCH  11  12
ENDBRANCH   1  11
BRANCH   1  15
ATOM     15  O   UNL     1       9.187   2.279  21.431  0.00  0.00    -0.386 OA
ATOM     16  H   UNL     1       9.573   3.166  21.325  0.00  0.00    +0.210 HD
ENDBRANCH   1  15
TORSDOF 5
ENDMDL
MODEL 8
REMARK VINA RESULT:      -4.6      5.342      7.006
REMARK  Name = 
REMARK  6 active torsions:
REMARK  status: ('A' for Active; 'I' for Inactive)
REMARK    1  A    between atoms: C_1  and  C_2
REMARK    2  A    between atoms: C_2  and  N_4
REMARK    3  A    between atoms: C_2  and  C_5
REMARK    4  A    between atoms: C_5  and  O_7
REMARK    5  A    between atoms: C_5  and  C_8
REMARK    6  A    between atoms: C_10  and  O_11
REMARK                            x       y       z     vdW  Elec       q    Type
REMARK                         _______ _______ _______ _____ _____    ______ ____
ROOT
ATOM      1  C   UNL     1       7.942  -3.641  25.539  0.00  0.00    +0.161 C 
ENDROOT
BRANCH   1   2
ATOM      2  C   UNL     1       8.678  -2.501  24.864  0.00  0.00    -0.014 A 
ATOM      3  C   UNL     1       8.978  -1.337  25.591  0.00  0.00    +0.006 A 
ATOM      4  C   UNL     1       9.683  -0.288  24.998  0.00  0.00    +0.004 A 
ATOM      5  C   UNL     1      10.102  -0.390  23.673  0.00  0.00    +0.045 A 
ATOM      6  C   UNL     1       9.813  -1.539  22.949  0.00  0.00    +0.117 A 
ATOM      7  C   UNL     1       9.105  -2.589  23.527  0.00  0.00    +0.051 A 
BRANCH   6   8
ATOM      8  O   UNL     1      10.251  -1.607  21.660  0.00  0.00    -0.507 OA
ATOM      9  H   UNL     1       9.837  -2.375  21.233  0.00  0.00    +0.292 HD
ENDBRANCH   6   8
ENDBRANCH   1   2
BRANCH   1  11
ATOM     10  C   UNL     1       9.969  -5.236  25.676  0.00  0.00    +0.026 C 
ATOM     11  C   UNL     1       8.853  -4.522  26.447  0.00  0.00    +0.081 C 
BRANCH  11  12
ATOM     12  N   UNL     1       8.030  -5.541  27.133  0.00  0.00    -0.325 NA
ATOM     13  H   UNL     1       7.341  -5.877  26.452  0.00  0.00    +0.119 HD
ATOM     14  H   UNL     1       8.606  -6.348  27.368  0.00  0.00    +0.119 HD
ENDBRANCH  11  12
ENDBRANCH   1  11
BRANCH   1  15
ATOM     15  O   UNL     1       7.288  -4.463  24.559  0.00  0.00    -0.386 OA
ATOM     16  H   UNL     1       7.980  -5.048  24.203  0.00  0.00    +0.210 HD
ENDBRANCH   1  15
TORSDOF 5
ENDMDL
MODEL 9
REMARK VINA RESULT:      -4.6      4.338      7.690
REMARK  Name = 
REMARK  6 active torsions:
REMARK  status: ('A' for Active; 'I' for Inactive)
REMARK    1  A    between atoms: C_1  and  C_2
REMARK    2  A    between atoms: C_2  and  N_4
REMARK    3  A    between atoms: C_2  and  C_5
REMARK    4  A    between atoms: C_5  and  O_7
REMARK    5  A    between atoms: C_5  and  C_8
REMARK    6  A    between atoms: C_10  and  O_11
REMARK                            x       y       z     vdW  Elec       q    Type
REMARK                         _______ _______ _______ _____ _____    ______ ____
ROOT
ATOM      1  C   UNL     1      10.205  -1.513  22.840  0.00  0.00    +0.161 C 
ENDROOT
BRANCH   1   2
ATOM      2  C   UNL     1       9.329  -2.606  23.419  0.00  0.00    -0.014 A 
ATOM      3  C   UNL     1       8.066  -2.857  22.858  0.00  0.00    +0.006 A 
ATOM      4  C   UNL     1       7.256  -3.880  23.356  0.00  0.00    +0.004 A 
ATOM      5  C   UNL     1       7.700  -4.669  24.416  0.00  0.00    +0.045 A 
ATOM      6  C   UNL     1       8.950  -4.429  24.972  0.00  0.00    +0.117 A 
ATOM      7  C   UNL     1       9.763  -3.408  24.488  0.00  0.00    +0.051 A 
BRANCH   6   8
ATOM      8  O   UNL     1       9.355  -5.230  25.998  0.00  0.00    -0.507 OA
ATOM      9  H   UNL     1      10.148  -5.715  25.718  0.00  0.00    +0.292 HD
ENDBRANCH   6   8
ENDBRANCH   1   2
BRANCH   1  11
ATOM     10  C   UNL     1       9.946   0.981  22.222  0.00  0.00    +0.026 C 
ATOM     11  C   UNL     1       9.816  -0.082  23.319  0.00  0.00    +0.081 C 
BRANCH  11  12
ATOM     12  N   UNL     1      10.678   0.311  24.456  0.00  0.00    -0.325 NA
ATOM     13  H   UNL     1      10.321  -0.178  25.284  0.00  0.00    +0.119 HD
ATOM     14  H   UNL     1      11.622  -0.041  24.310  0.00  0.00    +0.119 HD
ENDBRANCH  11  12
ENDBRANCH   1  11
BRANCH   1  15
ATOM     15  O   UNL     1      10.190  -1.568  21.404  0.00  0.00    -0.386 OA
ATOM     16  H   UNL     1       9.330  -1.200  21.136  0.00  0.00    +0.210 HD
ENDBRANCH   1  15
TORSDOF 5
ENDMDL
