MODEL 1
REMARK VINA RESULT:      -5.1      0.000      0.000
REMARK  Name = 
REMARK  6 active torsions:
REMARK  status: ('A' for Active; 'I' for Inactive)
REMARK    1  A    between atoms: C_1  and  C_2
REMARK    2  A    between atoms: C_2  and  N_3
REMARK    3  A    between atoms: N_3  and  CA_4
REMARK    4  A    between atoms: CA_4  and  CB_6
REMARK    5  A    between atoms: CA_4  and  C_13
REMARK    6  A    between atoms: CB_6  and  CG_7
REMARK                            x       y       z     vdW  Elec       q    Type
REMARK                         _______ _______ _______ _____ _____    ______ ____
ROOT
ATOM      1  CA  UNL     1       8.799  -2.740  23.807  0.00  0.00    +0.121 C 
ENDROOT
BRANCH   1   2
ATOM      2  N   UNL     1       7.972  -3.187  22.664  0.00  0.00    -0.307 NA
ATOM      3  H   UNL     1       7.382  -2.400  22.377  0.00  0.00    +0.123 HD
BRANCH   2   5
ATOM      4  C   UNL     1       7.118  -5.325  21.862  0.00  0.00    +0.020 C 
ATOM      5  C   ACE A   0       7.095  -4.313  22.999  0.00  0.00    +0.078 C 
ENDBRANCH   2   5
ENDBRANCH   1   2
BRANCH   1   6
ATOM      6  C   UNL     1       9.117  -3.902  24.747  0.00  0.00    +0.242 C 
ATOM      7  O   UNL     1      10.151  -4.569  24.703  0.00  0.00    -0.299 OA
ENDBRANCH   1   6
BRANCH   1   8
ATOM      8  CB  UNL     1      10.142  -2.159  23.304  0.00  0.00    +0.061 C 
BRANCH   8   9
ATOM      9  CG  UNL     1      10.167  -0.653  23.174  0.00  0.00    -0.045 A 
ATOM     10  CD2 UNL     1       9.830  -0.041  21.958  0.00  0.00    +0.004 A 
ATOM     11  CE2 UNL     1       9.832   1.348  21.836  0.00  0.00    +0.000 A 
ATOM     12  CZ  UNL     1      10.172   2.142  22.929  0.00  0.00    +0.000 A 
ATOM     13  CE1 UNL     1      10.518   1.546  24.141  0.00  0.00    +0.000 A 
ATOM     14  CD1 UNL     1      10.522   0.156  24.264  0.00  0.00    +0.004 A 
ENDBRANCH   8   9
ENDBRANCH   1   8
TORSDOF 5
ENDMDL
MODEL 2
REMARK VINA RESULT:      -5.1      0.045      1.340
REMARK  Name = 
REMARK  6 active torsions:
REMARK  status: ('A' for Active; 'I' for Inactive)
REMARK    1  A    between atoms: C_1  and  C_2
REMARK    2  A    between atoms: C_2  and  N_3
REMARK    3  A    between atoms: N_3  and  CA_4
REMARK    4  A    between atoms: CA_4  and  CB_6
REMARK    5  A    between atoms: CA_4  and  C_13
REMARK    6  A    between atoms: CB_6  and  CG_7
REMARK                            x       y       z     vdW  Elec       q    Type
REMARK                         _______ _______ _______ _____ _____    ______ ____
ROOT
ATOM      1  CA  UNL     1       8.792  -2.764  23.831  0.00  0.00    +0.121 C 
ENDROOT
BRANCH   1   2
ATOM      2  N   UNL     1       7.975  -3.228  22.687  0.00  0.00    -0.307 NA
ATOM      3  H   UNL     1       7.402  -2.440  22.370  0.00  0.00    +0.123 HD
BRANCH   2   5
ATOM      4  C   UNL     1       7.122  -5.386  21.942  0.00  0.00    +0.020 C 
ATOM      5  C   ACE A   0       7.075  -4.331  23.038  0.00  0.00    +0.078 C 
ENDBRANCH   2   5
ENDBRANCH   1   2
BRANCH   1   6
ATOM      6  C   UNL     1       9.122  -3.917  24.777  0.00  0.00    +0.242 C 
ATOM      7  O   UNL     1      10.149  -4.593  24.719  0.00  0.00    -0.299 OA
ENDBRANCH   1   6
BRANCH   1   8
ATOM      8  CB  UNL     1      10.130  -2.168  23.329  0.00  0.00    +0.061 C 
BRANCH   8   9
ATOM      9  CG  UNL     1      10.137  -0.662  23.195  0.00  0.00    -0.045 A 
ATOM     10  CD2 UNL     1      10.478   0.145  24.290  0.00  0.00    +0.004 A 
ATOM     11  CE2 UNL     1      10.505   1.534  24.169  0.00  0.00    +0.000 A 
ATOM     12  CZ  UNL     1      10.191   2.132  22.950  0.00  0.00    +0.000 A 
ATOM     13  CE1 UNL     1       9.842   1.342  21.856  0.00  0.00    +0.000 A 
ATOM     14  CD1 UNL     1       9.808  -0.048  21.977  0.00  0.00    +0.004 A 
ENDBRANCH   8   9
ENDBRANCH   1   8
TORSDOF 5
ENDMDL
MODEL 3
REMARK VINA RESULT:      -4.9      4.737      7.484
REMARK  Name = 
REMARK  6 active torsions:
REMARK  status: ('A' for Active; 'I' for Inactive)
REMARK    1  A    between atoms: C_1  and  C_2
REMARK    2  A    between atoms: C_2  and  N_3
REMARK    3  A    between atoms: N_3  and  CA_4
REMARK    4  A    between atoms: CA_4  and  CB_6
REMARK    5  A    between atoms: CA_4  and  C_13
REMARK    6  A    between atoms: CB_6  and  CG_7
REMARK                            x       y       z     vdW  Elec       q    Type
REMARK                         _______ _______ _______ _____ _____    ______ ____
ROOT
ATOM      1  CA  UNL     1      10.379   4.744  23.848  0.00  0.00    +0.121 C 
ENDROOT
BRANCH   1   2
ATOM      2  N   UNL     1      11.544   4.453  22.982  0.00  0.00    -0.307 NA
ATOM      3  H   UNL     1      11.804   3.472  23.124  0.00  0.00    +0.123 HD
BRANCH   2   5
ATOM      4  C   UNL     1      13.400   5.694  22.004  0.00  0.00    +0.020 C 
ATOM      5  C   ACE A   0      12.711   5.282  23.297  0.00  0.00    +0.078 C 
ENDBRANCH   2   5
ENDBRANCH   1   2
BRANCH   1   6
ATOM      6  C   UNL     1       9.899   6.182  23.664  0.00  0.00    +0.242 C 
ATOM      7  O   UNL     1       8.911   6.507  23.004  0.00  0.00    -0.299 OA
ENDBRANCH   1   6
BRANCH   1   8
ATOM      8  CB  UNL     1       9.200   3.804  23.497  0.00  0.00    +0.061 C 
BRANCH   8   9
ATOM      9  CG  UNL     1       9.590   2.360  23.282  0.00  0.00    -0.045 A 
ATOM     10  CD2 UNL     1      10.090   1.594  24.344  0.00  0.00    +0.004 A 
ATOM     11  CE2 UNL     1      10.434   0.255  24.156  0.00  0.00    +0.000 A 
ATOM     12  CZ  UNL     1      10.280  -0.333  22.903  0.00  0.00    +0.000 A 
ATOM     13  CE1 UNL     1       9.792   0.420  21.836  0.00  0.00    +0.000 A 
ATOM     14  CD1 UNL     1       9.454   1.760  22.020  0.00  0.00    +0.004 A 
ENDBRANCH   8   9
ENDBRANCH   1   8
TORSDOF 5
ENDMDL
MODEL 4
REMARK VINA RESULT:      -4.8      3.762      6.423
REMARK  Name = 
REMARK  6 active torsions:
REMARK  status: ('A' for Active; 'I' for Inactive)
REMARK    1  A    between atoms: C_1  and  C_2
REMARK    2  A    between atoms: C_2  and  N_3
REMARK    3  A    between atoms: N_3  and  CA_4
REMARK    4  A    between atoms: CA_4  and  CB_6
REMARK    5  A    between atoms: CA_4  and  C_13
REMARK    6  A    between atoms: CB_6  and  CG_7
REMARK                            x       y       z     vdW  Elec       q    Type
REMARK                         _______ _______ _______ _____ _____    ______ ____
ROOT
ATOM      1  CA  UNL     1       9.657   3.166  23.396  0.00  0.00    +0.121 C 
ENDROOT
BRANCH   1   2
ATOM      2  N   UNL     1      10.386   4.454  23.366  0.00  0.00    -0.307 NA
ATOM      3  H   UNL     1      10.096   4.960  22.523  0.00  0.00    +0.123 HD
BRANCH   2   5
ATOM      4  C   UNL     1      12.513   5.598  23.695  0.00  0.00    +0.020 C 
ATOM      5  C   ACE A   0      11.841   4.286  23.316  0.00  0.00    +0.078 C 
ENDBRANCH   2   5
ENDBRANCH   1   2
BRANCH   1   6
ATOM      6  C   UNL     1       8.170   3.366  23.107  0.00  0.00    +0.242 C 
ATOM      7  O   UNL     1       7.660   3.274  21.990  0.00  0.00    -0.299 OA
ENDBRANCH   1   6
BRANCH   1   8
ATOM      8  CB  UNL     1      10.221   2.204  22.324  0.00  0.00    +0.061 C 
BRANCH   8   9
ATOM      9  CG  UNL     1       9.996   0.737  22.614  0.00  0.00    -0.045 A 
ATOM     10  CD2 UNL     1       9.596  -0.135  21.592  0.00  0.00    +0.004 A 
ATOM     11  CE2 UNL     1       9.405  -1.492  21.848  0.00  0.00    +0.000 A 
ATOM     12  CZ  UNL     1       9.613  -1.994  23.131  0.00  0.00    +0.000 A 
ATOM     13  CE1 UNL     1      10.003  -1.136  24.159  0.00  0.00    +0.000 A 
ATOM     14  CD1 UNL     1      10.189   0.223  23.906  0.00  0.00    +0.004 A 
ENDBRANCH   8   9
ENDBRANCH   1   8
TORSDOF 5
ENDMDL
MODEL 5
REMARK VINA RESULT:      -4.7      2.062      2.714
REMARK  Name = 
REMARK  6 active torsions:
REMARK  status: ('A' for Active; 'I' for Inactive)
REMARK    1  A    between atoms: C_1  and  C_2
REMARK    2  A    between atoms: C_2  and  N_3
REMARK    3  A    between atoms: N_3  and  CA_4
REMARK    4  A    between atoms: CA_4  and  CB_6
REMARK    5  A    between atoms: CA_4  and  C_13
REMARK    6  A    between atoms: CB_6  and  CG_7
REMARK                            x       y       z     vdW  Elec       q    Type
REMARK                         _______ _______ _______ _____ _____    ______ ____
ROOT
ATOM      1  CA  UNL     1       7.692  -2.177  22.900  0.00  0.00    +0.121 C 
ENDROOT
BRANCH   1   2
ATOM      2  N   UNL     1       6.618  -1.158  22.864  0.00  0.00    -0.307 NA
ATOM      3  H   UNL     1       6.949  -0.373  22.296  0.00  0.00    +0.123 HD
BRANCH   2   5
ATOM      4  C   UNL     1       6.365   0.875  24.184  0.00  0.00    +0.020 C 
ATOM      5  C   ACE A   0       6.274  -0.644  24.193  0.00  0.00    +0.078 C 
ENDBRANCH   2   5
ENDBRANCH   1   2
BRANCH   1   6
ATOM      6  C   UNL     1       7.224  -3.494  22.284  0.00  0.00    +0.242 C 
ATOM      7  O   UNL     1       7.526  -4.609  22.713  0.00  0.00    -0.299 OA
ENDBRANCH   1   6
BRANCH   1   8
ATOM      8  CB  UNL     1       8.921  -1.690  22.096  0.00  0.00    +0.061 C 
BRANCH   8   9
ATOM      9  CG  UNL     1       9.519  -0.391  22.585  0.00  0.00    -0.045 A 
ATOM     10  CD2 UNL     1       9.535   0.739  21.756  0.00  0.00    +0.004 A 
ATOM     11  CE2 UNL     1      10.068   1.946  22.208  0.00  0.00    +0.000 A 
ATOM     12  CZ  UNL     1      10.592   2.037  23.495  0.00  0.00    +0.000 A 
ATOM     13  CE1 UNL     1      10.591   0.918  24.327  0.00  0.00    +0.000 A 
ATOM     14  CD1 UNL     1      10.063  -0.292  23.875  0.00  0.00    +0.004 A 
ENDBRANCH   8   9
ENDBRANCH   1   8
TORSDOF 5
ENDMDL
MODEL 6
REMARK VINA RESULT:      -4.7      1.578      2.407
REMARK  Name = 
REMARK  6 active torsions:
REMARK  status: ('A' for Active; 'I' for Inactive)
REMARK    1  A    between atoms: C_1  and  C_2
REMARK    2  A    between atoms: C_2  and  N_3
REMARK    3  A    between atoms: N_3  and  CA_4
REMARK    4  A    between atoms: CA_4  and  CB_6
REMARK    5  A    between atoms: CA_4  and  C_13
REMARK    6  A    between atoms: CB_6  and  CG_7
REMARK                            x       y       z     vdW  Elec       q    Type
REMARK                         _______ _______ _______ _____ _____    ______ ____
ROOT
ATOM      1  CA  UNL     1       8.971  -2.687  24.883  0.00  0.00    +0.121 C 
ENDROOT
BRANCH   1   2
ATOM      2  N   UNL     1       7.591  -2.395  24.431  0.00  0.00    -0.307 NA
ATOM      3  H   UNL     1       7.638  -2.099  23.451  0.00  0.00    +0.123 HD
BRANCH   2   5
ATOM      4  C   UNL     1       6.444  -0.252  24.244  0.00  0.00    +0.020 C 
ATOM      5  C   ACE A   0       6.953  -1.323  25.199  0.00  0.00    +0.078 C 
ENDBRANCH   2   5
ENDBRANCH   1   2
BRANCH   1   6
ATOM      6  C   UNL     1       9.142  -4.168  25.214  0.00  0.00    +0.242 C 
ATOM      7  O   UNL     1       9.843  -4.949  24.569  0.00  0.00    -0.299 OA
ENDBRANCH   1   6
BRANCH   1   8
ATOM      8  CB  UNL     1       9.987  -2.331  23.771  0.00  0.00    +0.061 C 
BRANCH   8   9
ATOM      9  CG  UNL     1      10.038  -0.864  23.411  0.00  0.00    -0.045 A 
ATOM     10  CD2 UNL     1      10.399   0.091  24.372  0.00  0.00    +0.004 A 
ATOM     11  CE2 UNL     1      10.466   1.444  24.041  0.00  0.00    +0.000 A 
ATOM     12  CZ  UNL     1      10.172   1.858  22.744  0.00  0.00    +0.000 A 
ATOM     13  CE1 UNL     1       9.802   0.920  21.781  0.00  0.00    +0.000 A 
ATOM     14  CD1 UNL     1       9.729  -0.433  22.111  0.00  0.00    +0.004 A 
ENDBRANCH   8   9
ENDBRANCH   1   8
TORSDOF 5
ENDMDL
MODEL 7
REMARK VINA RESULT:      -4.4      5.013      7.376
REMARK  Name = 
REMARK  6 active torsions:
REMARK  status: ('A' for Active; 'I' for Inactive)
REMARK    1  A    between atoms: C_1  and  C_2
REMARK    2  A    between atoms: C_2  and  N_3
REMARK    3  A    between atoms: N_3  and  CA_4
REMARK    4  A    between atoms: CA_4  and  CB_6
REMARK    5  A    between atoms: CA_4  and  C_13
REMARK    6  A    between atoms: CB_6  and  CG_7
REMARK                            x       y       z     vdW  Elec       q    Type
REMARK                         _______ _______ _______ _____ _____    ______ ____
ROOT
ATOM      1  CA  UNL     1       9.600   5.142  24.307  0.00  0.00    +0.121 C 
ENDROOT
BRANCH   1   2
ATOM      2  N   UNL     1       9.420   5.865  23.028  0.00  0.00    -0.307 NA
ATOM      3  H   UNL     1      10.236   6.469  22.891  0.00  0.00    +0.123 HD
BRANCH   2   5
ATOM      4  C   UNL     1       7.328   6.297  21.853  0.00  0.00    +0.020 C 
ATOM      5  C   ACE A   0       8.222   6.710  23.013  0.00  0.00    +0.078 C 
ENDBRANCH   2   5
ENDBRANCH   1   2
BRANCH   1   6
ATOM      6  C   UNL     1       9.298   6.047  25.501  0.00  0.00    +0.242 C 
ATOM      7  O   UNL     1       8.668   5.696  26.499  0.00  0.00    -0.299 OA
ENDBRANCH   1   6
BRANCH   1   8
ATOM      8  CB  UNL     1       8.640   3.930  24.380  0.00  0.00    +0.061 C 
BRANCH   8   9
ATOM      9  CG  UNL     1       9.020   2.773  23.484  0.00  0.00    -0.045 A 
ATOM     10  CD2 UNL     1      10.034   1.883  23.865  0.00  0.00    +0.004 A 
ATOM     11  CE2 UNL     1      10.376   0.803  23.052  0.00  0.00    +0.000 A 
ATOM     12  CZ  UNL     1       9.707   0.600  21.847  0.00  0.00    +0.000 A 
ATOM     13  CE1 UNL     1       8.702   1.482  21.451  0.00  0.00    +0.000 A 
ATOM     14  CD1 UNL     1       8.363   2.567  22.261  0.00  0.00    +0.004 A 
ENDBRANCH   8   9
ENDBRANCH   1   8
TORSDOF 5
ENDMDL
MODEL 8
REMARK VINA RESULT:      -4.4      1.907      2.351
REMARK  Name = 
REMARK  6 active torsions:
REMARK  status: ('A' for Active; 'I' for Inactive)
REMARK    1  A    between atoms: C_1  and  C_2
REMARK    2  A    between atoms: C_2  and  N_3
REMARK    3  A    between atoms: N_3  and  CA_4
REMARK    4  A    between atoms: CA_4  and  CB_6
REMARK    5  A    between atoms: CA_4  and  C_13
REMARK    6  A    between atoms: CB_6  and  CG_7
REMARK                            x       y       z     vdW  Elec       q    Type
REMARK                         _______ _______ _______ _____ _____    ______ ____
ROOT
ATOM      1  CA  UNL     1       8.370  -4.375  24.697  0.00  0.00    +0.121 C 
ENDROOT
BRANCH   1   2
ATOM      2  N   UNL     1       8.327  -5.371  23.602  0.00  0.00    -0.307 NA
ATOM      3  H   UNL     1       9.199  -5.292  23.071  0.00  0.00    +0.123 HD
BRANCH   2   5
ATOM      4  C   UNL     1       5.920  -5.638  23.324  0.00  0.00    +0.020 C 
ATOM      5  C   ACE A   0       7.211  -5.155  22.677  0.00  0.00    +0.078 C 
ENDBRANCH   2   5
ENDBRANCH   1   2
BRANCH   1   6
ATOM      6  C   UNL     1       8.535  -5.054  26.055  0.00  0.00    +0.242 C 
ATOM      7  O   UNL     1       7.696  -5.795  26.569  0.00  0.00    -0.299 OA
ENDBRANCH   1   6
BRANCH   1   8
ATOM      8  CB  UNL     1       9.566  -3.413  24.502  0.00  0.00    +0.061 C 
BRANCH   8   9
ATOM      9  CG  UNL     1       9.261  -2.192  23.664  0.00  0.00    -0.045 A 
ATOM     10  CD2 UNL     1      10.206  -1.704  22.751  0.00  0.00    +0.004 A 
ATOM     11  CE2 UNL     1       9.924  -0.589  21.962  0.00  0.00    +0.000 A 
ATOM     12  CZ  UNL     1       8.692   0.051  22.077  0.00  0.00    +0.000 A 
ATOM     13  CE1 UNL     1       7.746  -0.418  22.988  0.00  0.00    +0.000 A 
ATOM     14  CD1 UNL     1       8.029  -1.530  23.782  0.00  0.00    +0.004 A 
ENDBRANCH   8   9
ENDBRANCH   1   8
TORSDOF 5
ENDMDL
MODEL 9
REMARK VINA RESULT:      -4.3      2.387      3.450
REMARK  Name = 
REMARK  6 active torsions:
REMARK  status: ('A' for Active; 'I' for Inactive)
REMARK    1  A    between atoms: C_1  and  C_2
REMARK    2  A    between atoms: C_2  and  N_3
REMARK    3  A    between atoms: N_3  and  CA_4
REMARK    4  A    between atoms: CA_4  and  CB_6
REMARK    5  A    between atoms: CA_4  and  C_13
REMARK    6  A    between atoms: CB_6  and  CG_7
REMARK                            x       y       z     vdW  Elec       q    Type
REMARK                         _______ _______ _______ _____ _____    ______ ____
ROOT
ATOM      1  CA  UNL     1      10.036  -0.426  23.427  0.00  0.00    +0.121 C 
ENDROOT
BRANCH   1   2
ATOM      2  N   UNL     1       8.799  -0.408  24.241  0.00  0.00    -0.307 NA
ATOM      3  H   UNL     1       8.233   0.389  23.935  0.00  0.00    +0.123 HD
BRANCH   2   5
ATOM      4  C   UNL     1       8.533  -1.477  26.416  0.00  0.00    +0.020 C 
ATOM      5  C   ACE A   0       9.061  -0.256  25.675  0.00  0.00    +0.078 C 
ENDBRANCH   2   5
ENDBRANCH   1   2
BRANCH   1   6
ATOM      6  C   UNL     1      10.320  -1.826  22.884  0.00  0.00    +0.242 C 
ATOM      7  O   UNL     1      10.290  -2.854  23.562  0.00  0.00    -0.299 OA
ENDBRANCH   1   6
BRANCH   1   8
ATOM      8  CB  UNL     1       9.897   0.530  22.217  0.00  0.00    +0.061 C 
BRANCH   8   9
ATOM      9  CG  UNL     1       9.334   1.892  22.553  0.00  0.00    -0.045 A 
ATOM     10  CD2 UNL     1       8.133   2.325  21.973  0.00  0.00    +0.004 A 
ATOM     11  CE2 UNL     1       7.598   3.573  22.293  0.00  0.00    +0.000 A 
ATOM     12  CZ  UNL     1       8.258   4.402  23.198  0.00  0.00    +0.000 A 
ATOM     13  CE1 UNL     1       9.457   3.987  23.775  0.00  0.00    +0.000 A 
ATOM     14  CD1 UNL     1       9.997   2.742  23.451  0.00  0.00    +0.004 A 
ENDBRANCH   8   9
ENDBRANCH   1   8
TORSDOF 5
ENDMDL
