MODEL 1
REMARK VINA RESULT:      -8.0      0.000      0.000
REMARK  Name = 
REMARK  12 active torsions:
REMARK  status: ('A' for Active; 'I' for Inactive)
REMARK    1  A    between atoms: O_1  and  C_2
REMARK    2  A    between atoms: C_2  and  C_4
REMARK    3  A    between atoms: C_5  and  C_41
REMARK    4  A    between atoms: C_7  and  O_8
REMARK    5  A    between atoms: O_8  and  C_9
REMARK    6  A    between atoms: C_10  and  N_11
REMARK    7  A    between atoms: C_12  and  C_14
REMARK    8  A    between atoms: C_16  and  N_20
REMARK    9  A    between atoms: C_24  and  N_25
REMARK   10  A    between atoms: C_26  and  C_28
REMARK   11  A    between atoms: C_30  and  N_34
REMARK   12  A    between atoms: C_41  and  O_42
REMARK                            x       y       z     vdW  Elec       q    Type
REMARK                         _______ _______ _______ _____ _____    ______ ____
ROOT
ATOM      1  C   UNL     1       9.108  -2.952  24.325  0.00  0.00    +0.150 A 
ATOM      2  C   UNL     1       9.979  -2.275  23.452  0.00  0.00    +0.050 A 
ATOM      3  C   UNL     1      10.135  -0.870  23.506  0.00  0.00    +0.027 A 
ATOM      4  C   UNL     1       9.514  -0.133  24.511  0.00  0.00    +0.036 A 
ATOM      5  C   UNL     1       8.775  -0.840  25.452  0.00  0.00    +0.050 A 
ATOM      6  C   UNL     1       8.479  -2.202  25.321  0.00  0.00    +0.078 A 
ENDROOT
BRANCH   4   7
ATOM      7  N   UNL     1       9.591   1.287  24.537  0.00  0.00    -0.281 N 
ATOM      8  H   UNL     1      10.329   1.691  25.098  0.00  0.00    +0.155 HD
ATOM      9  C   UNL     1       8.889   2.120  23.668  0.00  0.00    +0.248 C 
ATOM     10  O   UNL     1       8.047   1.794  22.836  0.00  0.00    -0.270 OA
BRANCH   9  11
ATOM     11  C   UNL     1       9.173   3.570  23.703  0.00  0.00    +0.043 A 
ATOM     12  C   UNL     1       8.186   4.526  23.465  0.00  0.00    +0.013 A 
ATOM     13  C   UNL     1       8.548   5.872  23.350  0.00  0.00    +0.007 A 
ATOM     14  C   UNL     1       9.887   6.262  23.471  0.00  0.00    +0.084 A 
ATOM     15  C   UNL     1      10.873   5.294  23.710  0.00  0.00    +0.274 A 
ATOM     16  C   UNL     1      10.523   3.951  23.825  0.00  0.00    +0.097 A 
BRANCH  15  17
ATOM     17  N   UNL     1      12.284   5.693  23.811  0.00  0.00    +0.080 N 
ATOM     18  O   UNL     1      13.041   5.370  22.886  0.00  0.00    +0.041 OA
ATOM     19  O   UNL     1      12.634   6.338  24.809  0.00  0.00    -0.576 OA
ENDBRANCH  15  17
ENDBRANCH   9  11
ENDBRANCH   4   7
BRANCH   6  20
ATOM     20  N   UNL     1       7.523  -2.739  26.211  0.00  0.00    -0.278 N 
ATOM     21  H   UNL     1       7.740  -3.608  26.681  0.00  0.00    +0.155 HD
ATOM     22  C   UNL     1       6.184  -2.351  26.125  0.00  0.00    +0.249 C 
ATOM     23  O   UNL     1       5.662  -1.771  25.179  0.00  0.00    -0.270 OA
BRANCH  22  24
ATOM     24  C   UNL     1       5.315  -2.727  27.263  0.00  0.00    +0.043 A 
ATOM     25  C   UNL     1       4.187  -1.935  27.530  0.00  0.00    +0.013 A 
ATOM     26  C   UNL     1       3.312  -2.283  28.557  0.00  0.00    +0.007 A 
ATOM     27  C   UNL     1       3.565  -3.419  29.324  0.00  0.00    +0.084 A 
ATOM     28  C   UNL     1       4.726  -4.176  29.089  0.00  0.00    +0.274 A 
ATOM     29  C   UNL     1       5.619  -3.820  28.072  0.00  0.00    +0.097 A 
BRANCH  28  30
ATOM     30  N   UNL     1       4.985  -5.382  29.881  0.00  0.00    +0.080 N 
ATOM     31  O   UNL     1       6.163  -5.672  30.127  0.00  0.00    +0.041 OA
ATOM     32  O   UNL     1       4.004  -6.012  30.301  0.00  0.00    -0.576 OA
ENDBRANCH  28  30
ENDBRANCH  22  24
ENDBRANCH   6  20
BRANCH   1  33
ATOM     33  O   UNL     1       8.833  -4.309  24.227  0.00  0.00    -0.454 OA
BRANCH  33  37
ATOM     34  C   UNL     1       4.828  -5.400  23.460  0.00  0.00    +0.073 A 
ATOM     35  C   UNL     1       5.533  -4.518  22.611  0.00  0.00    +0.019 A 
ATOM     36  C   UNL     1       6.864  -4.144  22.879  0.00  0.00    +0.047 A 
ATOM     37  C   UNL     1       7.540  -4.716  23.949  0.00  0.00    +0.129 A 
ATOM     38  C   UNL     1       6.874  -5.653  24.735  0.00  0.00    +0.062 A 
ATOM     39  C   UNL     1       5.482  -5.871  24.620  0.00  0.00    +0.076 A 
BRANCH  34  40
ATOM     40  C   UNL     1       3.438  -5.794  23.109  0.00  0.00    +0.338 C 
ATOM     41  O   UNL     1       2.537  -4.987  22.952  0.00  0.00    -0.245 OA
BRANCH  40  42
ATOM     42  O   UNL     1       3.188  -7.119  23.063  0.00  0.00    -0.477 OA
ATOM     43  H   UNL     1       3.852  -7.694  22.640  0.00  0.00    +0.295 HD
ENDBRANCH  40  42
ENDBRANCH  34  40
BRANCH  39  44
ATOM     44  C   UNL     1       4.890  -6.348  25.908  0.00  0.00    +0.338 C 
ATOM     45  O   UNL     1       5.633  -6.850  26.746  0.00  0.00    -0.245 OA
BRANCH  44  46
ATOM     46  O   UNL     1       3.584  -6.227  26.161  0.00  0.00    -0.477 OA
ATOM     47  H   UNL     1       3.029  -7.034  26.073  0.00  0.00    +0.295 HD
ENDBRANCH  44  46
ENDBRANCH  39  44
ENDBRANCH  33  37
ENDBRANCH   1  33
TORSDOF 12
ENDMDL
MODEL 2
REMARK VINA RESULT:      -7.9      1.891      3.137
REMARK  Name = 
REMARK  12 active torsions:
REMARK  status: ('A' for Active; 'I' for Inactive)
REMARK    1  A    between atoms: O_1  and  C_2
REMARK    2  A    between atoms: C_2  and  C_4
REMARK    3  A    between atoms: C_5  and  C_41
REMARK    4  A    between atoms: C_7  and  O_8
REMARK    5  A    between atoms: O_8  and  C_9
REMARK    6  A    between atoms: C_10  and  N_11
REMARK    7  A    between atoms: C_12  and  C_14
REMARK    8  A    between atoms: C_16  and  N_20
REMARK    9  A    between atoms: C_24  and  N_25
REMARK   10  A    between atoms: C_26  and  C_28
REMARK   11  A    between atoms: C_30  and  N_34
REMARK   12  A    between atoms: C_41  and  O_42
REMARK                            x       y       z     vdW  Elec       q    Type
REMARK                         _______ _______ _______ _____ _____    ______ ____
ROOT
ATOM      1  C   UNL     1       7.992  -2.553  24.338  0.00  0.00    +0.150 A 
ATOM      2  C   UNL     1       9.357  -2.274  24.146  0.00  0.00    +0.050 A 
ATOM      3  C   UNL     1       9.872  -0.965  24.294  0.00  0.00    +0.027 A 
ATOM      4  C   UNL     1       9.053   0.064  24.752  0.00  0.00    +0.036 A 
ATOM      5  C   UNL     1       7.742  -0.266  25.077  0.00  0.00    +0.050 A 
ATOM      6  C   UNL     1       7.176  -1.513  24.785  0.00  0.00    +0.078 A 
ENDROOT
BRANCH   4   7
ATOM      7  N   UNL     1       9.527   1.403  24.831  0.00  0.00    -0.281 N 
ATOM      8  H   UNL     1      10.249   1.589  25.514  0.00  0.00    +0.155 HD
ATOM      9  C   UNL     1       9.240   2.386  23.887  0.00  0.00    +0.248 C 
ATOM     10  O   UNL     1       8.486   2.300  22.922  0.00  0.00    -0.270 OA
BRANCH   9  11
ATOM     11  C   UNL     1       9.918   3.694  24.008  0.00  0.00    +0.043 A 
ATOM     12  C   UNL     1       9.282   4.811  24.552  0.00  0.00    +0.013 A 
ATOM     13  C   UNL     1       9.915   6.057  24.491  0.00  0.00    +0.007 A 
ATOM     14  C   UNL     1      11.173   6.188  23.891  0.00  0.00    +0.084 A 
ATOM     15  C   UNL     1      11.804   5.061  23.347  0.00  0.00    +0.274 A 
ATOM     16  C   UNL     1      11.182   3.815  23.402  0.00  0.00    +0.097 A 
BRANCH  15  17
ATOM     17  N   UNL     1      13.112   5.196  22.692  0.00  0.00    +0.080 N 
ATOM     18  O   UNL     1      13.134   5.645  21.538  0.00  0.00    +0.041 OA
ATOM     19  O   UNL     1      14.119   4.863  23.332  0.00  0.00    -0.576 OA
ENDBRANCH  15  17
ENDBRANCH   9  11
ENDBRANCH   4   7
BRANCH   6  20
ATOM     20  N   UNL     1       5.778  -1.634  24.944  0.00  0.00    -0.278 N 
ATOM     21  H   UNL     1       5.185  -1.409  24.156  0.00  0.00    +0.155 HD
ATOM     22  C   UNL     1       5.210  -1.631  26.220  0.00  0.00    +0.249 C 
ATOM     23  O   UNL     1       5.764  -1.271  27.253  0.00  0.00    -0.270 OA
BRANCH  22  24
ATOM     24  C   UNL     1       3.794  -2.051  26.312  0.00  0.00    +0.043 A 
ATOM     25  C   UNL     1       2.910  -1.254  27.056  0.00  0.00    +0.013 A 
ATOM     26  C   UNL     1       1.557  -1.582  27.125  0.00  0.00    +0.007 A 
ATOM     27  C   UNL     1       1.086  -2.711  26.456  0.00  0.00    +0.084 A 
ATOM     28  C   UNL     1       1.986  -3.536  25.759  0.00  0.00    +0.274 A 
ATOM     29  C   UNL     1       3.348  -3.223  25.705  0.00  0.00    +0.097 A 
BRANCH  28  30
ATOM     30  N   UNL     1       1.491  -4.713  25.040  0.00  0.00    +0.080 N 
ATOM     31  O   UNL     1       0.857  -5.562  25.681  0.00  0.00    +0.041 OA
ATOM     32  O   UNL     1       1.695  -4.764  23.818  0.00  0.00    -0.576 OA
ENDBRANCH  28  30
ENDBRANCH  22  24
ENDBRANCH   6  20
BRANCH   1  33
ATOM     33  O   UNL     1       7.425  -3.795  24.086  0.00  0.00    -0.454 OA
BRANCH  33  37
ATOM     34  C   UNL     1       5.891  -6.134  27.246  0.00  0.00    +0.073 A 
ATOM     35  C   UNL     1       7.102  -5.419  27.373  0.00  0.00    +0.019 A 
ATOM     36  C   UNL     1       7.618  -4.652  26.310  0.00  0.00    +0.047 A 
ATOM     37  C   UNL     1       6.887  -4.516  25.137  0.00  0.00    +0.129 A 
ATOM     38  C   UNL     1       5.650  -5.149  25.045  0.00  0.00    +0.062 A 
ATOM     39  C   UNL     1       5.222  -6.097  26.003  0.00  0.00    +0.076 A 
BRANCH  34  40
ATOM     40  C   UNL     1       5.368  -6.895  28.413  0.00  0.00    +0.338 C 
ATOM     41  O   UNL     1       4.200  -6.860  28.760  0.00  0.00    -0.245 OA
BRANCH  40  42
ATOM     42  O   UNL     1       6.282  -7.565  29.145  0.00  0.00    -0.477 OA
ATOM     43  H   UNL     1       7.184  -7.198  29.195  0.00  0.00    +0.295 HD
ENDBRANCH  40  42
ENDBRANCH  34  40
BRANCH  39  44
ATOM     44  C   UNL     1       4.278  -7.094  25.408  0.00  0.00    +0.338 C 
ATOM     45  O   UNL     1       4.504  -7.516  24.279  0.00  0.00    -0.245 OA
BRANCH  44  46
ATOM     46  O   UNL     1       3.213  -7.533  26.084  0.00  0.00    -0.477 OA
ATOM     47  H   UNL     1       2.455  -7.877  25.561  0.00  0.00    +0.295 HD
ENDBRANCH  44  46
ENDBRANCH  39  44
ENDBRANCH  33  37
ENDBRANCH   1  33
TORSDOF 12
ENDMDL
MODEL 3
REMARK VINA RESULT:      -7.7      1.662      2.312
REMARK  Name = 
REMARK  12 active torsions:
REMARK  status: ('A' for Active; 'I' for Inactive)
REMARK    1  A    between atoms: O_1  and  C_2
REMARK    2  A    between atoms: C_2  and  C_4
REMARK    3  A    between atoms: C_5  and  C_41
REMARK    4  A    between atoms: C_7  and  O_8
REMARK    5  A    between atoms: O_8  and  C_9
REMARK    6  A    between atoms: C_10  and  N_11
REMARK    7  A    between atoms: C_12  and  C_14
REMARK    8  A    between atoms: C_16  and  N_20
REMARK    9  A    between atoms: C_24  and  N_25
REMARK   10  A    between atoms: C_26  and  C_28
REMARK   11  A    between atoms: C_30  and  N_34
REMARK   12  A    between atoms: C_41  and  O_42
REMARK                            x       y       z     vdW  Elec       q    Type
REMARK                         _______ _______ _______ _____ _____    ______ ____
ROOT
ATOM      1  C   UNL     1       7.493  -1.838  22.751  0.00  0.00    +0.150 A 
ATOM      2  C   UNL     1       8.627  -1.433  22.025  0.00  0.00    +0.050 A 
ATOM      3  C   UNL     1       9.362  -0.278  22.384  0.00  0.00    +0.027 A 
ATOM      4  C   UNL     1       9.044   0.423  23.545  0.00  0.00    +0.036 A 
ATOM      5  C   UNL     1       8.010  -0.081  24.326  0.00  0.00    +0.050 A 
ATOM      6  C   UNL     1       7.174  -1.122  23.905  0.00  0.00    +0.078 A 
ENDROOT
BRANCH   4   7
ATOM      7  N   UNL     1       9.715   1.631  23.882  0.00  0.00    -0.281 N 
ATOM      8  H   UNL     1      10.685   1.550  24.154  0.00  0.00    +0.155 HD
ATOM      9  C   UNL     1       9.201   2.902  23.631  0.00  0.00    +0.248 C 
ATOM     10  O   UNL     1       8.093   3.187  23.188  0.00  0.00    -0.270 OA
BRANCH   9  11
ATOM     11  C   UNL     1      10.065   4.071  23.895  0.00  0.00    +0.043 A 
ATOM     12  C   UNL     1       9.609   5.187  24.598  0.00  0.00    +0.013 A 
ATOM     13  C   UNL     1      10.417   6.327  24.675  0.00  0.00    +0.007 A 
ATOM     14  C   UNL     1      11.670   6.353  24.053  0.00  0.00    +0.084 A 
ATOM     15  C   UNL     1      12.121   5.228  23.348  0.00  0.00    +0.274 A 
ATOM     16  C   UNL     1      11.323   4.088  23.266  0.00  0.00    +0.097 A 
BRANCH  15  17
ATOM     17  N   UNL     1      13.425   5.259  22.671  0.00  0.00    +0.080 N 
ATOM     18  O   UNL     1      14.416   4.894  23.317  0.00  0.00    +0.041 OA
ATOM     19  O   UNL     1      13.457   5.639  21.493  0.00  0.00    -0.576 OA
ENDBRANCH  15  17
ENDBRANCH   9  11
ENDBRANCH   4   7
BRANCH   6  20
ATOM     20  N   UNL     1       6.021  -1.371  24.682  0.00  0.00    -0.278 N 
ATOM     21  H   UNL     1       5.136  -1.005  24.357  0.00  0.00    +0.155 HD
ATOM     22  C   UNL     1       6.140  -1.711  26.032  0.00  0.00    +0.249 C 
ATOM     23  O   UNL     1       7.144  -1.572  26.723  0.00  0.00    -0.270 OA
BRANCH  22  24
ATOM     24  C   UNL     1       4.923  -2.235  26.689  0.00  0.00    +0.043 A 
ATOM     25  C   UNL     1       3.672  -1.841  26.186  0.00  0.00    +0.013 A 
ATOM     26  C   UNL     1       2.500  -2.353  26.739  0.00  0.00    +0.007 A 
ATOM     27  C   UNL     1       2.573  -3.254  27.800  0.00  0.00    +0.084 A 
ATOM     28  C   UNL     1       3.826  -3.602  28.335  0.00  0.00    +0.274 A 
ATOM     29  C   UNL     1       5.005  -3.075  27.798  0.00  0.00    +0.097 A 
BRANCH  28  30
ATOM     30  N   UNL     1       3.907  -4.563  29.438  0.00  0.00    +0.080 N 
ATOM     31  O   UNL     1       5.024  -4.995  29.751  0.00  0.00    +0.041 OA
ATOM     32  O   UNL     1       2.854  -4.849  30.027  0.00  0.00    -0.576 OA
ENDBRANCH  28  30
ENDBRANCH  22  24
ENDBRANCH   6  20
BRANCH   1  33
ATOM     33  O   UNL     1       6.675  -2.891  22.363  0.00  0.00    -0.454 OA
BRANCH  33  37
ATOM     34  C   UNL     1       5.541  -5.667  25.332  0.00  0.00    +0.073 A 
ATOM     35  C   UNL     1       4.589  -5.051  24.491  0.00  0.00    +0.019 A 
ATOM     36  C   UNL     1       4.971  -4.113  23.512  0.00  0.00    +0.047 A 
ATOM     37  C   UNL     1       6.317  -3.845  23.298  0.00  0.00    +0.129 A 
ATOM     38  C   UNL     1       7.261  -4.519  24.068  0.00  0.00    +0.062 A 
ATOM     39  C   UNL     1       6.894  -5.288  25.197  0.00  0.00    +0.076 A 
BRANCH  34  40
ATOM     40  C   UNL     1       5.090  -6.682  26.322  0.00  0.00    +0.338 C 
ATOM     41  O   UNL     1       4.109  -7.386  26.152  0.00  0.00    -0.245 OA
BRANCH  40  42
ATOM     42  O   UNL     1       5.772  -6.723  27.486  0.00  0.00    -0.477 OA
ATOM     43  H   UNL     1       6.651  -6.304  27.514  0.00  0.00    +0.295 HD
ENDBRANCH  40  42
ENDBRANCH  34  40
BRANCH  39  44
ATOM     44  C   UNL     1       7.995  -5.340  26.209  0.00  0.00    +0.338 C 
ATOM     45  O   UNL     1       7.803  -4.840  27.313  0.00  0.00    -0.245 OA
BRANCH  44  46
ATOM     46  O   UNL     1       9.165  -5.923  25.935  0.00  0.00    -0.477 OA
ATOM     47  H   UNL     1       9.379  -6.756  26.411  0.00  0.00    +0.295 HD
ENDBRANCH  44  46
ENDBRANCH  39  44
ENDBRANCH  33  37
ENDBRANCH   1  33
TORSDOF 12
ENDMDL
MODEL 4
REMARK VINA RESULT:      -7.4      2.885      9.743
REMARK  Name = 
REMARK  12 active torsions:
REMARK  status: ('A' for Active; 'I' for Inactive)
REMARK    1  A    between atoms: O_1  and  C_2
REMARK    2  A    between atoms: C_2  and  C_4
REMARK    3  A    between atoms: C_5  and  C_41
REMARK    4  A    between atoms: C_7  and  O_8
REMARK    5  A    between atoms: O_8  and  C_9
REMARK    6  A    between atoms: C_10  and  N_11
REMARK    7  A    between atoms: C_12  and  C_14
REMARK    8  A    between atoms: C_16  and  N_20
REMARK    9  A    between atoms: C_24  and  N_25
REMARK   10  A    between atoms: C_26  and  C_28
REMARK   11  A    between atoms: C_30  and  N_34
REMARK   12  A    between atoms: C_41  and  O_42
REMARK                            x       y       z     vdW  Elec       q    Type
REMARK                         _______ _______ _______ _____ _____    ______ ____
ROOT
ATOM      1  C   UNL     1       9.614  -0.006  24.019  0.00  0.00    +0.150 A 
ATOM      2  C   UNL     1       9.796  -1.099  23.152  0.00  0.00    +0.050 A 
ATOM      3  C   UNL     1       9.103  -2.317  23.344  0.00  0.00    +0.027 A 
ATOM      4  C   UNL     1       8.129  -2.423  24.334  0.00  0.00    +0.036 A 
ATOM      5  C   UNL     1       7.862  -1.284  25.084  0.00  0.00    +0.050 A 
ATOM      6  C   UNL     1       8.645  -0.125  25.017  0.00  0.00    +0.078 A 
ENDROOT
BRANCH   4   7
ATOM      7  N   UNL     1       7.479  -3.660  24.598  0.00  0.00    -0.281 N 
ATOM      8  H   UNL     1       7.917  -4.268  25.276  0.00  0.00    +0.155 HD
ATOM      9  C   UNL     1       6.187  -3.965  24.173  0.00  0.00    +0.248 C 
ATOM     10  O   UNL     1       5.458  -3.291  23.451  0.00  0.00    -0.270 OA
BRANCH   9  11
ATOM     11  C   UNL     1       5.574  -5.225  24.642  0.00  0.00    +0.043 A 
ATOM     12  C   UNL     1       4.857  -6.064  23.787  0.00  0.00    +0.013 A 
ATOM     13  C   UNL     1       4.165  -7.156  24.321  0.00  0.00    +0.007 A 
ATOM     14  C   UNL     1       4.186  -7.409  25.697  0.00  0.00    +0.084 A 
ATOM     15  C   UNL     1       4.908  -6.561  26.549  0.00  0.00    +0.274 A 
ATOM     16  C   UNL     1       5.601  -5.470  26.027  0.00  0.00    +0.097 A 
BRANCH  15  17
ATOM     17  N   UNL     1       4.913  -6.805  27.998  0.00  0.00    +0.080 N 
ATOM     18  O   UNL     1       5.809  -7.527  28.456  0.00  0.00    +0.041 OA
ATOM     19  O   UNL     1       4.028  -6.270  28.679  0.00  0.00    -0.576 OA
ENDBRANCH  15  17
ENDBRANCH   9  11
ENDBRANCH   4   7
BRANCH   6  20
ATOM     20  N   UNL     1       8.416   0.862  26.000  0.00  0.00    -0.278 N 
ATOM     21  H   UNL     1       9.102   0.977  26.734  0.00  0.00    +0.155 HD
ATOM     22  C   UNL     1       7.125   1.351  26.220  0.00  0.00    +0.249 C 
ATOM     23  O   UNL     1       6.084   0.836  25.828  0.00  0.00    -0.270 OA
BRANCH  22  24
ATOM     24  C   UNL     1       7.017   2.573  27.047  0.00  0.00    +0.043 A 
ATOM     25  C   UNL     1       6.547   2.447  28.364  0.00  0.00    +0.013 A 
ATOM     26  C   UNL     1       6.479   3.563  29.196  0.00  0.00    +0.007 A 
ATOM     27  C   UNL     1       6.876   4.809  28.712  0.00  0.00    +0.084 A 
ATOM     28  C   UNL     1       7.292   4.939  27.376  0.00  0.00    +0.274 A 
ATOM     29  C   UNL     1       7.342   3.826  26.530  0.00  0.00    +0.097 A 
BRANCH  28  30
ATOM     30  N   UNL     1       7.727   6.244  26.870  0.00  0.00    +0.080 N 
ATOM     31  O   UNL     1       6.862   7.108  26.673  0.00  0.00    +0.041 OA
ATOM     32  O   UNL     1       8.944   6.422  26.717  0.00  0.00    -0.576 OA
ENDBRANCH  28  30
ENDBRANCH  22  24
ENDBRANCH   6  20
BRANCH   1  33
ATOM     33  O   UNL     1      10.361   1.162  23.940  0.00  0.00    -0.454 OA
BRANCH  33  37
ATOM     34  C   UNL     1       8.368   4.760  22.993  0.00  0.00    +0.073 A 
ATOM     35  C   UNL     1       9.592   4.753  23.697  0.00  0.00    +0.019 A 
ATOM     36  C   UNL     1      10.246   3.549  24.025  0.00  0.00    +0.047 A 
ATOM     37  C   UNL     1       9.733   2.339  23.575  0.00  0.00    +0.129 A 
ATOM     38  C   UNL     1       8.572   2.352  22.805  0.00  0.00    +0.062 A 
ATOM     39  C   UNL     1       7.786   3.518  22.656  0.00  0.00    +0.076 A 
BRANCH  34  40
ATOM     40  C   UNL     1       7.740   6.060  22.635  0.00  0.00    +0.338 C 
ATOM     41  O   UNL     1       7.371   6.871  23.468  0.00  0.00    -0.245 OA
BRANCH  40  42
ATOM     42  O   UNL     1       7.505   6.267  21.323  0.00  0.00    -0.477 OA
ATOM     43  H   UNL     1       6.670   5.930  20.951  0.00  0.00    +0.295 HD
ENDBRANCH  40  42
ENDBRANCH  34  40
BRANCH  39  44
ATOM     44  C   UNL     1       6.349   3.185  22.410  0.00  0.00    +0.338 C 
ATOM     45  O   UNL     1       5.946   2.065  22.705  0.00  0.00    -0.245 OA
BRANCH  44  46
ATOM     46  O   UNL     1       5.507   4.081  21.888  0.00  0.00    -0.477 OA
ATOM     47  H   UNL     1       4.992   4.637  22.515  0.00  0.00    +0.295 HD
ENDBRANCH  44  46
ENDBRANCH  39  44
ENDBRANCH  33  37
ENDBRANCH   1  33
TORSDOF 12
ENDMDL
MODEL 5
REMARK VINA RESULT:      -7.2      1.897      2.934
REMARK  Name = 
REMARK  12 active torsions:
REMARK  status: ('A' for Active; 'I' for Inactive)
REMARK    1  A    between atoms: O_1  and  C_2
REMARK    2  A    between atoms: C_2  and  C_4
REMARK    3  A    between atoms: C_5  and  C_41
REMARK    4  A    between atoms: C_7  and  O_8
REMARK    5  A    between atoms: O_8  and  C_9
REMARK    6  A    between atoms: C_10  and  N_11
REMARK    7  A    between atoms: C_12  and  C_14
REMARK    8  A    between atoms: C_16  and  N_20
REMARK    9  A    between atoms: C_24  and  N_25
REMARK   10  A    between atoms: C_26  and  C_28
REMARK   11  A    between atoms: C_30  and  N_34
REMARK   12  A    between atoms: C_41  and  O_42
REMARK                            x       y       z     vdW  Elec       q    Type
REMARK                         _______ _______ _______ _____ _____    ______ ____
ROOT
ATOM      1  C   UNL     1       7.798  -2.476  22.664  0.00  0.00    +0.150 A 
ATOM      2  C   UNL     1       9.045  -2.005  22.216  0.00  0.00    +0.050 A 
ATOM      3  C   UNL     1       9.477  -0.685  22.484  0.00  0.00    +0.027 A 
ATOM      4  C   UNL     1       8.722   0.147  23.306  0.00  0.00    +0.036 A 
ATOM      5  C   UNL     1       7.564  -0.389  23.858  0.00  0.00    +0.050 A 
ATOM      6  C   UNL     1       7.041  -1.630  23.476  0.00  0.00    +0.078 A 
ENDROOT
BRANCH   4   7
ATOM      7  N   UNL     1       9.095   1.502  23.524  0.00  0.00    -0.281 N 
ATOM      8  H   UNL     1      10.086   1.701  23.549  0.00  0.00    +0.155 HD
ATOM      9  C   UNL     1       8.206   2.573  23.462  0.00  0.00    +0.248 C 
ATOM     10  O   UNL     1       6.989   2.527  23.313  0.00  0.00    -0.270 OA
BRANCH   9  11
ATOM     11  C   UNL     1       8.751   3.943  23.560  0.00  0.00    +0.043 A 
ATOM     12  C   UNL     1       7.973   5.072  23.299  0.00  0.00    +0.013 A 
ATOM     13  C   UNL     1       8.584   6.329  23.249  0.00  0.00    +0.007 A 
ATOM     14  C   UNL     1       9.962   6.460  23.456  0.00  0.00    +0.084 A 
ATOM     15  C   UNL     1      10.737   5.321  23.717  0.00  0.00    +0.274 A 
ATOM     16  C   UNL     1      10.138   4.064  23.769  0.00  0.00    +0.097 A 
BRANCH  15  17
ATOM     17  N   UNL     1      12.188   5.448  23.910  0.00  0.00    +0.080 N 
ATOM     18  O   UNL     1      12.585   6.202  24.808  0.00  0.00    +0.041 OA
ATOM     19  O   UNL     1      12.931   4.788  23.170  0.00  0.00    -0.576 OA
ENDBRANCH  15  17
ENDBRANCH   9  11
ENDBRANCH   4   7
BRANCH   6  20
ATOM     20  N   UNL     1       5.742  -1.944  23.930  0.00  0.00    -0.278 N 
ATOM     21  H   UNL     1       4.989  -1.963  23.254  0.00  0.00    +0.155 HD
ATOM     22  C   UNL     1       5.412  -1.803  25.281  0.00  0.00    +0.249 C 
ATOM     23  O   UNL     1       6.056  -1.179  26.116  0.00  0.00    -0.270 OA
BRANCH  22  24
ATOM     24  C   UNL     1       4.141  -2.423  25.716  0.00  0.00    +0.043 A 
ATOM     25  C   UNL     1       3.643  -2.097  26.988  0.00  0.00    +0.013 A 
ATOM     26  C   UNL     1       2.423  -2.615  27.418  0.00  0.00    +0.007 A 
ATOM     27  C   UNL     1       1.700  -3.464  26.582  0.00  0.00    +0.084 A 
ATOM     28  C   UNL     1       2.231  -3.832  25.333  0.00  0.00    +0.274 A 
ATOM     29  C   UNL     1       3.465  -3.332  24.905  0.00  0.00    +0.097 A 
BRANCH  28  30
ATOM     30  N   UNL     1       1.465  -4.710  24.443  0.00  0.00    +0.080 N 
ATOM     31  O   UNL     1       1.908  -4.912  23.305  0.00  0.00    +0.041 OA
ATOM     32  O   UNL     1       0.443  -5.239  24.904  0.00  0.00    -0.576 OA
ENDBRANCH  28  30
ENDBRANCH  22  24
ENDBRANCH   6  20
BRANCH   1  33
ATOM     33  O   UNL     1       7.284  -3.719  22.320  0.00  0.00    -0.454 OA
BRANCH  33  37
ATOM     34  C   UNL     1       5.596  -6.068  25.395  0.00  0.00    +0.073 A 
ATOM     35  C   UNL     1       5.013  -5.997  24.110  0.00  0.00    +0.019 A 
ATOM     36  C   UNL     1       5.571  -5.199  23.092  0.00  0.00    +0.047 A 
ATOM     37  C   UNL     1       6.769  -4.532  23.314  0.00  0.00    +0.129 A 
ATOM     38  C   UNL     1       7.391  -4.673  24.553  0.00  0.00    +0.062 A 
ATOM     39  C   UNL     1       6.740  -5.280  25.651  0.00  0.00    +0.076 A 
BRANCH  34  40
ATOM     40  C   UNL     1       4.991  -6.958  26.421  0.00  0.00    +0.338 C 
ATOM     41  O   UNL     1       5.501  -7.158  27.511  0.00  0.00    -0.245 OA
BRANCH  40  42
ATOM     42  O   UNL     1       3.878  -7.624  26.051  0.00  0.00    -0.477 OA
ATOM     43  H   UNL     1       3.394  -7.303  25.268  0.00  0.00    +0.295 HD
ENDBRANCH  40  42
ENDBRANCH  34  40
BRANCH  39  44
ATOM     44  C   UNL     1       7.246  -4.748  26.954  0.00  0.00    +0.338 C 
ATOM     45  O   UNL     1       8.458  -4.662  27.123  0.00  0.00    -0.245 OA
BRANCH  44  46
ATOM     46  O   UNL     1       6.409  -4.359  27.920  0.00  0.00    -0.477 OA
ATOM     47  H   UNL     1       5.853  -3.567  27.746  0.00  0.00    +0.295 HD
ENDBRANCH  44  46
ENDBRANCH  39  44
ENDBRANCH  33  37
ENDBRANCH   1  33
TORSDOF 12
ENDMDL
MODEL 6
REMARK VINA RESULT:      -7.1      1.692      2.484
REMARK  Name = 
REMARK  12 active torsions:
REMARK  status: ('A' for Active; 'I' for Inactive)
REMARK    1  A    between atoms: O_1  and  C_2
REMARK    2  A    between atoms: C_2  and  C_4
REMARK    3  A    between atoms: C_5  and  C_41
REMARK    4  A    between atoms: C_7  and  O_8
REMARK    5  A    between atoms: O_8  and  C_9
REMARK    6  A    between atoms: C_10  and  N_11
REMARK    7  A    between atoms: C_12  and  C_14
REMARK    8  A    between atoms: C_16  and  N_20
REMARK    9  A    between atoms: C_24  and  N_25
REMARK   10  A    between atoms: C_26  and  C_28
REMARK   11  A    between atoms: C_30  and  N_34
REMARK   12  A    between atoms: C_41  and  O_42
REMARK                            x       y       z     vdW  Elec       q    Type
REMARK                         _______ _______ _______ _____ _____    ______ ____
ROOT
ATOM      1  C   UNL     1       7.166  -2.874  22.933  0.00  0.00    +0.150 A 
ATOM      2  C   UNL     1       8.310  -2.408  22.260  0.00  0.00    +0.050 A 
ATOM      3  C   UNL     1       8.680  -1.043  22.290  0.00  0.00    +0.027 A 
ATOM      4  C   UNL     1       7.981  -0.143  23.090  0.00  0.00    +0.036 A 
ATOM      5  C   UNL     1       6.943  -0.654  23.861  0.00  0.00    +0.050 A 
ATOM      6  C   UNL     1       6.463  -1.962  23.722  0.00  0.00    +0.078 A 
ENDROOT
BRANCH   4   7
ATOM      7  N   UNL     1       8.284   1.247  23.073  0.00  0.00    -0.281 N 
ATOM      8  H   UNL     1       7.553   1.867  22.751  0.00  0.00    +0.155 HD
ATOM      9  C   UNL     1       9.404   1.805  23.686  0.00  0.00    +0.248 C 
ATOM     10  O   UNL     1      10.329   1.214  24.235  0.00  0.00    -0.270 OA
BRANCH   9  11
ATOM     11  C   UNL     1       9.522   3.278  23.722  0.00  0.00    +0.043 A 
ATOM     12  C   UNL     1       8.421   4.115  23.542  0.00  0.00    +0.013 A 
ATOM     13  C   UNL     1       8.620   5.495  23.424  0.00  0.00    +0.007 A 
ATOM     14  C   UNL     1       9.911   6.035  23.483  0.00  0.00    +0.084 A 
ATOM     15  C   UNL     1      11.012   5.186  23.664  0.00  0.00    +0.274 A 
ATOM     16  C   UNL     1      10.823   3.811  23.782  0.00  0.00    +0.097 A 
BRANCH  15  17
ATOM     17  N   UNL     1      12.371   5.744  23.700  0.00  0.00    +0.080 N 
ATOM     18  O   UNL     1      13.093   5.563  22.711  0.00  0.00    +0.041 OA
ATOM     19  O   UNL     1      12.714   6.370  24.713  0.00  0.00    -0.576 OA
ENDBRANCH  15  17
ENDBRANCH   9  11
ENDBRANCH   4   7
BRANCH   6  20
ATOM     20  N   UNL     1       5.258  -2.275  24.386  0.00  0.00    -0.278 N 
ATOM     21  H   UNL     1       4.402  -2.291  23.846  0.00  0.00    +0.155 HD
ATOM     22  C   UNL     1       5.160  -2.139  25.773  0.00  0.00    +0.249 C 
ATOM     23  O   UNL     1       5.937  -1.519  26.491  0.00  0.00    -0.270 OA
BRANCH  22  24
ATOM     24  C   UNL     1       3.979  -2.758  26.415  0.00  0.00    +0.043 A 
ATOM     25  C   UNL     1       2.804  -2.891  25.658  0.00  0.00    +0.013 A 
ATOM     26  C   UNL     1       1.684  -3.517  26.204  0.00  0.00    +0.007 A 
ATOM     27  C   UNL     1       1.734  -4.005  27.509  0.00  0.00    +0.084 A 
ATOM     28  C   UNL     1       2.895  -3.818  28.280  0.00  0.00    +0.274 A 
ATOM     29  C   UNL     1       4.014  -3.173  27.745  0.00  0.00    +0.097 A 
BRANCH  28  30
ATOM     30  N   UNL     1       2.957  -4.347  29.646  0.00  0.00    +0.080 N 
ATOM     31  O   UNL     1       2.208  -5.288  29.939  0.00  0.00    +0.041 OA
ATOM     32  O   UNL     1       3.794  -3.850  30.414  0.00  0.00    -0.576 OA
ENDBRANCH  28  30
ENDBRANCH  22  24
ENDBRANCH   6  20
BRANCH   1  33
ATOM     33  O   UNL     1       6.700  -4.177  22.831  0.00  0.00    -0.454 OA
BRANCH  33  37
ATOM     34  C   UNL     1       5.330  -6.269  26.232  0.00  0.00    +0.073 A 
ATOM     35  C   UNL     1       6.619  -5.693  26.184  0.00  0.00    +0.019 A 
ATOM     36  C   UNL     1       7.078  -5.009  25.041  0.00  0.00    +0.047 A 
ATOM     37  C   UNL     1       6.223  -4.813  23.964  0.00  0.00    +0.129 A 
ATOM     38  C   UNL     1       4.922  -5.304  24.046  0.00  0.00    +0.062 A 
ATOM     39  C   UNL     1       4.518  -6.179  25.080  0.00  0.00    +0.076 A 
BRANCH  34  40
ATOM     40  C   UNL     1       4.879  -6.943  27.478  0.00  0.00    +0.338 C 
ATOM     41  O   UNL     1       5.651  -7.435  28.284  0.00  0.00    -0.245 OA
BRANCH  40  42
ATOM     42  O   UNL     1       3.546  -7.077  27.635  0.00  0.00    -0.477 OA
ATOM     43  H   UNL     1       2.964  -6.622  26.999  0.00  0.00    +0.295 HD
ENDBRANCH  40  42
ENDBRANCH  34  40
BRANCH  39  44
ATOM     44  C   UNL     1       3.403  -7.074  24.640  0.00  0.00    +0.338 C 
ATOM     45  O   UNL     1       3.491  -8.277  24.863  0.00  0.00    -0.245 OA
BRANCH  44  46
ATOM     46  O   UNL     1       2.322  -6.587  24.025  0.00  0.00    -0.477 OA
ATOM     47  H   UNL     1       1.516  -6.442  24.570  0.00  0.00    +0.295 HD
ENDBRANCH  44  46
ENDBRANCH  39  44
ENDBRANCH  33  37
ENDBRANCH   1  33
TORSDOF 12
ENDMDL
MODEL 7
REMARK VINA RESULT:      -7.0      2.290      3.102
REMARK  Name = 
REMARK  12 active torsions:
REMARK  status: ('A' for Active; 'I' for Inactive)
REMARK    1  A    between atoms: O_1  and  C_2
REMARK    2  A    between atoms: C_2  and  C_4
REMARK    3  A    between atoms: C_5  and  C_41
REMARK    4  A    between atoms: C_7  and  O_8
REMARK    5  A    between atoms: O_8  and  C_9
REMARK    6  A    between atoms: C_10  and  N_11
REMARK    7  A    between atoms: C_12  and  C_14
REMARK    8  A    between atoms: C_16  and  N_20
REMARK    9  A    between atoms: C_24  and  N_25
REMARK   10  A    between atoms: C_26  and  C_28
REMARK   11  A    between atoms: C_30  and  N_34
REMARK   12  A    between atoms: C_41  and  O_42
REMARK                            x       y       z     vdW  Elec       q    Type
REMARK                         _______ _______ _______ _____ _____    ______ ____
ROOT
ATOM      1  C   UNL     1       6.942  -3.271  22.868  0.00  0.00    +0.150 A 
ATOM      2  C   UNL     1       8.142  -2.911  22.228  0.00  0.00    +0.050 A 
ATOM      3  C   UNL     1       8.635  -1.586  22.275  0.00  0.00    +0.027 A 
ATOM      4  C   UNL     1       7.999  -0.627  23.060  0.00  0.00    +0.036 A 
ATOM      5  C   UNL     1       6.899  -1.043  23.800  0.00  0.00    +0.050 A 
ATOM      6  C   UNL     1       6.305  -2.300  23.642  0.00  0.00    +0.078 A 
ENDROOT
BRANCH   4   7
ATOM      7  N   UNL     1       8.429   0.729  23.058  0.00  0.00    -0.281 N 
ATOM      8  H   UNL     1       7.793   1.406  22.661  0.00  0.00    +0.155 HD
ATOM      9  C   UNL     1       9.533   1.195  23.769  0.00  0.00    +0.248 C 
ATOM     10  O   UNL     1      10.344   0.533  24.410  0.00  0.00    -0.270 OA
BRANCH   9  11
ATOM     11  C   UNL     1       9.783   2.651  23.801  0.00  0.00    +0.043 A 
ATOM     12  C   UNL     1      10.938   3.218  23.262  0.00  0.00    +0.013 A 
ATOM     13  C   UNL     1      11.194   4.578  23.467  0.00  0.00    +0.007 A 
ATOM     14  C   UNL     1      10.304   5.367  24.205  0.00  0.00    +0.084 A 
ATOM     15  C   UNL     1       9.145   4.789  24.743  0.00  0.00    +0.274 A 
ATOM     16  C   UNL     1       8.882   3.435  24.546  0.00  0.00    +0.097 A 
BRANCH  15  17
ATOM     17  N   UNL     1       8.220   5.605  25.542  0.00  0.00    +0.080 N 
ATOM     18  O   UNL     1       8.641   6.076  26.607  0.00  0.00    +0.041 OA
ATOM     19  O   UNL     1       7.076   5.784  25.101  0.00  0.00    -0.576 OA
ENDBRANCH  15  17
ENDBRANCH   9  11
ENDBRANCH   4   7
BRANCH   6  20
ATOM     20  N   UNL     1       5.057  -2.503  24.271  0.00  0.00    -0.278 N 
ATOM     21  H   UNL     1       4.218  -2.414  23.713  0.00  0.00    +0.155 HD
ATOM     22  C   UNL     1       4.942  -2.394  25.660  0.00  0.00    +0.249 C 
ATOM     23  O   UNL     1       5.762  -1.878  26.411  0.00  0.00    -0.270 OA
BRANCH  22  24
ATOM     24  C   UNL     1       3.688  -2.902  26.258  0.00  0.00    +0.043 A 
ATOM     25  C   UNL     1       2.589  -3.125  25.413  0.00  0.00    +0.013 A 
ATOM     26  C   UNL     1       1.405  -3.654  25.925  0.00  0.00    +0.007 A 
ATOM     27  C   UNL     1       1.314  -3.955  27.283  0.00  0.00    +0.084 A 
ATOM     28  C   UNL     1       2.398  -3.677  28.134  0.00  0.00    +0.274 A 
ATOM     29  C   UNL     1       3.581  -3.127  27.629  0.00  0.00    +0.097 A 
BRANCH  28  30
ATOM     30  N   UNL     1       2.312  -4.010  29.559  0.00  0.00    +0.080 N 
ATOM     31  O   UNL     1       3.270  -4.600  30.076  0.00  0.00    +0.041 OA
ATOM     32  O   UNL     1       1.303  -3.635  30.174  0.00  0.00    -0.576 OA
ENDBRANCH  28  30
ENDBRANCH  22  24
ENDBRANCH   6  20
BRANCH   1  33
ATOM     33  O   UNL     1       6.361  -4.526  22.747  0.00  0.00    -0.454 OA
BRANCH  33  37
ATOM     34  C   UNL     1       5.004  -6.402  26.276  0.00  0.00    +0.073 A 
ATOM     35  C   UNL     1       4.225  -6.385  25.098  0.00  0.00    +0.019 A 
ATOM     36  C   UNL     1       4.675  -5.744  23.928  0.00  0.00    +0.047 A 
ATOM     37  C   UNL     1       5.948  -5.190  23.889  0.00  0.00    +0.129 A 
ATOM     38  C   UNL     1       6.752  -5.285  25.022  0.00  0.00    +0.062 A 
ATOM     39  C   UNL     1       6.241  -5.721  26.266  0.00  0.00    +0.076 A 
BRANCH  34  40
ATOM     40  C   UNL     1       4.501  -7.129  27.472  0.00  0.00    +0.338 C 
ATOM     41  O   UNL     1       3.341  -7.072  27.845  0.00  0.00    -0.245 OA
BRANCH  40  42
ATOM     42  O   UNL     1       5.424  -7.792  28.199  0.00  0.00    -0.477 OA
ATOM     43  H   UNL     1       6.252  -8.054  27.756  0.00  0.00    +0.295 HD
ENDBRANCH  40  42
ENDBRANCH  34  40
BRANCH  39  44
ATOM     44  C   UNL     1       7.003  -5.131  27.411  0.00  0.00    +0.338 C 
ATOM     45  O   UNL     1       8.170  -4.800  27.232  0.00  0.00    -0.245 OA
BRANCH  44  46
ATOM     46  O   UNL     1       6.435  -4.953  28.607  0.00  0.00    -0.477 OA
ATOM     47  H   UNL     1       5.456  -5.034  28.660  0.00  0.00    +0.295 HD
ENDBRANCH  44  46
ENDBRANCH  39  44
ENDBRANCH  33  37
ENDBRANCH   1  33
TORSDOF 12
ENDMDL
MODEL 8
REMARK VINA RESULT:      -6.5      3.027     10.123
REMARK  Name = 
REMARK  12 active torsions:
REMARK  status: ('A' for Active; 'I' for Inactive)
REMARK    1  A    between atoms: O_1  and  C_2
REMARK    2  A    between atoms: C_2  and  C_4
REMARK    3  A    between atoms: C_5  and  C_41
REMARK    4  A    between atoms: C_7  and  O_8
REMARK    5  A    between atoms: O_8  and  C_9
REMARK    6  A    between atoms: C_10  and  N_11
REMARK    7  A    between atoms: C_12  and  C_14
REMARK    8  A    between atoms: C_16  and  N_20
REMARK    9  A    between atoms: C_24  and  N_25
REMARK   10  A    between atoms: C_26  and  C_28
REMARK   11  A    between atoms: C_30  and  N_34
REMARK   12  A    between atoms: C_41  and  O_42
REMARK                            x       y       z     vdW  Elec       q    Type
REMARK                         _______ _______ _______ _____ _____    ______ ____
ROOT
ATOM      1  C   UNL     1       9.410   0.307  24.068  0.00  0.00    +0.150 A 
ATOM      2  C   UNL     1       9.780  -0.920  23.490  0.00  0.00    +0.050 A 
ATOM      3  C   UNL     1       9.145  -2.131  23.856  0.00  0.00    +0.027 A 
ATOM      4  C   UNL     1       8.050  -2.117  24.716  0.00  0.00    +0.036 A 
ATOM      5  C   UNL     1       7.608  -0.876  25.160  0.00  0.00    +0.050 A 
ATOM      6  C   UNL     1       8.319   0.310  24.939  0.00  0.00    +0.078 A 
ENDROOT
BRANCH   4   7
ATOM      7  N   UNL     1       7.447  -3.326  25.160  0.00  0.00    -0.281 N 
ATOM      8  H   UNL     1       7.530  -3.540  26.144  0.00  0.00    +0.155 HD
ATOM      9  C   UNL     1       6.567  -4.085  24.390  0.00  0.00    +0.248 C 
ATOM     10  O   UNL     1       6.251  -3.903  23.218  0.00  0.00    -0.270 OA
BRANCH   9  11
ATOM     11  C   UNL     1       5.897  -5.239  25.024  0.00  0.00    +0.043 A 
ATOM     12  C   UNL     1       4.946  -6.007  24.351  0.00  0.00    +0.013 A 
ATOM     13  C   UNL     1       4.229  -6.981  25.053  0.00  0.00    +0.007 A 
ATOM     14  C   UNL     1       4.458  -7.187  26.419  0.00  0.00    +0.084 A 
ATOM     15  C   UNL     1       5.415  -6.411  27.088  0.00  0.00    +0.274 A 
ATOM     16  C   UNL     1       6.134  -5.437  26.397  0.00  0.00    +0.097 A 
BRANCH  15  17
ATOM     17  N   UNL     1       5.641  -6.604  28.527  0.00  0.00    +0.080 N 
ATOM     18  O   UNL     1       4.929  -7.428  29.115  0.00  0.00    +0.041 OA
ATOM     19  O   UNL     1       6.535  -5.939  29.068  0.00  0.00    -0.576 OA
ENDBRANCH  15  17
ENDBRANCH   9  11
ENDBRANCH   4   7
BRANCH   6  20
ATOM     20  N   UNL     1       7.892   1.454  25.647  0.00  0.00    -0.278 N 
ATOM     21  H   UNL     1       8.402   1.723  26.478  0.00  0.00    +0.155 HD
ATOM     22  C   UNL     1       6.591   1.938  25.486  0.00  0.00    +0.249 C 
ATOM     23  O   UNL     1       5.655   1.329  24.980  0.00  0.00    -0.270 OA
BRANCH  22  24
ATOM     24  C   UNL     1       6.319   3.288  26.027  0.00  0.00    +0.043 A 
ATOM     25  C   UNL     1       7.234   3.837  26.939  0.00  0.00    +0.013 A 
ATOM     26  C   UNL     1       7.046   5.127  27.433  0.00  0.00    +0.007 A 
ATOM     27  C   UNL     1       5.940   5.869  27.021  0.00  0.00    +0.084 A 
ATOM     28  C   UNL     1       4.998   5.294  26.151  0.00  0.00    +0.274 A 
ATOM     29  C   UNL     1       5.170   3.992  25.669  0.00  0.00    +0.097 A 
BRANCH  28  30
ATOM     30  N   UNL     1       3.844   6.078  25.701  0.00  0.00    +0.080 N 
ATOM     31  O   UNL     1       3.990   6.815  24.718  0.00  0.00    +0.041 OA
ATOM     32  O   UNL     1       2.773   5.917  26.305  0.00  0.00    -0.576 OA
ENDBRANCH  28  30
ENDBRANCH  22  24
ENDBRANCH   6  20
BRANCH   1  33
ATOM     33  O   UNL     1      10.086   1.496  23.830  0.00  0.00    -0.454 OA
BRANCH  33  37
ATOM     34  C   UNL     1       7.974   5.020  22.860  0.00  0.00    +0.073 A 
ATOM     35  C   UNL     1       7.686   3.786  22.235  0.00  0.00    +0.019 A 
ATOM     36  C   UNL     1       8.404   2.617  22.550  0.00  0.00    +0.047 A 
ATOM     37  C   UNL     1       9.358   2.642  23.559  0.00  0.00    +0.129 A 
ATOM     38  C   UNL     1       9.581   3.838  24.237  0.00  0.00    +0.062 A 
ATOM     39  C   UNL     1       9.037   5.064  23.788  0.00  0.00    +0.076 A 
BRANCH  34  40
ATOM     40  C   UNL     1       7.158   6.217  22.520  0.00  0.00    +0.338 C 
ATOM     41  O   UNL     1       7.088   6.675  21.393  0.00  0.00    -0.245 OA
BRANCH  40  42
ATOM     42  O   UNL     1       6.562   6.844  23.555  0.00  0.00    -0.477 OA
ATOM     43  H   UNL     1       7.015   6.832  24.418  0.00  0.00    +0.295 HD
ENDBRANCH  40  42
ENDBRANCH  34  40
BRANCH  39  44
ATOM     44  C   UNL     1       9.889   6.225  24.193  0.00  0.00    +0.338 C 
ATOM     45  O   UNL     1       9.389   7.108  24.884  0.00  0.00    -0.245 OA
BRANCH  44  46
ATOM     46  O   UNL     1      11.171   6.309  23.828  0.00  0.00    -0.477 OA
ATOM     47  H   UNL     1      11.561   7.208  23.749  0.00  0.00    +0.295 HD
ENDBRANCH  44  46
ENDBRANCH  39  44
ENDBRANCH  33  37
ENDBRANCH   1  33
TORSDOF 12
ENDMDL
MODEL 9
REMARK VINA RESULT:      -6.4      2.324      5.261
REMARK  Name = 
REMARK  12 active torsions:
REMARK  status: ('A' for Active; 'I' for Inactive)
REMARK    1  A    between atoms: O_1  and  C_2
REMARK    2  A    between atoms: C_2  and  C_4
REMARK    3  A    between atoms: C_5  and  C_41
REMARK    4  A    between atoms: C_7  and  O_8
REMARK    5  A    between atoms: O_8  and  C_9
REMARK    6  A    between atoms: C_10  and  N_11
REMARK    7  A    between atoms: C_12  and  C_14
REMARK    8  A    between atoms: C_16  and  N_20
REMARK    9  A    between atoms: C_24  and  N_25
REMARK   10  A    between atoms: C_26  and  C_28
REMARK   11  A    between atoms: C_30  and  N_34
REMARK   12  A    between atoms: C_41  and  O_42
REMARK                            x       y       z     vdW  Elec       q    Type
REMARK                         _______ _______ _______ _____ _____    ______ ____
ROOT
ATOM      1  C   UNL     1       4.035  -0.160  26.626  0.00  0.00    +0.150 A 
ATOM      2  C   UNL     1       3.887   1.052  27.323  0.00  0.00    +0.050 A 
ATOM      3  C   UNL     1       4.860   2.076  27.239  0.00  0.00    +0.027 A 
ATOM      4  C   UNL     1       5.937   1.951  26.365  0.00  0.00    +0.036 A 
ATOM      5  C   UNL     1       5.984   0.808  25.577  0.00  0.00    +0.050 A 
ATOM      6  C   UNL     1       5.124  -0.281  25.762  0.00  0.00    +0.078 A 
ENDROOT
BRANCH   4   7
ATOM      7  N   UNL     1       6.969   2.930  26.324  0.00  0.00    -0.281 N 
ATOM      8  H   UNL     1       7.821   2.712  26.821  0.00  0.00    +0.155 HD
ATOM      9  C   UNL     1       6.967   4.026  25.463  0.00  0.00    +0.248 C 
ATOM     10  O   UNL     1       6.072   4.375  24.698  0.00  0.00    -0.270 OA
BRANCH   9  11
ATOM     11  C   UNL     1       8.169   4.883  25.417  0.00  0.00    +0.043 A 
ATOM     12  C   UNL     1       8.216   6.131  26.041  0.00  0.00    +0.013 A 
ATOM     13  C   UNL     1       9.318   6.964  25.825  0.00  0.00    +0.007 A 
ATOM     14  C   UNL     1      10.367   6.556  24.992  0.00  0.00    +0.084 A 
ATOM     15  C   UNL     1      10.312   5.302  24.369  0.00  0.00    +0.274 A 
ATOM     16  C   UNL     1       9.218   4.464  24.577  0.00  0.00    +0.097 A 
BRANCH  15  17
ATOM     17  N   UNL     1      11.397   4.879  23.473  0.00  0.00    +0.080 N 
ATOM     18  O   UNL     1      12.153   5.755  23.033  0.00  0.00    +0.041 OA
ATOM     19  O   UNL     1      11.499   3.672  23.215  0.00  0.00    -0.576 OA
ENDBRANCH  15  17
ENDBRANCH   9  11
ENDBRANCH   4   7
BRANCH   6  20
ATOM     20  N   UNL     1       5.434  -1.468  25.063  0.00  0.00    -0.278 N 
ATOM     21  H   UNL     1       4.725  -1.872  24.465  0.00  0.00    +0.155 HD
ATOM     22  C   UNL     1       6.480  -2.289  25.495  0.00  0.00    +0.249 C 
ATOM     23  O   UNL     1       7.025  -2.241  26.592  0.00  0.00    -0.270 OA
BRANCH  22  24
ATOM     24  C   UNL     1       6.923  -3.341  24.554  0.00  0.00    +0.043 A 
ATOM     25  C   UNL     1       7.967  -4.193  24.950  0.00  0.00    +0.013 A 
ATOM     26  C   UNL     1       8.380  -5.232  24.118  0.00  0.00    +0.007 A 
ATOM     27  C   UNL     1       7.755  -5.419  22.886  0.00  0.00    +0.084 A 
ATOM     28  C   UNL     1       6.749  -4.529  22.470  0.00  0.00    +0.274 A 
ATOM     29  C   UNL     1       6.345  -3.472  23.292  0.00  0.00    +0.097 A 
BRANCH  28  30
ATOM     30  N   UNL     1       6.078  -4.734  21.184  0.00  0.00    +0.080 N 
ATOM     31  O   UNL     1       5.665  -3.736  20.579  0.00  0.00    +0.041 OA
ATOM     32  O   UNL     1       6.009  -5.895  20.753  0.00  0.00    -0.576 OA
ENDBRANCH  28  30
ENDBRANCH  22  24
ENDBRANCH   6  20
BRANCH   1  33
ATOM     33  O   UNL     1       3.168  -1.235  26.774  0.00  0.00    -0.454 OA
BRANCH  33  37
ATOM     34  C   UNL     1       4.637  -4.587  28.876  0.00  0.00    +0.073 A 
ATOM     35  C   UNL     1       4.477  -3.331  29.502  0.00  0.00    +0.019 A 
ATOM     36  C   UNL     1       4.002  -2.211  28.792  0.00  0.00    +0.047 A 
ATOM     37  C   UNL     1       3.593  -2.351  27.472  0.00  0.00    +0.129 A 
ATOM     38  C   UNL     1       3.668  -3.611  26.881  0.00  0.00    +0.062 A 
ATOM     39  C   UNL     1       4.346  -4.687  27.498  0.00  0.00    +0.076 A 
BRANCH  34  40
ATOM     40  C   UNL     1       5.104  -5.748  29.681  0.00  0.00    +0.338 C 
ATOM     41  O   UNL     1       6.112  -5.719  30.367  0.00  0.00    -0.245 OA
BRANCH  40  42
ATOM     42  O   UNL     1       4.401  -6.891  29.542  0.00  0.00    -0.477 OA
ATOM     43  H   UNL     1       4.713  -7.680  30.021  0.00  0.00    +0.295 HD
ENDBRANCH  40  42
ENDBRANCH  34  40
BRANCH  39  44
ATOM     44  C   UNL     1       4.878  -5.654  26.488  0.00  0.00    +0.338 C 
ATOM     45  O   UNL     1       4.396  -5.650  25.360  0.00  0.00    -0.245 OA
BRANCH  44  46
ATOM     46  O   UNL     1       5.864  -6.503  26.790  0.00  0.00    -0.477 OA
ATOM     47  H   UNL     1       5.750  -7.443  26.524  0.00  0.00    +0.295 HD
ENDBRANCH  44  46
ENDBRANCH  39  44
ENDBRANCH  33  37
ENDBRANCH   1  33
TORSDOF 12
ENDMDL
