MODEL 1
REMARK VINA RESULT:      -6.4      0.000      0.000
REMARK  Name = 
REMARK  8 active torsions:
REMARK  status: ('A' for Active; 'I' for Inactive)
REMARK    1  A    between atoms: C_1  and  O_2
REMARK    2  A    between atoms: O_2  and  C_3
REMARK    3  A    between atoms: C_5  and  C_11
REMARK    4  A    between atoms: C_7  and  O_8
REMARK    5  A    between atoms: O_8  and  C_9
REMARK    6  A    between atoms: C_13  and  C_20
REMARK    7  A    between atoms: C_14  and  C_15
REMARK    8  A    between atoms: C_15  and  N_16
REMARK                            x       y       z     vdW  Elec       q    Type
REMARK                         _______ _______ _______ _____ _____    ______ ____
ROOT
ATOM      1  C   UNL     1       8.075  -0.929  23.852  0.00  0.00    +0.163 A 
ATOM      2  N   UNL     1       9.350  -0.574  24.007  0.00  0.00    -0.213 NA
ATOM      3  C   UNL     1       9.610   0.710  24.229  0.00  0.00    +0.125 A 
ATOM      4  N   UNL     1      10.968   0.948  24.442  0.00  0.00    -0.343 N 
ATOM      5  H   UNL     1      11.478   0.106  24.194  0.00  0.00    +0.144 HD
ATOM      6  H   UNL     1      11.261   1.767  23.907  0.00  0.00    +0.144 HD
ATOM      7  C   UNL     1       8.640   1.714  24.298  0.00  0.00    +0.032 A 
ATOM      8  C   UNL     1       7.311   1.265  24.156  0.00  0.00    +0.082 A 
ATOM      9  N   UNL     1       7.046  -0.063  23.934  0.00  0.00    -0.227 NA
ENDROOT
BRANCH   8  10
ATOM     10  C   UNL     1       6.053   2.111  24.052  0.00  0.00    +0.019 A 
ATOM     11  C   UNL     1       5.659   2.995  23.017  0.00  0.00    +0.052 A 
ATOM     12 CL   UNL     1       6.708   3.571  21.769  0.00  0.00    -0.083 Cl
ATOM     13  C   UNL     1       4.397   3.631  23.008  0.00  0.00    +0.040 A 
ATOM     14  C   UNL     1       3.544   3.521  24.094  0.00  0.00    +0.042 A 
ATOM     15 CL   UNL     1       2.046   4.365  24.107  0.00  0.00    -0.083 Cl
ATOM     16  C   UNL     1       3.932   2.766  25.185  0.00  0.00    +0.021 A 
ATOM     17  C   UNL     1       5.147   2.062  25.148  0.00  0.00    +0.013 A 
ENDBRANCH   8  10
BRANCH   1  22
ATOM     18  C   UNL     1       6.665  -4.141  22.352  0.00  0.00    +0.124 A 
ATOM     19  C   UNL     1       7.450  -5.115  22.978  0.00  0.00    +0.091 A 
ATOM     20  C   UNL     1       8.418  -4.740  23.897  0.00  0.00    +0.124 A 
ATOM     21  C   UNL     1       8.598  -3.378  24.172  0.00  0.00    +0.057 A 
ATOM     22  C   UNL     1       7.838  -2.364  23.544  0.00  0.00    +0.026 A 
ATOM     23  C   UNL     1       6.866  -2.778  22.620  0.00  0.00    +0.057 A 
BRANCH  18  25
ATOM     24  C   UNL     1       6.131  -5.832  20.793  0.00  0.00    +0.277 C 
ATOM     25  O   UNL     1       5.752  -4.629  21.452  0.00  0.00    -0.495 OA
ENDBRANCH  18  25
BRANCH  20  26
ATOM     26  O   UNL     1       9.245  -5.580  24.594  0.00  0.00    -0.495 OA
ATOM     27  C   UNL     1       9.707  -5.132  25.863  0.00  0.00    +0.277 C 
ENDBRANCH  20  26
ENDBRANCH   1  22
BRANCH   7  28
ATOM     28  C   UNL     1       9.011   3.166  24.479  0.00  0.00    +0.118 C 
BRANCH  28  29
ATOM     29  N   UNL     1       9.868   3.799  23.461  0.00  0.00    -0.326 NA
ATOM     30  H   UNL     1       9.760   4.812  23.541  0.00  0.00    +0.119 HD
ATOM     31  H   UNL     1      10.838   3.631  23.764  0.00  0.00    +0.119 HD
ENDBRANCH  28  29
ENDBRANCH   7  28
TORSDOF 6
ENDMDL
MODEL 2
REMARK VINA RESULT:      -6.4      1.842      2.138
REMARK  Name = 
REMARK  8 active torsions:
REMARK  status: ('A' for Active; 'I' for Inactive)
REMARK    1  A    between atoms: C_1  and  O_2
REMARK    2  A    between atoms: O_2  and  C_3
REMARK    3  A    between atoms: C_5  and  C_11
REMARK    4  A    between atoms: C_7  and  O_8
REMARK    5  A    between atoms: O_8  and  C_9
REMARK    6  A    between atoms: C_13  and  C_20
REMARK    7  A    between atoms: C_14  and  C_15
REMARK    8  A    between atoms: C_15  and  N_16
REMARK                            x       y       z     vdW  Elec       q    Type
REMARK                         _______ _______ _______ _____ _____    ______ ____
ROOT
ATOM      1  C   UNL     1       7.943  -0.494  23.339  0.00  0.00    +0.163 A 
ATOM      2  N   UNL     1       8.714   0.074  22.413  0.00  0.00    -0.213 NA
ATOM      3  C   UNL     1       8.855   1.395  22.453  0.00  0.00    +0.125 A 
ATOM      4  N   UNL     1       9.736   1.865  21.479  0.00  0.00    -0.343 N 
ATOM      5  H   UNL     1       9.927   1.103  20.835  0.00  0.00    +0.144 HD
ATOM      6  H   UNL     1       9.335   2.686  21.022  0.00  0.00    +0.144 HD
ATOM      7  C   UNL     1       8.241   2.229  23.393  0.00  0.00    +0.032 A 
ATOM      8  C   UNL     1       7.465   1.560  24.362  0.00  0.00    +0.082 A 
ATOM      9  N   UNL     1       7.327   0.195  24.321  0.00  0.00    -0.227 NA
ENDROOT
BRANCH   8  10
ATOM     10  C   UNL     1       6.575   2.181  25.425  0.00  0.00    +0.019 A 
ATOM     11  C   UNL     1       5.260   2.690  25.296  0.00  0.00    +0.052 A 
ATOM     12 CL   UNL     1       4.483   3.028  23.789  0.00  0.00    -0.083 Cl
ATOM     13  C   UNL     1       4.511   3.136  26.409  0.00  0.00    +0.040 A 
ATOM     14  C   UNL     1       5.094   3.222  27.663  0.00  0.00    +0.042 A 
ATOM     15 CL   UNL     1       4.199   3.843  28.993  0.00  0.00    -0.083 Cl
ATOM     16  C   UNL     1       6.417   2.851  27.821  0.00  0.00    +0.021 A 
ATOM     17  C   UNL     1       7.126   2.321  26.729  0.00  0.00    +0.013 A 
ENDBRANCH   8  10
BRANCH   1  22
ATOM     18  C   UNL     1       6.654  -3.924  22.277  0.00  0.00    +0.124 A 
ATOM     19  C   UNL     1       7.488  -4.778  23.005  0.00  0.00    +0.091 A 
ATOM     20  C   UNL     1       8.451  -4.251  23.854  0.00  0.00    +0.124 A 
ATOM     21  C   UNL     1       8.575  -2.859  23.954  0.00  0.00    +0.057 A 
ATOM     22  C   UNL     1       7.764  -1.965  23.217  0.00  0.00    +0.026 A 
ATOM     23  C   UNL     1       6.800  -2.531  22.369  0.00  0.00    +0.057 A 
BRANCH  18  25
ATOM     24  C   UNL     1       6.144  -5.850  21.011  0.00  0.00    +0.277 C 
ATOM     25  O   UNL     1       5.753  -4.558  21.460  0.00  0.00    -0.495 OA
ENDBRANCH  18  25
BRANCH  20  26
ATOM     26  O   UNL     1       9.321  -4.962  24.636  0.00  0.00    -0.495 OA
ATOM     27  C   UNL     1       9.229  -4.779  26.044  0.00  0.00    +0.277 C 
ENDBRANCH  20  26
ENDBRANCH   1  22
BRANCH   7  28
ATOM     28  C   UNL     1       8.386   3.731  23.336  0.00  0.00    +0.118 C 
BRANCH  28  29
ATOM     29  N   UNL     1       7.835   4.440  22.168  0.00  0.00    -0.326 NA
ATOM     30  H   UNL     1       7.872   5.443  22.360  0.00  0.00    +0.119 HD
ATOM     31  H   UNL     1       8.518   4.310  21.409  0.00  0.00    +0.119 HD
ENDBRANCH  28  29
ENDBRANCH   7  28
TORSDOF 6
ENDMDL
MODEL 3
REMARK VINA RESULT:      -6.4      2.327      2.604
REMARK  Name = 
REMARK  8 active torsions:
REMARK  status: ('A' for Active; 'I' for Inactive)
REMARK    1  A    between atoms: C_1  and  O_2
REMARK    2  A    between atoms: O_2  and  C_3
REMARK    3  A    between atoms: C_5  and  C_11
REMARK    4  A    between atoms: C_7  and  O_8
REMARK    5  A    between atoms: O_8  and  C_9
REMARK    6  A    between atoms: C_13  and  C_20
REMARK    7  A    between atoms: C_14  and  C_15
REMARK    8  A    between atoms: C_15  and  N_16
REMARK                            x       y       z     vdW  Elec       q    Type
REMARK                         _______ _______ _______ _____ _____    ______ ____
ROOT
ATOM      1  C   UNL     1       7.450  -1.951  23.764  0.00  0.00    +0.163 A 
ATOM      2  N   UNL     1       8.480  -2.095  22.930  0.00  0.00    -0.213 NA
ATOM      3  C   UNL     1       9.207  -1.017  22.656  0.00  0.00    +0.125 A 
ATOM      4  N   UNL     1      10.293  -1.306  21.829  0.00  0.00    -0.343 N 
ATOM      5  H   UNL     1      10.174  -2.248  21.471  0.00  0.00    +0.144 HD
ATOM      6  H   UNL     1      10.359  -0.601  21.093  0.00  0.00    +0.144 HD
ATOM      7  C   UNL     1       8.959   0.258  23.173  0.00  0.00    +0.032 A 
ATOM      8  C   UNL     1       7.875   0.332  24.071  0.00  0.00    +0.082 A 
ATOM      9  N   UNL     1       7.130  -0.784  24.357  0.00  0.00    -0.227 NA
ENDROOT
BRANCH   8  10
ATOM     10  C   UNL     1       7.273   1.581  24.694  0.00  0.00    +0.019 A 
ATOM     11  C   UNL     1       6.465   2.575  24.089  0.00  0.00    +0.052 A 
ATOM     12 CL   UNL     1       6.258   2.765  22.383  0.00  0.00    -0.083 Cl
ATOM     13  C   UNL     1       5.881   3.627  24.831  0.00  0.00    +0.040 A 
ATOM     14  C   UNL     1       6.194   3.805  26.169  0.00  0.00    +0.042 A 
ATOM     15 CL   UNL     1       5.541   5.135  27.040  0.00  0.00    -0.083 Cl
ATOM     16  C   UNL     1       7.074   2.932  26.780  0.00  0.00    +0.021 A 
ATOM     17  C   UNL     1       7.578   1.835  26.060  0.00  0.00    +0.013 A 
ENDBRANCH   8  10
BRANCH   1  22
ATOM     18  C   UNL     1       4.746  -4.624  23.450  0.00  0.00    +0.124 A 
ATOM     19  C   UNL     1       5.117  -5.522  24.456  0.00  0.00    +0.091 A 
ATOM     20  C   UNL     1       6.224  -5.258  25.248  0.00  0.00    +0.124 A 
ATOM     21  C   UNL     1       6.962  -4.090  25.013  0.00  0.00    +0.057 A 
ATOM     22  C   UNL     1       6.629  -3.169  23.992  0.00  0.00    +0.026 A 
ATOM     23  C   UNL     1       5.502  -3.466  23.209  0.00  0.00    +0.057 A 
BRANCH  18  25
ATOM     24  C   UNL     1       2.551  -5.493  23.485  0.00  0.00    +0.277 C 
ATOM     25  O   UNL     1       3.645  -4.998  22.722  0.00  0.00    -0.495 OA
ENDBRANCH  18  25
BRANCH  20  26
ATOM     26  O   UNL     1       6.693  -6.035  26.273  0.00  0.00    -0.495 OA
ATOM     27  C   UNL     1       6.663  -5.474  27.581  0.00  0.00    +0.277 C 
ENDBRANCH  20  26
ENDBRANCH   1  22
BRANCH   7  28
ATOM     28  C   UNL     1       9.781   1.455  22.761  0.00  0.00    +0.118 C 
BRANCH  28  29
ATOM     29  N   UNL     1       9.602   1.989  21.400  0.00  0.00    -0.326 NA
ATOM     30  H   UNL     1       9.023   2.828  21.462  0.00  0.00    +0.119 HD
ATOM     31  H   UNL     1      10.524   2.348  21.113  0.00  0.00    +0.119 HD
ENDBRANCH  28  29
ENDBRANCH   7  28
TORSDOF 6
ENDMDL
MODEL 4
REMARK VINA RESULT:      -6.3      2.164      3.885
REMARK  Name = 
REMARK  8 active torsions:
REMARK  status: ('A' for Active; 'I' for Inactive)
REMARK    1  A    between atoms: C_1  and  O_2
REMARK    2  A    between atoms: O_2  and  C_3
REMARK    3  A    between atoms: C_5  and  C_11
REMARK    4  A    between atoms: C_7  and  O_8
REMARK    5  A    between atoms: O_8  and  C_9
REMARK    6  A    between atoms: C_13  and  C_20
REMARK    7  A    between atoms: C_14  and  C_15
REMARK    8  A    between atoms: C_15  and  N_16
REMARK                            x       y       z     vdW  Elec       q    Type
REMARK                         _______ _______ _______ _____ _____    ______ ____
ROOT
ATOM      1  C   UNL     1       6.866  -1.082  24.437  0.00  0.00    +0.163 A 
ATOM      2  N   UNL     1       5.923  -0.971  25.372  0.00  0.00    -0.213 NA
ATOM      3  C   UNL     1       5.793   0.203  25.981  0.00  0.00    +0.125 A 
ATOM      4  N   UNL     1       4.732   0.217  26.887  0.00  0.00    -0.343 N 
ATOM      5  H   UNL     1       4.414  -0.739  27.013  0.00  0.00    +0.144 HD
ATOM      6  H   UNL     1       5.032   0.659  27.758  0.00  0.00    +0.144 HD
ATOM      7  C   UNL     1       6.584   1.325  25.715  0.00  0.00    +0.032 A 
ATOM      8  C   UNL     1       7.540   1.148  24.695  0.00  0.00    +0.082 A 
ATOM      9  N   UNL     1       7.667  -0.064  24.064  0.00  0.00    -0.227 NA
ENDROOT
BRANCH   8  10
ATOM     10  C   UNL     1       8.627   2.119  24.265  0.00  0.00    +0.019 A 
ATOM     11  C   UNL     1       8.506   3.480  23.891  0.00  0.00    +0.052 A 
ATOM     12 CL   UNL     1       7.011   4.262  23.511  0.00  0.00    -0.083 Cl
ATOM     13  C   UNL     1       9.632   4.292  23.624  0.00  0.00    +0.040 A 
ATOM     14  C   UNL     1      10.903   3.743  23.583  0.00  0.00    +0.042 A 
ATOM     15 CL   UNL     1      12.256   4.724  23.177  0.00  0.00    -0.083 Cl
ATOM     16  C   UNL     1      11.065   2.392  23.822  0.00  0.00    +0.021 A 
ATOM     17  C   UNL     1       9.953   1.610  24.178  0.00  0.00    +0.013 A 
ENDBRANCH   8  10
BRANCH   1  22
ATOM     18  C   UNL     1       6.431  -4.113  22.163  0.00  0.00    +0.124 A 
ATOM     19  C   UNL     1       7.368  -5.004  22.695  0.00  0.00    +0.091 A 
ATOM     20  C   UNL     1       8.125  -4.638  23.798  0.00  0.00    +0.124 A 
ATOM     21  C   UNL     1       7.940  -3.364  24.353  0.00  0.00    +0.057 A 
ATOM     22  C   UNL     1       7.017  -2.430  23.829  0.00  0.00    +0.026 A 
ATOM     23  C   UNL     1       6.266  -2.833  22.713  0.00  0.00    +0.057 A 
BRANCH  18  25
ATOM     24  C   UNL     1       6.097  -5.896  20.652  0.00  0.00    +0.277 C 
ATOM     25  O   UNL     1       5.753  -4.579  21.064  0.00  0.00    -0.495 OA
ENDBRANCH  18  25
BRANCH  20  26
ATOM     26  O   UNL     1       9.063  -5.408  24.431  0.00  0.00    -0.495 OA
ATOM     27  C   UNL     1       9.557  -4.937  25.680  0.00  0.00    +0.277 C 
ENDBRANCH  20  26
ENDBRANCH   1  22
BRANCH   7  28
ATOM     28  C   UNL     1       6.430   2.608  26.497  0.00  0.00    +0.118 C 
BRANCH  28  29
ATOM     29  N   UNL     1       7.403   2.893  27.566  0.00  0.00    -0.326 NA
ATOM     30  H   UNL     1       6.906   3.351  28.333  0.00  0.00    +0.119 HD
ATOM     31  H   UNL     1       7.670   1.979  27.957  0.00  0.00    +0.119 HD
ENDBRANCH  28  29
ENDBRANCH   7  28
TORSDOF 6
ENDMDL
MODEL 5
REMARK VINA RESULT:      -6.3      2.340      3.477
REMARK  Name = 
REMARK  8 active torsions:
REMARK  status: ('A' for Active; 'I' for Inactive)
REMARK    1  A    between atoms: C_1  and  O_2
REMARK    2  A    between atoms: O_2  and  C_3
REMARK    3  A    between atoms: C_5  and  C_11
REMARK    4  A    between atoms: C_7  and  O_8
REMARK    5  A    between atoms: O_8  and  C_9
REMARK    6  A    between atoms: C_13  and  C_20
REMARK    7  A    between atoms: C_14  and  C_15
REMARK    8  A    between atoms: C_15  and  N_16
REMARK                            x       y       z     vdW  Elec       q    Type
REMARK                         _______ _______ _______ _____ _____    ______ ____
ROOT
ATOM      1  C   UNL     1       7.538  -2.022  23.873  0.00  0.00    +0.163 A 
ATOM      2  N   UNL     1       8.551  -2.157  23.019  0.00  0.00    -0.213 NA
ATOM      3  C   UNL     1       9.243  -1.067  22.704  0.00  0.00    +0.125 A 
ATOM      4  N   UNL     1      10.317  -1.346  21.858  0.00  0.00    -0.343 N 
ATOM      5  H   UNL     1      10.214  -2.299  21.523  0.00  0.00    +0.144 HD
ATOM      6  H   UNL     1      10.347  -0.657  21.105  0.00  0.00    +0.144 HD
ATOM      7  C   UNL     1       8.973   0.212  23.198  0.00  0.00    +0.032 A 
ATOM      8  C   UNL     1       7.908   0.279  24.120  0.00  0.00    +0.082 A 
ATOM      9  N   UNL     1       7.201  -0.850  24.448  0.00  0.00    -0.227 NA
ENDROOT
BRANCH   8  10
ATOM     10  C   UNL     1       7.288   1.525  24.730  0.00  0.00    +0.019 A 
ATOM     11  C   UNL     1       6.449   2.490  24.119  0.00  0.00    +0.052 A 
ATOM     12 CL   UNL     1       6.212   2.643  22.413  0.00  0.00    -0.083 Cl
ATOM     13  C   UNL     1       5.852   3.542  24.850  0.00  0.00    +0.040 A 
ATOM     14  C   UNL     1       6.182   3.752  26.180  0.00  0.00    +0.042 A 
ATOM     15 CL   UNL     1       5.513   5.083  27.037  0.00  0.00    -0.083 Cl
ATOM     16  C   UNL     1       7.090   2.910  26.793  0.00  0.00    +0.021 A 
ATOM     17  C   UNL     1       7.608   1.811  26.086  0.00  0.00    +0.013 A 
ENDBRANCH   8  10
BRANCH   1  22
ATOM     18  C   UNL     1       6.320  -5.284  25.431  0.00  0.00    +0.124 A 
ATOM     19  C   UNL     1       5.206  -5.578  24.638  0.00  0.00    +0.091 A 
ATOM     20  C   UNL     1       4.859  -4.739  23.590  0.00  0.00    +0.124 A 
ATOM     21  C   UNL     1       5.634  -3.596  23.354  0.00  0.00    +0.057 A 
ATOM     22  C   UNL     1       6.754  -3.255  24.147  0.00  0.00    +0.026 A 
ATOM     23  C   UNL     1       7.078  -4.126  25.199  0.00  0.00    +0.057 A 
BRANCH  18  25
ATOM     24  C   UNL     1       6.451  -5.643  27.761  0.00  0.00    +0.277 C 
ATOM     25  O   UNL     1       6.556  -6.176  26.446  0.00  0.00    -0.495 OA
ENDBRANCH  18  25
BRANCH  20  26
ATOM     26  O   UNL     1       3.811  -4.909  22.726  0.00  0.00    -0.495 OA
ATOM     27  C   UNL     1       2.695  -5.656  23.198  0.00  0.00    +0.277 C 
ENDBRANCH  20  26
ENDBRANCH   1  22
BRANCH   7  28
ATOM     28  C   UNL     1       9.754   1.421  22.741  0.00  0.00    +0.118 C 
BRANCH  28  29
ATOM     29  N   UNL     1       9.548   1.904  21.364  0.00  0.00    -0.326 NA
ATOM     30  H   UNL     1      10.221   1.430  20.759  0.00  0.00    +0.119 HD
ATOM     31  H   UNL     1       8.639   1.525  21.064  0.00  0.00    +0.119 HD
ENDBRANCH  28  29
ENDBRANCH   7  28
TORSDOF 6
ENDMDL
MODEL 6
REMARK VINA RESULT:      -6.3      1.448      2.542
REMARK  Name = 
REMARK  8 active torsions:
REMARK  status: ('A' for Active; 'I' for Inactive)
REMARK    1  A    between atoms: C_1  and  O_2
REMARK    2  A    between atoms: O_2  and  C_3
REMARK    3  A    between atoms: C_5  and  C_11
REMARK    4  A    between atoms: C_7  and  O_8
REMARK    5  A    between atoms: O_8  and  C_9
REMARK    6  A    between atoms: C_13  and  C_20
REMARK    7  A    between atoms: C_14  and  C_15
REMARK    8  A    between atoms: C_15  and  N_16
REMARK                            x       y       z     vdW  Elec       q    Type
REMARK                         _______ _______ _______ _____ _____    ______ ____
ROOT
ATOM      1  C   UNL     1       8.536  -1.181  24.791  0.00  0.00    +0.163 A 
ATOM      2  N   UNL     1       9.820  -0.827  24.802  0.00  0.00    -0.213 NA
ATOM      3  C   UNL     1      10.109   0.455  24.606  0.00  0.00    +0.125 A 
ATOM      4  N   UNL     1      11.477   0.713  24.707  0.00  0.00    -0.343 N 
ATOM      5  H   UNL     1      11.964  -0.178  24.723  0.00  0.00    +0.144 HD
ATOM      6  H   UNL     1      11.769   1.317  23.937  0.00  0.00    +0.144 HD
ATOM      7  C   UNL     1       9.159   1.455  24.379  0.00  0.00    +0.032 A 
ATOM      8  C   UNL     1       7.819   1.018  24.412  0.00  0.00    +0.082 A 
ATOM      9  N   UNL     1       7.524  -0.306  24.620  0.00  0.00    -0.227 NA
ENDROOT
BRANCH   8  10
ATOM     10  C   UNL     1       6.574   1.822  24.076  0.00  0.00    +0.019 A 
ATOM     11  C   UNL     1       6.200   2.406  22.840  0.00  0.00    +0.052 A 
ATOM     12 CL   UNL     1       7.266   2.620  21.495  0.00  0.00    -0.083 Cl
ATOM     13  C   UNL     1       4.947   3.032  22.650  0.00  0.00    +0.040 A 
ATOM     14  C   UNL     1       4.085   3.223  23.718  0.00  0.00    +0.042 A 
ATOM     15 CL   UNL     1       2.600   4.058  23.492  0.00  0.00    -0.083 Cl
ATOM     16  C   UNL     1       4.455   2.778  24.974  0.00  0.00    +0.021 A 
ATOM     17  C   UNL     1       5.660   2.075  25.136  0.00  0.00    +0.013 A 
ENDBRANCH   8  10
BRANCH   1  22
ATOM     18  C   UNL     1       7.897  -4.612  26.332  0.00  0.00    +0.124 A 
ATOM     19  C   UNL     1       7.718  -5.405  25.193  0.00  0.00    +0.091 A 
ATOM     20  C   UNL     1       7.823  -4.840  23.931  0.00  0.00    +0.124 A 
ATOM     21  C   UNL     1       8.098  -3.470  23.823  0.00  0.00    +0.057 A 
ATOM     22  C   UNL     1       8.264  -2.634  24.951  0.00  0.00    +0.026 A 
ATOM     23  C   UNL     1       8.153  -3.237  26.213  0.00  0.00    +0.057 A 
BRANCH  18  25
ATOM     24  C   UNL     1       6.414  -5.574  27.897  0.00  0.00    +0.277 C 
ATOM     25  O   UNL     1       7.754  -5.275  27.523  0.00  0.00    -0.495 OA
ENDBRANCH  18  25
BRANCH  20  26
ATOM     26  O   UNL     1       7.688  -5.494  22.736  0.00  0.00    -0.495 OA
ATOM     27  C   UNL     1       6.651  -5.053  21.866  0.00  0.00    +0.277 C 
ENDBRANCH  20  26
ENDBRANCH   1  22
BRANCH   7  28
ATOM     28  C   UNL     1       9.561   2.882  24.091  0.00  0.00    +0.118 C 
BRANCH  28  29
ATOM     29  N   UNL     1      10.466   3.135  22.957  0.00  0.00    -0.326 NA
ATOM     30  H   UNL     1      11.283   2.530  23.062  0.00  0.00    +0.119 HD
ATOM     31  H   UNL     1       9.990   2.760  22.125  0.00  0.00    +0.119 HD
ENDBRANCH  28  29
ENDBRANCH   7  28
TORSDOF 6
ENDMDL
MODEL 7
REMARK VINA RESULT:      -6.3      2.301      3.419
REMARK  Name = 
REMARK  8 active torsions:
REMARK  status: ('A' for Active; 'I' for Inactive)
REMARK    1  A    between atoms: C_1  and  O_2
REMARK    2  A    between atoms: O_2  and  C_3
REMARK    3  A    between atoms: C_5  and  C_11
REMARK    4  A    between atoms: C_7  and  O_8
REMARK    5  A    between atoms: O_8  and  C_9
REMARK    6  A    between atoms: C_13  and  C_20
REMARK    7  A    between atoms: C_14  and  C_15
REMARK    8  A    between atoms: C_15  and  N_16
REMARK                            x       y       z     vdW  Elec       q    Type
REMARK                         _______ _______ _______ _____ _____    ______ ____
ROOT
ATOM      1  C   UNL     1       7.200  -1.711  23.316  0.00  0.00    +0.163 A 
ATOM      2  N   UNL     1       8.183  -1.769  22.419  0.00  0.00    -0.213 NA
ATOM      3  C   UNL     1       8.683  -0.620  21.977  0.00  0.00    +0.125 A 
ATOM      4  N   UNL     1       9.749  -0.808  21.096  0.00  0.00    -0.343 N 
ATOM      5  H   UNL     1       9.781  -1.792  20.847  0.00  0.00    +0.144 HD
ATOM      6  H   UNL     1       9.640  -0.193  20.289  0.00  0.00    +0.144 HD
ATOM      7  C   UNL     1       8.241   0.644  22.379  0.00  0.00    +0.032 A 
ATOM      8  C   UNL     1       7.221   0.632  23.352  0.00  0.00    +0.082 A 
ATOM      9  N   UNL     1       6.711  -0.556  23.811  0.00  0.00    -0.227 NA
ENDROOT
BRANCH   8  10
ATOM     10  C   UNL     1       6.442   1.821  23.892  0.00  0.00    +0.019 A 
ATOM     11  C   UNL     1       6.505   2.414  25.177  0.00  0.00    +0.052 A 
ATOM     12 CL   UNL     1       7.257   1.689  26.555  0.00  0.00    -0.083 Cl
ATOM     13  C   UNL     1       5.797   3.594  25.499  0.00  0.00    +0.040 A 
ATOM     14  C   UNL     1       4.897   4.143  24.600  0.00  0.00    +0.042 A 
ATOM     15 CL   UNL     1       3.982   5.533  25.032  0.00  0.00    -0.083 Cl
ATOM     16  C   UNL     1       4.708   3.534  23.374  0.00  0.00    +0.021 A 
ATOM     17  C   UNL     1       5.483   2.414  23.026  0.00  0.00    +0.013 A 
ENDBRANCH   8  10
BRANCH   1  22
ATOM     18  C   UNL     1       6.625  -5.008  25.146  0.00  0.00    +0.124 A 
ATOM     19  C   UNL     1       5.480  -5.492  24.505  0.00  0.00    +0.091 A 
ATOM     20  C   UNL     1       4.905  -4.768  23.471  0.00  0.00    +0.124 A 
ATOM     21  C   UNL     1       5.484  -3.549  23.095  0.00  0.00    +0.057 A 
ATOM     22  C   UNL     1       6.629  -3.018  23.734  0.00  0.00    +0.026 A 
ATOM     23  C   UNL     1       7.186  -3.776  24.775  0.00  0.00    +0.057 A 
BRANCH  18  25
ATOM     24  C   UNL     1       6.740  -5.380  27.475  0.00  0.00    +0.277 C 
ATOM     25  O   UNL     1       7.095  -5.801  26.162  0.00  0.00    -0.495 OA
ENDBRANCH  18  25
BRANCH  20  26
ATOM     26  O   UNL     1       3.799  -5.125  22.747  0.00  0.00    -0.495 OA
ATOM     27  C   UNL     1       2.630  -5.478  23.478  0.00  0.00    +0.277 C 
ENDBRANCH  20  26
ENDBRANCH   1  22
BRANCH   7  28
ATOM     28  C   UNL     1       8.805   1.910  21.781  0.00  0.00    +0.118 C 
BRANCH  28  29
ATOM     29  N   UNL     1      10.260   2.126  21.850  0.00  0.00    -0.326 NA
ATOM     30  H   UNL     1      10.509   2.300  22.826  0.00  0.00    +0.119 HD
ATOM     31  H   UNL     1      10.692   1.214  21.646  0.00  0.00    +0.119 HD
ENDBRANCH  28  29
ENDBRANCH   7  28
TORSDOF 6
ENDMDL
MODEL 8
REMARK VINA RESULT:      -6.3      2.484      3.042
REMARK  Name = 
REMARK  8 active torsions:
REMARK  status: ('A' for Active; 'I' for Inactive)
REMARK    1  A    between atoms: C_1  and  O_2
REMARK    2  A    between atoms: O_2  and  C_3
REMARK    3  A    between atoms: C_5  and  C_11
REMARK    4  A    between atoms: C_7  and  O_8
REMARK    5  A    between atoms: O_8  and  C_9
REMARK    6  A    between atoms: C_13  and  C_20
REMARK    7  A    between atoms: C_14  and  C_15
REMARK    8  A    between atoms: C_15  and  N_16
REMARK                            x       y       z     vdW  Elec       q    Type
REMARK                         _______ _______ _______ _____ _____    ______ ____
ROOT
ATOM      1  C   UNL     1       7.144  -1.357  23.425  0.00  0.00    +0.163 A 
ATOM      2  N   UNL     1       8.226  -1.647  22.704  0.00  0.00    -0.213 NA
ATOM      3  C   UNL     1       9.141  -0.696  22.555  0.00  0.00    +0.125 A 
ATOM      4  N   UNL     1      10.255  -1.138  21.840  0.00  0.00    -0.343 N 
ATOM      5  H   UNL     1      10.029  -2.040  21.432  0.00  0.00    +0.144 HD
ATOM      6  H   UNL     1      10.516  -0.437  21.144  0.00  0.00    +0.144 HD
ATOM      7  C   UNL     1       9.043   0.590  23.094  0.00  0.00    +0.032 A 
ATOM      8  C   UNL     1       7.889   0.819  23.871  0.00  0.00    +0.082 A 
ATOM      9  N   UNL     1       6.949  -0.168  24.028  0.00  0.00    -0.227 NA
ENDROOT
BRANCH   8  10
ATOM     10  C   UNL     1       7.426   2.134  24.477  0.00  0.00    +0.019 A 
ATOM     11  C   UNL     1       6.858   3.259  23.830  0.00  0.00    +0.052 A 
ATOM     12 CL   UNL     1       6.873   3.517  22.120  0.00  0.00    -0.083 Cl
ATOM     13  C   UNL     1       6.368   4.375  24.546  0.00  0.00    +0.040 A 
ATOM     14  C   UNL     1       6.555   4.470  25.916  0.00  0.00    +0.042 A 
ATOM     15 CL   UNL     1       6.028   5.868  26.766  0.00  0.00    -0.083 Cl
ATOM     16  C   UNL     1       7.213   3.452  26.581  0.00  0.00    +0.021 A 
ATOM     17  C   UNL     1       7.615   2.305  25.876  0.00  0.00    +0.013 A 
ENDBRANCH   8  10
BRANCH   1  22
ATOM     18  C   UNL     1       5.099  -4.497  22.712  0.00  0.00    +0.124 A 
ATOM     19  C   UNL     1       4.156  -4.462  23.745  0.00  0.00    +0.091 A 
ATOM     20  C   UNL     1       4.165  -3.418  24.657  0.00  0.00    +0.124 A 
ATOM     21  C   UNL     1       5.137  -2.417  24.530  0.00  0.00    +0.057 A 
ATOM     22  C   UNL     1       6.119  -2.430  23.512  0.00  0.00    +0.026 A 
ATOM     23  C   UNL     1       6.080  -3.500  22.605  0.00  0.00    +0.057 A 
BRANCH  18  25
ATOM     24  C   UNL     1       6.197  -5.930  21.190  0.00  0.00    +0.277 C 
ATOM     25  O   UNL     1       5.002  -5.584  21.881  0.00  0.00    -0.495 OA
ENDBRANCH  18  25
BRANCH  20  26
ATOM     26  O   UNL     1       3.299  -3.247  25.703  0.00  0.00    -0.495 OA
ATOM     27  C   UNL     1       3.613  -2.231  26.649  0.00  0.00    +0.277 C 
ENDBRANCH  20  26
ENDBRANCH   1  22
BRANCH   7  28
ATOM     28  C   UNL     1      10.086   1.647  22.824  0.00  0.00    +0.118 C 
BRANCH  28  29
ATOM     29  N   UNL     1      10.143   2.243  21.478  0.00  0.00    -0.326 NA
ATOM     30  H   UNL     1       9.956   1.505  20.796  0.00  0.00    +0.119 HD
ATOM     31  H   UNL     1       9.321   2.858  21.406  0.00  0.00    +0.119 HD
ENDBRANCH  28  29
ENDBRANCH   7  28
TORSDOF 6
ENDMDL
MODEL 9
REMARK VINA RESULT:      -6.2      4.506      7.430
REMARK  Name = 
REMARK  8 active torsions:
REMARK  status: ('A' for Active; 'I' for Inactive)
REMARK    1  A    between atoms: C_1  and  O_2
REMARK    2  A    between atoms: O_2  and  C_3
REMARK    3  A    between atoms: C_5  and  C_11
REMARK    4  A    between atoms: C_7  and  O_8
REMARK    5  A    between atoms: O_8  and  C_9
REMARK    6  A    between atoms: C_13  and  C_20
REMARK    7  A    between atoms: C_14  and  C_15
REMARK    8  A    between atoms: C_15  and  N_16
REMARK                            x       y       z     vdW  Elec       q    Type
REMARK                         _______ _______ _______ _____ _____    ______ ____
ROOT
ATOM      1  C   UNL     1       9.292   2.174  23.438  0.00  0.00    +0.163 A 
ATOM      2  N   UNL     1       9.688   1.398  22.429  0.00  0.00    -0.213 NA
ATOM      3  C   UNL     1       9.097   0.215  22.293  0.00  0.00    +0.125 A 
ATOM      4  N   UNL     1       9.545  -0.475  21.166  0.00  0.00    -0.343 N 
ATOM      5  H   UNL     1      10.363   0.008  20.806  0.00  0.00    +0.144 HD
ATOM      6  H   UNL     1       9.730  -1.449  21.412  0.00  0.00    +0.144 HD
ATOM      7  C   UNL     1       8.099  -0.274  23.140  0.00  0.00    +0.032 A 
ATOM      8  C   UNL     1       7.707   0.609  24.166  0.00  0.00    +0.082 A 
ATOM      9  N   UNL     1       8.314   1.832  24.300  0.00  0.00    -0.227 NA
ENDROOT
BRANCH   8  10
ATOM     10  C   UNL     1       6.754   0.329  25.316  0.00  0.00    +0.019 A 
ATOM     11  C   UNL     1       6.932  -0.531  26.428  0.00  0.00    +0.052 A 
ATOM     12 CL   UNL     1       8.169  -1.734  26.548  0.00  0.00    -0.083 Cl
ATOM     13  C   UNL     1       5.995  -0.603  27.485  0.00  0.00    +0.040 A 
ATOM     14  C   UNL     1       4.788   0.071  27.402  0.00  0.00    +0.042 A 
ATOM     15 CL   UNL     1       3.622  -0.087  28.656  0.00  0.00    -0.083 Cl
ATOM     16  C   UNL     1       4.511   0.831  26.281  0.00  0.00    +0.021 A 
ATOM     17  C   UNL     1       5.485   0.971  25.278  0.00  0.00    +0.013 A 
ENDBRANCH   8  10
BRANCH   1  22
ATOM     18  C   UNL     1      12.046   4.814  23.418  0.00  0.00    +0.124 A 
ATOM     19  C   UNL     1      11.358   5.944  23.872  0.00  0.00    +0.091 A 
ATOM     20  C   UNL     1      10.014   5.852  24.204  0.00  0.00    +0.124 A 
ATOM     21  C   UNL     1       9.366   4.618  24.065  0.00  0.00    +0.057 A 
ATOM     22  C   UNL     1      10.024   3.459  23.589  0.00  0.00    +0.026 A 
ATOM     23  C   UNL     1      11.383   3.587  23.263  0.00  0.00    +0.057 A 
BRANCH  18  25
ATOM     24  C   UNL     1      13.593   5.787  21.924  0.00  0.00    +0.277 C 
ATOM     25  O   UNL     1      13.364   5.029  23.106  0.00  0.00    -0.495 OA
ENDBRANCH  18  25
BRANCH  20  26
ATOM     26  O   UNL     1       9.223   6.866  24.674  0.00  0.00    -0.495 OA
ATOM     27  C   UNL     1       7.854   6.563  24.917  0.00  0.00    +0.277 C 
ENDBRANCH  20  26
ENDBRANCH   1  22
BRANCH   7  28
ATOM     28  C   UNL     1       7.522  -1.659  22.970  0.00  0.00    +0.118 C 
BRANCH  28  29
ATOM     29  N   UNL     1       8.440  -2.809  23.036  0.00  0.00    -0.326 NA
ATOM     30  H   UNL     1       8.261  -3.309  23.909  0.00  0.00    +0.119 HD
ATOM     31  H   UNL     1       8.125  -3.466  22.309  0.00  0.00    +0.119 HD
ENDBRANCH  28  29
ENDBRANCH   7  28
TORSDOF 6
ENDMDL
