MODEL 1
REMARK VINA RESULT:      -7.7      0.000      0.000
REMARK  Name = 
REMARK  5 active torsions:
REMARK  status: ('A' for Active; 'I' for Inactive)
REMARK    1  A    between atoms: C_2  and  N_24
REMARK    2  A    between atoms: C_6  and  N_8
REMARK    3  A    between atoms: C_9  and  C_11
REMARK    4  A    between atoms: C_14  and  N_17
REMARK    5  A    between atoms: C_25  and  C_27
REMARK                            x       y       z     vdW  Elec       q    Type
REMARK                         _______ _______ _______ _____ _____    ______ ____
ROOT
ATOM      1  N   UNL     1       9.360  -2.562  24.128  0.00  0.00    -0.307 N 
ATOM      2  H   UNL     1       9.177  -2.002  24.956  0.00  0.00    +0.149 HD
ATOM      3  C   UNL     1       9.554  -1.877  22.944  0.00  0.00    +0.244 C 
ATOM      4  O   UNL     1       9.354  -2.353  21.833  0.00  0.00    -0.270 OA
ENDROOT
BRANCH   3   5
ATOM      5  C   UNL     1       9.934  -0.449  23.094  0.00  0.00    +0.037 A 
ATOM      6  C   UNL     1       9.770   0.424  22.022  0.00  0.00    +0.015 A 
ATOM      7  C   UNL     1      10.073   1.786  22.173  0.00  0.00    +0.027 A 
ATOM      8  C   UNL     1      10.550   2.313  23.392  0.00  0.00    +0.049 A 
ATOM      9  C   UNL     1      10.749   1.395  24.437  0.00  0.00    +0.027 A 
ATOM     10  C   UNL     1      10.449   0.033  24.296  0.00  0.00    +0.015 A 
BRANCH   8  11
ATOM     11  N   UNL     1      10.793   3.740  23.552  0.00  0.00    -0.284 N 
ATOM     12  C   UNL     1       9.735   4.612  23.921  0.00  0.00    +0.256 A 
ATOM     13  O   UNL     1       8.571   4.312  24.182  0.00  0.00    -0.267 OA
ATOM     14  C   UNL     1      10.075   6.061  24.046  0.00  0.00    +0.071 A 
ATOM     15  C   UNL     1      11.318   6.502  23.841  0.00  0.00    +0.007 A 
ATOM     16  C   UNL     1      12.346   5.579  23.463  0.00  0.00    +0.018 A 
ATOM     17  C   UNL     1      12.067   4.276  23.332  0.00  0.00    +0.095 A 
ENDBRANCH   8  11
ENDBRANCH   3   5
BRANCH   1  19
ATOM     18  C   UNL     1       7.219  -3.905  24.252  0.00  0.00    +0.093 C 
ATOM     19  C   UNL     1       8.763  -3.885  24.131  0.00  0.00    +0.093 C 
ATOM     20  C   UNL     1       9.279  -4.788  25.268  0.00  0.00    +0.024 C 
ATOM     21  C   UNL     1       8.053  -5.470  25.880  0.00  0.00    +0.004 C 
ATOM     22  C   UNL     1       6.930  -5.265  24.879  0.00  0.00    +0.024 C 
BRANCH  18  23
ATOM     23  N   UNL     1       6.588  -2.794  24.967  0.00  0.00    -0.306 N 
ATOM     24  H   UNL     1       6.330  -2.986  25.926  0.00  0.00    +0.149 HD
ATOM     25  C   UNL     1       6.178  -1.582  24.460  0.00  0.00    +0.251 C 
ATOM     26  O   UNL     1       6.353  -1.249  23.290  0.00  0.00    -0.270 OA
BRANCH  25  27
ATOM     27  C   UNL     1       5.456  -0.732  25.398  0.00  0.00    +0.075 A 
ATOM     28  S   UNL     1       5.521   0.984  25.326  0.00  0.00    -0.072 S 
ATOM     29  C   UNL     1       4.508   1.136  26.669  0.00  0.00    +0.079 A 
ATOM     30 CL   UNL     1       4.085   2.698  27.241  0.00  0.00    -0.076 Cl
ATOM     31  C   UNL     1       4.109  -0.065  27.193  0.00  0.00    +0.028 A 
ATOM     32  C   UNL     1       4.663  -1.152  26.455  0.00  0.00    +0.022 A 
ENDBRANCH  25  27
ENDBRANCH  18  23
ENDBRANCH   1  19
TORSDOF 5
ENDMDL
MODEL 2
REMARK VINA RESULT:      -7.2      2.963      8.186
REMARK  Name = 
REMARK  5 active torsions:
REMARK  status: ('A' for Active; 'I' for Inactive)
REMARK    1  A    between atoms: C_2  and  N_24
REMARK    2  A    between atoms: C_6  and  N_8
REMARK    3  A    between atoms: C_9  and  C_11
REMARK    4  A    between atoms: C_14  and  N_17
REMARK    5  A    between atoms: C_25  and  C_27
REMARK                            x       y       z     vdW  Elec       q    Type
REMARK                         _______ _______ _______ _____ _____    ______ ____
ROOT
ATOM      1  N   UNL     1       8.799  -1.602  22.939  0.00  0.00    -0.307 N 
ATOM      2  H   UNL     1       7.862  -1.210  22.888  0.00  0.00    +0.149 HD
ATOM      3  C   UNL     1       8.922  -2.840  23.539  0.00  0.00    +0.244 C 
ATOM      4  O   UNL     1       9.949  -3.250  24.065  0.00  0.00    -0.270 OA
ENDROOT
BRANCH   3   5
ATOM      5  C   UNL     1       7.671  -3.638  23.606  0.00  0.00    +0.037 A 
ATOM      6  C   UNL     1       7.592  -4.854  22.933  0.00  0.00    +0.015 A 
ATOM      7  C   UNL     1       6.435  -5.642  23.038  0.00  0.00    +0.027 A 
ATOM      8  C   UNL     1       5.327  -5.238  23.811  0.00  0.00    +0.049 A 
ATOM      9  C   UNL     1       5.422  -3.984  24.438  0.00  0.00    +0.027 A 
ATOM     10  C   UNL     1       6.573  -3.191  24.339  0.00  0.00    +0.015 A 
BRANCH   8  11
ATOM     11  N   UNL     1       4.162  -6.099  23.966  0.00  0.00    -0.284 N 
ATOM     12  C   UNL     1       4.051  -6.963  25.088  0.00  0.00    +0.256 A 
ATOM     13  O   UNL     1       4.830  -7.068  26.034  0.00  0.00    -0.267 OA
ATOM     14  C   UNL     1       2.830  -7.820  25.154  0.00  0.00    +0.071 A 
ATOM     15  C   UNL     1       1.885  -7.755  24.212  0.00  0.00    +0.007 A 
ATOM     16  C   UNL     1       2.053  -6.871  23.098  0.00  0.00    +0.018 A 
ATOM     17  C   UNL     1       3.143  -6.100  23.007  0.00  0.00    +0.095 A 
ENDBRANCH   8  11
ENDBRANCH   3   5
BRANCH   1  19
ATOM     18  C   UNL     1       9.933   0.178  24.334  0.00  0.00    +0.093 C 
ATOM     19  C   UNL     1       9.874  -0.630  23.015  0.00  0.00    +0.093 C 
ATOM     20  C   UNL     1       9.831   0.420  21.887  0.00  0.00    +0.024 C 
ATOM     21  C   UNL     1      10.077   1.780  22.543  0.00  0.00    +0.004 C 
ATOM     22  C   UNL     1      10.625   1.475  23.926  0.00  0.00    +0.024 C 
BRANCH  18  23
ATOM     23  N   UNL     1       8.671   0.397  25.043  0.00  0.00    -0.306 N 
ATOM     24  H   UNL     1       8.127   1.190  24.726  0.00  0.00    +0.149 HD
ATOM     25  C   UNL     1       8.206  -0.247  26.167  0.00  0.00    +0.251 C 
ATOM     26  O   UNL     1       8.806  -1.174  26.707  0.00  0.00    -0.270 OA
BRANCH  25  27
ATOM     27  C   UNL     1       6.969   0.291  26.720  0.00  0.00    +0.075 A 
ATOM     28  S   UNL     1       6.916   1.122  28.224  0.00  0.00    -0.072 S 
ATOM     29  C   UNL     1       5.246   1.350  28.103  0.00  0.00    +0.079 A 
ATOM     30 CL   UNL     1       4.411   2.180  29.351  0.00  0.00    -0.076 Cl
ATOM     31  C   UNL     1       4.702   0.820  26.964  0.00  0.00    +0.028 A 
ATOM     32  C   UNL     1       5.704   0.201  26.160  0.00  0.00    +0.022 A 
ENDBRANCH  25  27
ENDBRANCH  18  23
ENDBRANCH   1  19
TORSDOF 5
ENDMDL
MODEL 3
REMARK VINA RESULT:      -6.8      4.792      7.027
REMARK  Name = 
REMARK  5 active torsions:
REMARK  status: ('A' for Active; 'I' for Inactive)
REMARK    1  A    between atoms: C_2  and  N_24
REMARK    2  A    between atoms: C_6  and  N_8
REMARK    3  A    between atoms: C_9  and  C_11
REMARK    4  A    between atoms: C_14  and  N_17
REMARK    5  A    between atoms: C_25  and  C_27
REMARK                            x       y       z     vdW  Elec       q    Type
REMARK                         _______ _______ _______ _____ _____    ______ ____
ROOT
ATOM      1  N   UNL     1       5.369  -4.959  28.583  0.00  0.00    -0.307 N 
ATOM      2  H   UNL     1       4.825  -4.351  27.976  0.00  0.00    +0.149 HD
ATOM      3  C   UNL     1       6.588  -5.391  28.099  0.00  0.00    +0.244 C 
ATOM      4  O   UNL     1       7.148  -6.418  28.463  0.00  0.00    -0.270 OA
ENDROOT
BRANCH   3   5
ATOM      5  C   UNL     1       7.159  -4.571  27.000  0.00  0.00    +0.037 A 
ATOM      6  C   UNL     1       6.380  -3.586  26.399  0.00  0.00    +0.015 A 
ATOM      7  C   UNL     1       6.930  -2.767  25.400  0.00  0.00    +0.027 A 
ATOM      8  C   UNL     1       8.267  -2.911  24.972  0.00  0.00    +0.049 A 
ATOM      9  C   UNL     1       9.009  -3.946  25.566  0.00  0.00    +0.027 A 
ATOM     10  C   UNL     1       8.468  -4.767  26.564  0.00  0.00    +0.015 A 
BRANCH   8  11
ATOM     11  N   UNL     1       8.843  -2.008  23.984  0.00  0.00    -0.284 N 
ATOM     12  C   UNL     1       8.480  -2.114  22.616  0.00  0.00    +0.256 A 
ATOM     13  O   UNL     1       7.664  -2.885  22.113  0.00  0.00    -0.267 OA
ATOM     14  C   UNL     1       9.134  -1.157  21.674  0.00  0.00    +0.071 A 
ATOM     15  C   UNL     1       9.998  -0.236  22.110  0.00  0.00    +0.007 A 
ATOM     16  C   UNL     1      10.334  -0.179  23.501  0.00  0.00    +0.018 A 
ATOM     17  C   UNL     1       9.772  -1.033  24.366  0.00  0.00    +0.095 A 
ENDBRANCH   8  11
ENDBRANCH   3   5
BRANCH   1  19
ATOM     18  C   UNL     1       3.692  -6.843  28.791  0.00  0.00    +0.093 C 
ATOM     19  C   UNL     1       4.591  -5.791  29.484  0.00  0.00    +0.093 C 
ATOM     20  C   UNL     1       3.653  -4.985  30.404  0.00  0.00    +0.024 C 
ATOM     21  C   UNL     1       2.302  -5.704  30.392  0.00  0.00    +0.004 C 
ATOM     22  C   UNL     1       2.574  -7.076  29.801  0.00  0.00    +0.024 C 
BRANCH  18  23
ATOM     23  N   UNL     1       3.200  -6.525  27.449  0.00  0.00    -0.306 N 
ATOM     24  H   UNL     1       2.249  -6.179  27.407  0.00  0.00    +0.149 HD
ATOM     25  C   UNL     1       3.811  -6.769  26.240  0.00  0.00    +0.251 C 
ATOM     26  O   UNL     1       4.932  -7.261  26.142  0.00  0.00    -0.270 OA
BRANCH  25  27
ATOM     27  C   UNL     1       3.005  -6.458  25.066  0.00  0.00    +0.075 A 
ATOM     28  S   UNL     1       2.195  -7.671  24.157  0.00  0.00    -0.072 S 
ATOM     29  C   UNL     1       1.584  -6.529  23.071  0.00  0.00    +0.079 A 
ATOM     30 CL   UNL     1       0.592  -7.043  21.769  0.00  0.00    -0.076 Cl
ATOM     31  C   UNL     1       1.965  -5.245  23.355  0.00  0.00    +0.028 A 
ATOM     32  C   UNL     1       2.794  -5.204  24.515  0.00  0.00    +0.022 A 
ENDBRANCH  25  27
ENDBRANCH  18  23
ENDBRANCH   1  19
TORSDOF 5
ENDMDL
MODEL 4
REMARK VINA RESULT:      -6.5      3.272      8.399
REMARK  Name = 
REMARK  5 active torsions:
REMARK  status: ('A' for Active; 'I' for Inactive)
REMARK    1  A    between atoms: C_2  and  N_24
REMARK    2  A    between atoms: C_6  and  N_8
REMARK    3  A    between atoms: C_9  and  C_11
REMARK    4  A    between atoms: C_14  and  N_17
REMARK    5  A    between atoms: C_25  and  C_27
REMARK                            x       y       z     vdW  Elec       q    Type
REMARK                         _______ _______ _______ _____ _____    ______ ____
ROOT
ATOM      1  N   UNL     1       8.394  -1.064  23.352  0.00  0.00    -0.307 N 
ATOM      2  H   UNL     1       7.466  -0.768  23.643  0.00  0.00    +0.149 HD
ATOM      3  C   UNL     1       8.680  -2.411  23.464  0.00  0.00    +0.244 C 
ATOM      4  O   UNL     1       9.811  -2.867  23.581  0.00  0.00    -0.270 OA
ENDROOT
BRANCH   3   5
ATOM      5  C   UNL     1       7.496  -3.305  23.538  0.00  0.00    +0.037 A 
ATOM      6  C   UNL     1       7.623  -4.647  23.190  0.00  0.00    +0.015 A 
ATOM      7  C   UNL     1       6.524  -5.512  23.313  0.00  0.00    +0.027 A 
ATOM      8  C   UNL     1       5.271  -5.063  23.781  0.00  0.00    +0.049 A 
ATOM      9  C   UNL     1       5.166  -3.694  24.077  0.00  0.00    +0.027 A 
ATOM     10  C   UNL     1       6.258  -2.823  23.958  0.00  0.00    +0.015 A 
BRANCH   8  11
ATOM     11  N   UNL     1       4.162  -5.988  23.968  0.00  0.00    -0.284 N 
ATOM     12  C   UNL     1       4.126  -6.848  25.097  0.00  0.00    +0.256 A 
ATOM     13  O   UNL     1       4.932  -6.903  26.025  0.00  0.00    -0.267 OA
ATOM     14  C   UNL     1       2.958  -7.773  25.197  0.00  0.00    +0.071 A 
ATOM     15  C   UNL     1       1.989  -7.768  24.278  0.00  0.00    +0.007 A 
ATOM     16  C   UNL     1       2.079  -6.883  23.155  0.00  0.00    +0.018 A 
ATOM     17  C   UNL     1       3.122  -6.052  23.033  0.00  0.00    +0.095 A 
ENDBRANCH   8  11
ENDBRANCH   3   5
BRANCH   1  19
ATOM     18  C   UNL     1       8.995   1.244  24.195  0.00  0.00    +0.093 C 
ATOM     19  C   UNL     1       9.438  -0.069  23.505  0.00  0.00    +0.093 C 
ATOM     20  C   UNL     1      10.077   0.360  22.169  0.00  0.00    +0.024 C 
ATOM     21  C   UNL     1      10.184   1.886  22.203  0.00  0.00    +0.004 C 
ATOM     22  C   UNL     1       9.977   2.279  23.655  0.00  0.00    +0.024 C 
BRANCH  18  23
ATOM     23  N   UNL     1       7.594   1.643  24.040  0.00  0.00    -0.306 N 
ATOM     24  H   UNL     1       7.159   1.368  23.168  0.00  0.00    +0.149 HD
ATOM     25  C   UNL     1       6.847   2.458  24.860  0.00  0.00    +0.251 C 
ATOM     26  O   UNL     1       7.277   2.930  25.909  0.00  0.00    -0.270 OA
BRANCH  25  27
ATOM     27  C   UNL     1       5.515   2.779  24.364  0.00  0.00    +0.075 A 
ATOM     28  S   UNL     1       5.203   3.109  22.706  0.00  0.00    -0.072 S 
ATOM     29  C   UNL     1       3.563   3.376  23.009  0.00  0.00    +0.079 A 
ATOM     30 CL   UNL     1       2.517   3.787  21.712  0.00  0.00    -0.076 Cl
ATOM     31  C   UNL     1       3.218   3.231  24.326  0.00  0.00    +0.028 A 
ATOM     32  C   UNL     1       4.355   2.886  25.115  0.00  0.00    +0.022 A 
ENDBRANCH  25  27
ENDBRANCH  18  23
ENDBRANCH   1  19
TORSDOF 5
ENDMDL
MODEL 5
REMARK VINA RESULT:      -6.5      3.672      6.402
REMARK  Name = 
REMARK  5 active torsions:
REMARK  status: ('A' for Active; 'I' for Inactive)
REMARK    1  A    between atoms: C_2  and  N_24
REMARK    2  A    between atoms: C_6  and  N_8
REMARK    3  A    between atoms: C_9  and  C_11
REMARK    4  A    between atoms: C_14  and  N_17
REMARK    5  A    between atoms: C_25  and  C_27
REMARK                            x       y       z     vdW  Elec       q    Type
REMARK                         _______ _______ _______ _____ _____    ______ ____
ROOT
ATOM      1  N   UNL     1       5.683  -4.251  24.728  0.00  0.00    -0.307 N 
ATOM      2  H   UNL     1       5.470  -3.377  24.254  0.00  0.00    +0.149 HD
ATOM      3  C   UNL     1       6.163  -4.156  26.019  0.00  0.00    +0.244 C 
ATOM      4  O   UNL     1       6.856  -5.009  26.560  0.00  0.00    -0.270 OA
ENDROOT
BRANCH   3   5
ATOM      5  C   UNL     1       5.873  -2.873  26.710  0.00  0.00    +0.037 A 
ATOM      6  C   UNL     1       6.738  -1.793  26.552  0.00  0.00    +0.015 A 
ATOM      7  C   UNL     1       6.440  -0.561  27.154  0.00  0.00    +0.027 A 
ATOM      8  C   UNL     1       5.278  -0.373  27.931  0.00  0.00    +0.049 A 
ATOM      9  C   UNL     1       4.453  -1.496  28.109  0.00  0.00    +0.027 A 
ATOM     10  C   UNL     1       4.741  -2.730  27.511  0.00  0.00    +0.015 A 
BRANCH   8  11
ATOM     11  N   UNL     1       4.949   0.931  28.491  0.00  0.00    -0.284 N 
ATOM     12  C   UNL     1       4.140   1.843  27.762  0.00  0.00    +0.256 A 
ATOM     13  O   UNL     1       3.607   1.664  26.668  0.00  0.00    -0.267 OA
ATOM     14  C   UNL     1       3.869   3.162  28.409  0.00  0.00    +0.071 A 
ATOM     15  C   UNL     1       4.348   3.451  29.621  0.00  0.00    +0.007 A 
ATOM     16  C   UNL     1       5.166   2.497  30.308  0.00  0.00    +0.018 A 
ATOM     17  C   UNL     1       5.435   1.311  29.747  0.00  0.00    +0.095 A 
ENDBRANCH   8  11
ENDBRANCH   3   5
BRANCH   1  19
ATOM     18  C   UNL     1       7.480  -5.165  23.199  0.00  0.00    +0.093 C 
ATOM     19  C   UNL     1       6.092  -5.341  23.862  0.00  0.00    +0.093 C 
ATOM     20  C   UNL     1       5.110  -5.605  22.704  0.00  0.00    +0.024 C 
ATOM     21  C   UNL     1       5.957  -5.786  21.442  0.00  0.00    +0.004 C 
ATOM     22  C   UNL     1       7.378  -6.005  21.931  0.00  0.00    +0.024 C 
BRANCH  18  23
ATOM     23  N   UNL     1       7.934  -3.795  22.948  0.00  0.00    -0.306 N 
ATOM     24  H   UNL     1       7.614  -3.384  22.080  0.00  0.00    +0.149 HD
ATOM     25  C   UNL     1       8.845  -3.057  23.669  0.00  0.00    +0.251 C 
ATOM     26  O   UNL     1       9.375  -3.465  24.699  0.00  0.00    -0.270 OA
BRANCH  25  27
ATOM     27  C   UNL     1       9.193  -1.766  23.087  0.00  0.00    +0.075 A 
ATOM     28  S   UNL     1       9.714  -0.435  24.042  0.00  0.00    -0.072 S 
ATOM     29  C   UNL     1       9.863   0.555  22.682  0.00  0.00    +0.079 A 
ATOM     30 CL   UNL     1      10.387   2.179  22.868  0.00  0.00    -0.076 Cl
ATOM     31  C   UNL     1       9.531  -0.070  21.510  0.00  0.00    +0.028 A 
ATOM     32  C   UNL     1       9.139  -1.420  21.746  0.00  0.00    +0.022 A 
ENDBRANCH  25  27
ENDBRANCH  18  23
ENDBRANCH   1  19
TORSDOF 5
ENDMDL
MODEL 6
REMARK VINA RESULT:      -6.2      3.283      7.852
REMARK  Name = 
REMARK  5 active torsions:
REMARK  status: ('A' for Active; 'I' for Inactive)
REMARK    1  A    between atoms: C_2  and  N_24
REMARK    2  A    between atoms: C_6  and  N_8
REMARK    3  A    between atoms: C_9  and  C_11
REMARK    4  A    between atoms: C_14  and  N_17
REMARK    5  A    between atoms: C_25  and  C_27
REMARK                            x       y       z     vdW  Elec       q    Type
REMARK                         _______ _______ _______ _____ _____    ______ ____
ROOT
ATOM      1  N   UNL     1       9.034   2.296  23.972  0.00  0.00    -0.307 N 
ATOM      2  H   UNL     1       8.027   2.163  23.982  0.00  0.00    +0.149 HD
ATOM      3  C   UNL     1       9.813   1.163  24.101  0.00  0.00    +0.244 C 
ATOM      4  O   UNL     1      10.959   1.161  24.535  0.00  0.00    -0.270 OA
ENDROOT
BRANCH   3   5
ATOM      5  C   UNL     1       9.130  -0.114  23.770  0.00  0.00    +0.037 A 
ATOM      6  C   UNL     1       9.787  -1.323  23.985  0.00  0.00    +0.015 A 
ATOM      7  C   UNL     1       9.129  -2.536  23.729  0.00  0.00    +0.027 A 
ATOM      8  C   UNL     1       7.803  -2.577  23.249  0.00  0.00    +0.049 A 
ATOM      9  C   UNL     1       7.188  -1.339  22.997  0.00  0.00    +0.027 A 
ATOM     10  C   UNL     1       7.837  -0.123  23.251  0.00  0.00    +0.015 A 
BRANCH   8  11
ATOM     11  N   UNL     1       7.111  -3.844  23.055  0.00  0.00    -0.284 N 
ATOM     12  C   UNL     1       6.355  -4.419  24.111  0.00  0.00    +0.256 A 
ATOM     13  O   UNL     1       6.153  -3.951  25.231  0.00  0.00    -0.267 OA
ATOM     14  C   UNL     1       5.694  -5.727  23.825  0.00  0.00    +0.071 A 
ATOM     15  C   UNL     1       5.795  -6.308  22.627  0.00  0.00    +0.007 A 
ATOM     16  C   UNL     1       6.577  -5.687  21.600  0.00  0.00    +0.018 A 
ATOM     17  C   UNL     1       7.191  -4.520  21.832  0.00  0.00    +0.095 A 
ENDBRANCH   8  11
ENDBRANCH   3   5
BRANCH   1  19
ATOM     18  C   UNL     1       8.372   4.576  24.848  0.00  0.00    +0.093 C 
ATOM     19  C   UNL     1       9.495   3.575  24.483  0.00  0.00    +0.093 C 
ATOM     20  C   UNL     1      10.421   4.327  23.508  0.00  0.00    +0.024 C 
ATOM     21  C   UNL     1       9.951   5.784  23.490  0.00  0.00    +0.004 C 
ATOM     22  C   UNL     1       9.047   5.936  24.701  0.00  0.00    +0.024 C 
BRANCH  18  23
ATOM     23  N   UNL     1       7.114   4.473  24.104  0.00  0.00    -0.306 N 
ATOM     24  H   UNL     1       7.193   4.589  23.102  0.00  0.00    +0.149 HD
ATOM     25  C   UNL     1       5.836   4.382  24.607  0.00  0.00    +0.251 C 
ATOM     26  O   UNL     1       5.590   4.317  25.809  0.00  0.00    -0.270 OA
BRANCH  25  27
ATOM     27  C   UNL     1       4.775   4.431  23.608  0.00  0.00    +0.075 A 
ATOM     28  S   UNL     1       4.196   5.910  22.950  0.00  0.00    -0.072 S 
ATOM     29  C   UNL     1       3.068   5.104  21.985  0.00  0.00    +0.079 A 
ATOM     30 CL   UNL     1       2.033   6.007  20.956  0.00  0.00    -0.076 Cl
ATOM     31  C   UNL     1       3.095   3.743  22.130  0.00  0.00    +0.028 A 
ATOM     32  C   UNL     1       4.087   3.351  23.078  0.00  0.00    +0.022 A 
ENDBRANCH  25  27
ENDBRANCH  18  23
ENDBRANCH   1  19
TORSDOF 5
ENDMDL
MODEL 7
REMARK VINA RESULT:      -6.2      3.536      8.464
REMARK  Name = 
REMARK  5 active torsions:
REMARK  status: ('A' for Active; 'I' for Inactive)
REMARK    1  A    between atoms: C_2  and  N_24
REMARK    2  A    between atoms: C_6  and  N_8
REMARK    3  A    between atoms: C_9  and  C_11
REMARK    4  A    between atoms: C_14  and  N_17
REMARK    5  A    between atoms: C_25  and  C_27
REMARK                            x       y       z     vdW  Elec       q    Type
REMARK                         _______ _______ _______ _____ _____    ______ ____
ROOT
ATOM      1  N   UNL     1       8.297  -2.109  24.117  0.00  0.00    -0.307 N 
ATOM      2  H   UNL     1       7.592  -1.550  24.590  0.00  0.00    +0.149 HD
ATOM      3  C   UNL     1       8.497  -3.389  24.594  0.00  0.00    +0.244 C 
ATOM      4  O   UNL     1       9.540  -4.018  24.460  0.00  0.00    -0.270 OA
ENDROOT
BRANCH   3   5
ATOM      5  C   UNL     1       7.378  -3.949  25.394  0.00  0.00    +0.037 A 
ATOM      6  C   UNL     1       6.715  -5.089  24.949  0.00  0.00    +0.015 A 
ATOM      7  C   UNL     1       5.695  -5.658  25.728  0.00  0.00    +0.027 A 
ATOM      8  C   UNL     1       5.306  -5.104  26.965  0.00  0.00    +0.049 A 
ATOM      9  C   UNL     1       5.963  -3.927  27.361  0.00  0.00    +0.027 A 
ATOM     10  C   UNL     1       6.983  -3.352  26.590  0.00  0.00    +0.015 A 
BRANCH   8  11
ATOM     11  N   UNL     1       4.294  -5.747  27.793  0.00  0.00    -0.284 N 
ATOM     12  C   UNL     1       4.648  -6.812  28.663  0.00  0.00    +0.256 A 
ATOM     13  O   UNL     1       5.768  -7.278  28.863  0.00  0.00    -0.267 OA
ATOM     14  C   UNL     1       3.540  -7.419  29.461  0.00  0.00    +0.071 A 
ATOM     15  C   UNL     1       2.289  -6.962  29.371  0.00  0.00    +0.007 A 
ATOM     16  C   UNL     1       1.987  -5.889  28.471  0.00  0.00    +0.018 A 
ATOM     17  C   UNL     1       2.958  -5.334  27.734  0.00  0.00    +0.095 A 
ENDBRANCH   8  11
ENDBRANCH   3   5
BRANCH   1  19
ATOM     18  C   UNL     1       9.366   0.164  23.811  0.00  0.00    +0.093 C 
ATOM     19  C   UNL     1       9.389  -1.357  23.526  0.00  0.00    +0.093 C 
ATOM     20  C   UNL     1       9.466  -1.490  21.993  0.00  0.00    +0.024 C 
ATOM     21  C   UNL     1       9.697  -0.082  21.440  0.00  0.00    +0.004 C 
ATOM     22  C   UNL     1      10.124   0.759  22.629  0.00  0.00    +0.024 C 
BRANCH  18  23
ATOM     23  N   UNL     1       8.058   0.786  24.029  0.00  0.00    -0.306 N 
ATOM     24  H   UNL     1       7.270   0.289  23.631  0.00  0.00    +0.149 HD
ATOM     25  C   UNL     1       7.783   2.018  24.576  0.00  0.00    +0.251 C 
ATOM     26  O   UNL     1       8.652   2.763  25.023  0.00  0.00    -0.270 OA
BRANCH  25  27
ATOM     27  C   UNL     1       6.382   2.416  24.532  0.00  0.00    +0.075 A 
ATOM     28  S   UNL     1       5.581   2.815  23.064  0.00  0.00    -0.072 S 
ATOM     29  C   UNL     1       4.136   3.144  23.875  0.00  0.00    +0.079 A 
ATOM     30 CL   UNL     1       2.759   3.645  22.984  0.00  0.00    -0.076 Cl
ATOM     31  C   UNL     1       4.217   2.970  25.231  0.00  0.00    +0.028 A 
ATOM     32  C   UNL     1       5.525   2.549  25.614  0.00  0.00    +0.022 A 
ENDBRANCH  25  27
ENDBRANCH  18  23
ENDBRANCH   1  19
TORSDOF 5
ENDMDL
MODEL 8
REMARK VINA RESULT:      -6.1      2.444      7.632
REMARK  Name = 
REMARK  5 active torsions:
REMARK  status: ('A' for Active; 'I' for Inactive)
REMARK    1  A    between atoms: C_2  and  N_24
REMARK    2  A    between atoms: C_6  and  N_8
REMARK    3  A    between atoms: C_9  and  C_11
REMARK    4  A    between atoms: C_14  and  N_17
REMARK    5  A    between atoms: C_25  and  C_27
REMARK                            x       y       z     vdW  Elec       q    Type
REMARK                         _______ _______ _______ _____ _____    ______ ____
ROOT
ATOM      1  N   UNL     1       8.283   3.574  22.571  0.00  0.00    -0.307 N 
ATOM      2  H   UNL     1       7.328   3.282  22.762  0.00  0.00    +0.149 HD
ATOM      3  C   UNL     1       9.264   2.611  22.702  0.00  0.00    +0.244 C 
ATOM      4  O   UNL     1      10.441   2.856  22.938  0.00  0.00    -0.270 OA
ENDROOT
BRANCH   3   5
ATOM      5  C   UNL     1       8.785   1.206  22.639  0.00  0.00    +0.037 A 
ATOM      6  C   UNL     1       9.487   0.272  21.881  0.00  0.00    +0.015 A 
ATOM      7  C   UNL     1       9.075  -1.069  21.863  0.00  0.00    +0.027 A 
ATOM      8  C   UNL     1       7.953  -1.515  22.594  0.00  0.00    +0.049 A 
ATOM      9  C   UNL     1       7.241  -0.536  23.309  0.00  0.00    +0.027 A 
ATOM     10  C   UNL     1       7.646   0.805  23.334  0.00  0.00    +0.015 A 
BRANCH   8  11
ATOM     11  N   UNL     1       7.581  -2.922  22.620  0.00  0.00    -0.284 N 
ATOM     12  C   UNL     1       8.318  -3.847  23.406  0.00  0.00    +0.256 A 
ATOM     13  O   UNL     1       9.267  -3.608  24.152  0.00  0.00    -0.267 OA
ATOM     14  C   UNL     1       7.873  -5.272  23.358  0.00  0.00    +0.071 A 
ATOM     15  C   UNL     1       6.820  -5.644  22.626  0.00  0.00    +0.007 A 
ATOM     16  C   UNL     1       6.116  -4.670  21.845  0.00  0.00    +0.018 A 
ATOM     17  C   UNL     1       6.501  -3.388  21.861  0.00  0.00    +0.095 A 
ENDBRANCH   8  11
ENDBRANCH   3   5
BRANCH   1  19
ATOM     18  C   UNL     1       8.602   5.348  24.347  0.00  0.00    +0.093 C 
ATOM     19  C   UNL     1       8.570   4.969  22.846  0.00  0.00    +0.093 C 
ATOM     20  C   UNL     1       7.568   5.942  22.194  0.00  0.00    +0.024 C 
ATOM     21  C   UNL     1       7.205   6.979  23.259  0.00  0.00    +0.004 C 
ATOM     22  C   UNL     1       8.255   6.833  24.346  0.00  0.00    +0.024 C 
BRANCH  18  23
ATOM     23  N   UNL     1       7.764   4.561  25.254  0.00  0.00    -0.306 N 
ATOM     24  H   UNL     1       7.179   3.864  24.809  0.00  0.00    +0.149 HD
ATOM     25  C   UNL     1       7.568   4.745  26.604  0.00  0.00    +0.251 C 
ATOM     26  O   UNL     1       8.151   5.608  27.255  0.00  0.00    -0.270 OA
BRANCH  25  27
ATOM     27  C   UNL     1       6.564   3.878  27.207  0.00  0.00    +0.075 A 
ATOM     28  S   UNL     1       6.682   2.163  27.166  0.00  0.00    -0.072 S 
ATOM     29  C   UNL     1       5.223   1.986  28.000  0.00  0.00    +0.079 A 
ATOM     30 CL   UNL     1       4.637   0.414  28.359  0.00  0.00    -0.076 Cl
ATOM     31  C   UNL     1       4.625   3.176  28.317  0.00  0.00    +0.028 A 
ATOM     32  C   UNL     1       5.404   4.278  27.853  0.00  0.00    +0.022 A 
ENDBRANCH  25  27
ENDBRANCH  18  23
ENDBRANCH   1  19
TORSDOF 5
ENDMDL
MODEL 9
REMARK VINA RESULT:      -6.1      1.714      2.215
REMARK  Name = 
REMARK  5 active torsions:
REMARK  status: ('A' for Active; 'I' for Inactive)
REMARK    1  A    between atoms: C_2  and  N_24
REMARK    2  A    between atoms: C_6  and  N_8
REMARK    3  A    between atoms: C_9  and  C_11
REMARK    4  A    between atoms: C_14  and  N_17
REMARK    5  A    between atoms: C_25  and  C_27
REMARK                            x       y       z     vdW  Elec       q    Type
REMARK                         _______ _______ _______ _____ _____    ______ ____
ROOT
ATOM      1  N   UNL     1       7.981  -2.094  23.669  0.00  0.00    -0.307 N 
ATOM      2  H   UNL     1       7.354  -1.509  24.214  0.00  0.00    +0.149 HD
ATOM      3  C   UNL     1       8.792  -1.451  22.755  0.00  0.00    +0.244 C 
ATOM      4  O   UNL     1       9.260  -1.983  21.756  0.00  0.00    -0.270 OA
ENDROOT
BRANCH   3   5
ATOM      5  C   UNL     1       8.995   0.000  23.000  0.00  0.00    +0.037 A 
ATOM      6  C   UNL     1       8.674   0.541  24.242  0.00  0.00    +0.015 A 
ATOM      7  C   UNL     1       8.916   1.899  24.501  0.00  0.00    +0.027 A 
ATOM      8  C   UNL     1       9.478   2.754  23.529  0.00  0.00    +0.049 A 
ATOM      9  C   UNL     1       9.744   2.186  22.272  0.00  0.00    +0.027 A 
ATOM     10  C   UNL     1       9.506   0.831  22.005  0.00  0.00    +0.015 A 
BRANCH   8  11
ATOM     11  N   UNL     1       9.788   4.144  23.837  0.00  0.00    -0.284 N 
ATOM     12  C   UNL     1      11.117   4.628  23.717  0.00  0.00    +0.256 A 
ATOM     13  O   UNL     1      12.108   4.012  23.327  0.00  0.00    -0.267 OA
ATOM     14  C   UNL     1      11.342   6.062  24.070  0.00  0.00    +0.071 A 
ATOM     15  C   UNL     1      10.332   6.847  24.455  0.00  0.00    +0.007 A 
ATOM     16  C   UNL     1       9.012   6.304  24.566  0.00  0.00    +0.018 A 
ATOM     17  C   UNL     1       8.784   5.019  24.268  0.00  0.00    +0.095 A 
ENDBRANCH   8  11
ENDBRANCH   3   5
BRANCH   1  19
ATOM     18  C   UNL     1       6.094  -3.754  23.964  0.00  0.00    +0.093 C 
ATOM     19  C   UNL     1       7.511  -3.445  23.422  0.00  0.00    +0.093 C 
ATOM     20  C   UNL     1       8.429  -4.531  24.018  0.00  0.00    +0.024 C 
ATOM     21  C   UNL     1       7.516  -5.550  24.704  0.00  0.00    +0.004 C 
ATOM     22  C   UNL     1       6.119  -5.263  24.183  0.00  0.00    +0.024 C 
BRANCH  18  23
ATOM     23  N   UNL     1       5.650  -3.007  25.143  0.00  0.00    -0.306 N 
ATOM     24  H   UNL     1       6.383  -2.734  25.785  0.00  0.00    +0.149 HD
ATOM     25  C   UNL     1       4.360  -2.758  25.554  0.00  0.00    +0.251 C 
ATOM     26  O   UNL     1       3.372  -3.105  24.911  0.00  0.00    -0.270 OA
BRANCH  25  27
ATOM     27  C   UNL     1       4.240  -2.100  26.849  0.00  0.00    +0.075 A 
ATOM     28  S   UNL     1       4.618  -0.438  27.077  0.00  0.00    -0.072 S 
ATOM     29  C   UNL     1       4.250  -0.523  28.724  0.00  0.00    +0.079 A 
ATOM     30 CL   UNL     1       4.403   0.880  29.700  0.00  0.00    -0.076 Cl
ATOM     31  C   UNL     1       3.849  -1.766  29.133  0.00  0.00    +0.028 A 
ATOM     32  C   UNL     1       3.846  -2.685  28.042  0.00  0.00    +0.022 A 
ENDBRANCH  25  27
ENDBRANCH  18  23
ENDBRANCH   1  19
TORSDOF 5
ENDMDL
