MODEL 1
REMARK VINA RESULT:      -3.4      0.000      0.000
REMARK  Name = 
REMARK  7 active torsions:
REMARK  status: ('A' for Active; 'I' for Inactive)
REMARK    1  A    between atoms: C_1  and  N_2
REMARK    2  A    between atoms: N_2  and  C_3
REMARK    3  A    between atoms: N_2  and  C_5
REMARK    4  A    between atoms: N_2  and  C_7
REMARK    5  A    between atoms: C_3  and  O_4
REMARK    6  A    between atoms: C_5  and  O_6
REMARK    7  A    between atoms: C_7  and  O_8
REMARK                            x       y       z     vdW  Elec       q    Type
REMARK                         _______ _______ _______ _____ _____    ______ ____
ROOT
ATOM      1  C   UNL     1       6.974  -4.628  24.506  0.00  0.00    +0.200 C 
ATOM      2  N   UNL     1       8.230  -4.462  25.332  0.00  0.00    +0.299 N 
ENDROOT
BRANCH   2   3
ATOM      3  C   UNL     1       8.882  -3.167  24.979  0.00  0.00    +0.308 C 
BRANCH   3   4
ATOM      4  O   UNL     1       9.976  -3.337  24.105  0.00  0.00    -0.355 OA
ATOM      5  H   UNL     1       9.620  -3.656  23.257  0.00  0.00    +0.215 HD
ENDBRANCH   3   4
ENDBRANCH   2   3
BRANCH   2   6
ATOM      6  C   UNL     1       9.166  -5.591  25.044  0.00  0.00    +0.308 C 
BRANCH   6   7
ATOM      7  O   UNL     1      10.347  -5.513  25.809  0.00  0.00    -0.355 OA
ATOM      8  H   UNL     1      10.987  -6.131  25.409  0.00  0.00    +0.215 HD
ENDBRANCH   6   7
ENDBRANCH   2   6
BRANCH   2   9
ATOM      9  C   UNL     1       7.871  -4.468  26.781  0.00  0.00    +0.308 C 
BRANCH   9  10
ATOM     10  O   UNL     1       8.007  -5.748  27.355  0.00  0.00    -0.355 OA
ATOM     11  H   UNL     1       7.268  -6.293  27.029  0.00  0.00    +0.215 HD
ENDBRANCH   9  10
ENDBRANCH   2   9
TORSDOF 6
ENDMDL
MODEL 2
REMARK VINA RESULT:      -3.3      5.157      6.134
REMARK  Name = 
REMARK  7 active torsions:
REMARK  status: ('A' for Active; 'I' for Inactive)
REMARK    1  A    between atoms: C_1  and  N_2
REMARK    2  A    between atoms: N_2  and  C_3
REMARK    3  A    between atoms: N_2  and  C_5
REMARK    4  A    between atoms: N_2  and  C_7
REMARK    5  A    between atoms: C_3  and  O_4
REMARK    6  A    between atoms: C_5  and  O_6
REMARK    7  A    between atoms: C_7  and  O_8
REMARK                            x       y       z     vdW  Elec       q    Type
REMARK                         _______ _______ _______ _____ _____    ______ ____
ROOT
ATOM      1  C   UNL     1      10.399   0.584  24.371  0.00  0.00    +0.200 C 
ATOM      2  N   UNL     1       9.701   0.120  23.112  0.00  0.00    +0.299 N 
ENDROOT
BRANCH   2   3
ATOM      3  C   UNL     1       8.230   0.067  23.358  0.00  0.00    +0.308 C 
BRANCH   3   4
ATOM      4  O   UNL     1       7.610  -0.999  22.675  0.00  0.00    -0.355 OA
ATOM      5  H   UNL     1       7.675  -1.784  23.248  0.00  0.00    +0.215 HD
ENDBRANCH   3   4
ENDBRANCH   2   3
BRANCH   2   6
ATOM      6  C   UNL     1      10.198  -1.239  22.742  0.00  0.00    +0.308 C 
BRANCH   6   7
ATOM      7  O   UNL     1      10.118  -1.477  21.355  0.00  0.00    -0.355 OA
ATOM      8  H   UNL     1       9.301  -1.986  21.199  0.00  0.00    +0.215 HD
ENDBRANCH   6   7
ENDBRANCH   2   6
BRANCH   2   9
ATOM      9  C   UNL     1       9.993   1.079  22.005  0.00  0.00    +0.308 C 
BRANCH   9  10
ATOM     10  O   UNL     1       8.944   1.137  21.065  0.00  0.00    -0.355 OA
ATOM     11  H   UNL     1       8.916   0.277  20.608  0.00  0.00    +0.215 HD
ENDBRANCH   9  10
ENDBRANCH   2   9
TORSDOF 6
ENDMDL
MODEL 3
REMARK VINA RESULT:      -3.3      5.177      6.031
REMARK  Name = 
REMARK  7 active torsions:
REMARK  status: ('A' for Active; 'I' for Inactive)
REMARK    1  A    between atoms: C_1  and  N_2
REMARK    2  A    between atoms: N_2  and  C_3
REMARK    3  A    between atoms: N_2  and  C_5
REMARK    4  A    between atoms: N_2  and  C_7
REMARK    5  A    between atoms: C_3  and  O_4
REMARK    6  A    between atoms: C_5  and  O_6
REMARK    7  A    between atoms: C_7  and  O_8
REMARK                            x       y       z     vdW  Elec       q    Type
REMARK                         _______ _______ _______ _____ _____    ______ ____
ROOT
ATOM      1  C   UNL     1      10.512   0.601  24.332  0.00  0.00    +0.200 C 
ATOM      2  N   UNL     1       9.748   0.140  23.110  0.00  0.00    +0.299 N 
ENDROOT
BRANCH   2   3
ATOM      3  C   UNL     1      10.203  -1.232  22.736  0.00  0.00    +0.308 C 
BRANCH   3   4
ATOM      4  O   UNL     1      10.106  -1.469  21.349  0.00  0.00    -0.355 OA
ATOM      5  H   UNL     1       9.183  -1.294  21.091  0.00  0.00    +0.215 HD
ENDBRANCH   3   4
ENDBRANCH   2   3
BRANCH   2   6
ATOM      6  C   UNL     1      10.007   1.082  21.980  0.00  0.00    +0.308 C 
BRANCH   6   7
ATOM      7  O   UNL     1       8.932   1.130  21.069  0.00  0.00    -0.355 OA
ATOM      8  H   UNL     1       8.406   0.321  21.205  0.00  0.00    +0.215 HD
ENDBRANCH   6   7
ENDBRANCH   2   6
BRANCH   2   9
ATOM      9  C   UNL     1       8.288   0.120  23.420  0.00  0.00    +0.308 C 
BRANCH   9  10
ATOM     10  O   UNL     1       7.610  -0.894  22.713  0.00  0.00    -0.355 OA
ATOM     11  H   UNL     1       7.584  -0.626  21.776  0.00  0.00    +0.215 HD
ENDBRANCH   9  10
ENDBRANCH   2   9
TORSDOF 6
ENDMDL
MODEL 4
REMARK VINA RESULT:      -3.3      5.156      6.023
REMARK  Name = 
REMARK  7 active torsions:
REMARK  status: ('A' for Active; 'I' for Inactive)
REMARK    1  A    between atoms: C_1  and  N_2
REMARK    2  A    between atoms: N_2  and  C_3
REMARK    3  A    between atoms: N_2  and  C_5
REMARK    4  A    between atoms: N_2  and  C_7
REMARK    5  A    between atoms: C_3  and  O_4
REMARK    6  A    between atoms: C_5  and  O_6
REMARK    7  A    between atoms: C_7  and  O_8
REMARK                            x       y       z     vdW  Elec       q    Type
REMARK                         _______ _______ _______ _____ _____    ______ ____
ROOT
ATOM      1  C   UNL     1      10.472   0.584  24.357  0.00  0.00    +0.200 C 
ATOM      2  N   UNL     1       9.732   0.117  23.123  0.00  0.00    +0.299 N 
ENDROOT
BRANCH   2   3
ATOM      3  C   UNL     1      10.005   1.063  22.001  0.00  0.00    +0.308 C 
BRANCH   3   4
ATOM      4  O   UNL     1       8.941   1.119  21.077  0.00  0.00    -0.355 OA
ATOM      5  H   UNL     1       9.336   1.145  20.186  0.00  0.00    +0.215 HD
ENDBRANCH   3   4
ENDBRANCH   2   3
BRANCH   2   6
ATOM      6  C   UNL     1       8.266   0.084  23.408  0.00  0.00    +0.308 C 
BRANCH   6   7
ATOM      7  O   UNL     1       7.606  -0.932  22.687  0.00  0.00    -0.355 OA
ATOM      8  H   UNL     1       6.875  -0.509  22.200  0.00  0.00    +0.215 HD
ENDBRANCH   6   7
ENDBRANCH   2   6
BRANCH   2   9
ATOM      9  C   UNL     1      10.202  -1.251  22.755  0.00  0.00    +0.308 C 
BRANCH   9  10
ATOM     10  O   UNL     1      10.131  -1.479  21.366  0.00  0.00    -0.355 OA
ATOM     11  H   UNL     1      11.045  -1.575  21.040  0.00  0.00    +0.215 HD
ENDBRANCH   9  10
ENDBRANCH   2   9
TORSDOF 6
ENDMDL
MODEL 5
REMARK VINA RESULT:      -3.3      0.316      2.628
REMARK  Name = 
REMARK  7 active torsions:
REMARK  status: ('A' for Active; 'I' for Inactive)
REMARK    1  A    between atoms: C_1  and  N_2
REMARK    2  A    between atoms: N_2  and  C_3
REMARK    3  A    between atoms: N_2  and  C_5
REMARK    4  A    between atoms: N_2  and  C_7
REMARK    5  A    between atoms: C_3  and  O_4
REMARK    6  A    between atoms: C_5  and  O_6
REMARK    7  A    between atoms: C_7  and  O_8
REMARK                            x       y       z     vdW  Elec       q    Type
REMARK                         _______ _______ _______ _____ _____    ______ ____
ROOT
ATOM      1  C   UNL     1       6.901  -4.799  24.755  0.00  0.00    +0.200 C 
ATOM      2  N   UNL     1       8.312  -4.487  25.200  0.00  0.00    +0.299 N 
ENDROOT
BRANCH   2   3
ATOM      3  C   UNL     1       8.352  -4.415  26.691  0.00  0.00    +0.308 C 
BRANCH   3   4
ATOM      4  O   UNL     1       8.133  -5.671  27.294  0.00  0.00    -0.355 OA
ATOM      5  H   UNL     1       7.655  -6.221  26.648  0.00  0.00    +0.215 HD
ENDBRANCH   3   4
ENDBRANCH   2   3
BRANCH   2   6
ATOM      6  C   UNL     1       8.735  -3.176  24.622  0.00  0.00    +0.308 C 
BRANCH   6   7
ATOM      7  O   UNL     1      10.026  -3.233  24.058  0.00  0.00    -0.355 OA
ATOM      8  H   UNL     1      10.070  -2.539  23.375  0.00  0.00    +0.215 HD
ENDBRANCH   6   7
ENDBRANCH   2   6
BRANCH   2   9
ATOM      9  C   UNL     1       9.229  -5.563  24.722  0.00  0.00    +0.308 C 
BRANCH   9  10
ATOM     10  O   UNL     1      10.430  -5.602  25.460  0.00  0.00    -0.355 OA
ATOM     11  H   UNL     1      10.320  -6.275  26.157  0.00  0.00    +0.215 HD
ENDBRANCH   9  10
ENDBRANCH   2   9
TORSDOF 6
ENDMDL
MODEL 6
REMARK VINA RESULT:      -3.3      5.290      6.026
REMARK  Name = 
REMARK  7 active torsions:
REMARK  status: ('A' for Active; 'I' for Inactive)
REMARK    1  A    between atoms: C_1  and  N_2
REMARK    2  A    between atoms: N_2  and  C_3
REMARK    3  A    between atoms: N_2  and  C_5
REMARK    4  A    between atoms: N_2  and  C_7
REMARK    5  A    between atoms: C_3  and  O_4
REMARK    6  A    between atoms: C_5  and  O_6
REMARK    7  A    between atoms: C_7  and  O_8
REMARK                            x       y       z     vdW  Elec       q    Type
REMARK                         _______ _______ _______ _____ _____    ______ ____
ROOT
ATOM      1  C   UNL     1       8.312   0.065  23.617  0.00  0.00    +0.200 C 
ATOM      2  N   UNL     1       9.688   0.191  23.001  0.00  0.00    +0.299 N 
ENDROOT
BRANCH   2   3
ATOM      3  C   UNL     1       9.577   0.911  21.698  0.00  0.00    +0.308 C 
BRANCH   3   4
ATOM      4  O   UNL     1      10.201   2.175  21.729  0.00  0.00    -0.355 OA
ATOM      5  H   UNL     1       9.633   2.764  22.257  0.00  0.00    +0.215 HD
ENDBRANCH   3   4
ENDBRANCH   2   3
BRANCH   2   6
ATOM      6  C   UNL     1      10.258  -1.171  22.777  0.00  0.00    +0.308 C 
BRANCH   6   7
ATOM      7  O   UNL     1      10.190  -1.561  21.424  0.00  0.00    -0.355 OA
ATOM      8  H   UNL     1      10.037  -0.753  20.901  0.00  0.00    +0.215 HD
ENDBRANCH   6   7
ENDBRANCH   2   6
BRANCH   2   9
ATOM      9  C   UNL     1      10.573   0.958  23.927  0.00  0.00    +0.308 C 
BRANCH   9  10
ATOM     10  O   UNL     1       9.839   1.811  24.777  0.00  0.00    -0.355 OA
ATOM     11  H   UNL     1       9.139   1.274  25.192  0.00  0.00    +0.215 HD
ENDBRANCH   9  10
ENDBRANCH   2   9
TORSDOF 6
ENDMDL
MODEL 7
REMARK VINA RESULT:      -3.3      5.465      6.401
REMARK  Name = 
REMARK  7 active torsions:
REMARK  status: ('A' for Active; 'I' for Inactive)
REMARK    1  A    between atoms: C_1  and  N_2
REMARK    2  A    between atoms: N_2  and  C_3
REMARK    3  A    between atoms: N_2  and  C_5
REMARK    4  A    between atoms: N_2  and  C_7
REMARK    5  A    between atoms: C_3  and  O_4
REMARK    6  A    between atoms: C_5  and  O_6
REMARK    7  A    between atoms: C_7  and  O_8
REMARK                            x       y       z     vdW  Elec       q    Type
REMARK                         _______ _______ _______ _____ _____    ______ ____
ROOT
ATOM      1  C   UNL     1       7.068   0.455  23.123  0.00  0.00    +0.200 C 
ATOM      2  N   UNL     1       8.497   0.435  22.629  0.00  0.00    +0.299 N 
ENDROOT
BRANCH   2   3
ATOM      3  C   UNL     1       9.407   0.832  23.744  0.00  0.00    +0.308 C 
BRANCH   3   4
ATOM      4  O   UNL     1      10.674   0.219  23.646  0.00  0.00    -0.355 OA
ATOM      5  H   UNL     1      11.341   0.922  23.744  0.00  0.00    +0.215 HD
ENDBRANCH   3   4
ENDBRANCH   2   3
BRANCH   2   6
ATOM      6  C   UNL     1       8.644   1.396  21.494  0.00  0.00    +0.308 C 
BRANCH   6   7
ATOM      7  O   UNL     1       9.897   2.040  21.499  0.00  0.00    -0.355 OA
ATOM      8  H   UNL     1      10.390   1.701  22.270  0.00  0.00    +0.215 HD
ENDBRANCH   6   7
ENDBRANCH   2   6
BRANCH   2   9
ATOM      9  C   UNL     1       8.838  -0.943  22.165  0.00  0.00    +0.308 C 
BRANCH   9  10
ATOM     10  O   UNL     1       9.778  -0.930  21.114  0.00  0.00    -0.355 OA
ATOM     11  H   UNL     1       9.375  -0.444  20.371  0.00  0.00    +0.215 HD
ENDBRANCH   9  10
ENDBRANCH   2   9
TORSDOF 6
ENDMDL
MODEL 8
REMARK VINA RESULT:      -3.3      5.446      6.388
REMARK  Name = 
REMARK  7 active torsions:
REMARK  status: ('A' for Active; 'I' for Inactive)
REMARK    1  A    between atoms: C_1  and  N_2
REMARK    2  A    between atoms: N_2  and  C_3
REMARK    3  A    between atoms: N_2  and  C_5
REMARK    4  A    between atoms: N_2  and  C_7
REMARK    5  A    between atoms: C_3  and  O_4
REMARK    6  A    between atoms: C_5  and  O_6
REMARK    7  A    between atoms: C_7  and  O_8
REMARK                            x       y       z     vdW  Elec       q    Type
REMARK                         _______ _______ _______ _____ _____    ______ ____
ROOT
ATOM      1  C   UNL     1       7.114   0.416  23.193  0.00  0.00    +0.200 C 
ATOM      2  N   UNL     1       8.526   0.414  22.651  0.00  0.00    +0.299 N 
ENDROOT
BRANCH   2   3
ATOM      3  C   UNL     1       8.856  -0.952  22.146  0.00  0.00    +0.308 C 
BRANCH   3   4
ATOM      4  O   UNL     1       9.782  -0.921  21.082  0.00  0.00    -0.355 OA
ATOM      5  H   UNL     1      10.642  -0.659  21.458  0.00  0.00    +0.215 HD
ENDBRANCH   3   4
ENDBRANCH   2   3
BRANCH   2   6
ATOM      6  C   UNL     1       9.476   0.790  23.741  0.00  0.00    +0.308 C 
BRANCH   6   7
ATOM      7  O   UNL     1      10.719   0.138  23.614  0.00  0.00    -0.355 OA
ATOM      8  H   UNL     1      11.379   0.821  23.393  0.00  0.00    +0.215 HD
ENDBRANCH   6   7
ENDBRANCH   2   6
BRANCH   2   9
ATOM      9  C   UNL     1       8.627   1.402  21.536  0.00  0.00    +0.308 C 
BRANCH   9  10
ATOM     10  O   UNL     1       9.891   2.027  21.495  0.00  0.00    -0.355 OA
ATOM     11  H   UNL     1      10.141   2.235  22.414  0.00  0.00    +0.215 HD
ENDBRANCH   9  10
ENDBRANCH   2   9
TORSDOF 6
ENDMDL
MODEL 9
REMARK VINA RESULT:      -3.2      1.423      2.372
REMARK  Name = 
REMARK  7 active torsions:
REMARK  status: ('A' for Active; 'I' for Inactive)
REMARK    1  A    between atoms: C_1  and  N_2
REMARK    2  A    between atoms: N_2  and  C_3
REMARK    3  A    between atoms: N_2  and  C_5
REMARK    4  A    between atoms: N_2  and  C_7
REMARK    5  A    between atoms: C_3  and  O_4
REMARK    6  A    between atoms: C_5  and  O_6
REMARK    7  A    between atoms: C_7  and  O_8
REMARK                            x       y       z     vdW  Elec       q    Type
REMARK                         _______ _______ _______ _____ _____    ______ ____
ROOT
ATOM      1  C   UNL     1       8.082  -3.052  26.295  0.00  0.00    +0.200 C 
ATOM      2  N   UNL     1       8.234  -4.327  25.495  0.00  0.00    +0.299 N 
ENDROOT
BRANCH   2   3
ATOM      3  C   UNL     1       7.721  -4.102  24.111  0.00  0.00    +0.308 C 
BRANCH   3   4
ATOM      4  O   UNL     1       7.768  -5.272  23.325  0.00  0.00    -0.355 OA
ATOM      5  H   UNL     1       7.088  -5.878  23.670  0.00  0.00    +0.215 HD
ENDBRANCH   3   4
ENDBRANCH   2   3
BRANCH   2   6
ATOM      6  C   UNL     1       7.451  -5.419  26.150  0.00  0.00    +0.308 C 
BRANCH   6   7
ATOM      7  O   UNL     1       7.972  -5.764  27.413  0.00  0.00    -0.355 OA
ATOM      8  H   UNL     1       7.997  -6.738  27.455  0.00  0.00    +0.215 HD
ENDBRANCH   6   7
ENDBRANCH   2   6
BRANCH   2   9
ATOM      9  C   UNL     1       9.676  -4.708  25.443  0.00  0.00    +0.308 C 
BRANCH   9  10
ATOM     10  O   UNL     1       9.852  -6.080  25.169  0.00  0.00    -0.355 OA
ATOM     11  H   UNL     1      10.239  -6.487  25.966  0.00  0.00    +0.215 HD
ENDBRANCH   9  10
ENDBRANCH   2   9
TORSDOF 6
ENDMDL
