MODEL 1
REMARK VINA RESULT:      -6.8      0.000      0.000
REMARK  Name = 
REMARK  19 active torsions:
REMARK  status: ('A' for Active; 'I' for Inactive)
REMARK    1  A    between atoms: C_1  and  C_2
REMARK    2  A    between atoms: C_2  and  O_3
REMARK    3  A    between atoms: C_2  and  C_4
REMARK    4  A    between atoms: C_2  and  C_6
REMARK    5  A    between atoms: C_4  and  O_5
REMARK    6  A    between atoms: C_6  and  O_8
REMARK    7  A    between atoms: C_6  and  C_9
REMARK    8  A    between atoms: C_9  and  O_10
REMARK    9  A    between atoms: O_10  and  P_11
REMARK   10  A    between atoms: P_11  and  O_12
REMARK   11  A    between atoms: P_11  and  O_14
REMARK   12  A    between atoms: O_14  and  P_15
REMARK   13  A    between atoms: P_15  and  O_16
REMARK   14  A    between atoms: P_15  and  O_18
REMARK   15  A    between atoms: O_18  and  C_19
REMARK   16  A    between atoms: C_19  and  C_20
REMARK   17  A    between atoms: C_23  and  N_31
REMARK   18  A    between atoms: C_25  and  O_27
REMARK   19  A    between atoms: C_28  and  O_30
REMARK                            x       y       z     vdW  Elec       q    Type
REMARK                         _______ _______ _______ _____ _____    ______ ____
ROOT
ATOM      1  P   UNL     1       9.347  -1.347  22.698  0.00  0.00    +0.483 P 
ATOM      2  O   UNL     1       9.919  -2.216  23.821  0.00  0.00    -0.227 OA
ENDROOT
BRANCH   1   3
ATOM      3  O   UNL     1      10.446  -1.540  21.499  0.00  0.00    -0.302 OA
ATOM      4  H   UNL     1      10.668  -0.639  21.182  0.00  0.00    +0.222 HD
ENDBRANCH   1   3
BRANCH   1   5
ATOM      5  O   UNL     1       8.424  -2.694  22.127  0.00  0.00    -0.284 OA
BRANCH   5   6
ATOM      6  C   UNL     1       7.025  -2.559  22.417  0.00  0.00    +0.206 C 
BRANCH   6   7
ATOM      7  C   UNL     1       6.302  -3.895  22.659  0.00  0.00    +0.178 C 
ATOM      8  C   UNL     1       7.300  -5.056  22.531  0.00  0.00    +0.178 C 
ATOM      9  C   UNL     1       7.750  -5.355  23.960  0.00  0.00    +0.195 C 
ATOM     10  C   UNL     1       6.839  -4.476  24.839  0.00  0.00    +0.255 C 
ATOM     11  O   UNL     1       5.772  -4.006  23.998  0.00  0.00    -0.346 OA
BRANCH  10  12
ATOM     12  N   UNL     1       6.339  -5.193  26.007  0.00  0.00    -0.270 N 
ATOM     13  C   UNL     1       7.166  -5.191  27.137  0.00  0.00    +0.352 A 
ATOM     14  O   UNL     1       8.257  -4.621  27.104  0.00  0.00    -0.244 OA
ATOM     15  N   UNL     1       6.746  -5.859  28.262  0.00  0.00    -0.178 NA
ATOM     16  C   UNL     1       5.666  -6.575  28.214  0.00  0.00    +0.123 A 
ATOM     17  N   UNL     1       5.299  -7.233  29.359  0.00  0.00    -0.343 N 
ATOM     18  H   UNL     1       5.765  -6.876  30.187  0.00  0.00    +0.144 HD
ATOM     19  H   UNL     1       4.316  -7.431  29.499  0.00  0.00    +0.144 HD
ATOM     20  C   UNL     1       4.831  -6.707  27.004  0.00  0.00    +0.061 A 
ATOM     21  C   UNL     1       5.214  -5.977  25.952  0.00  0.00    +0.096 A 
ENDBRANCH  10  12
BRANCH   8  22
ATOM     22  O   UNL     1       6.648  -6.201  21.967  0.00  0.00    -0.386 OA
ATOM     23  H   UNL     1       6.563  -6.877  22.663  0.00  0.00    +0.210 HD
ENDBRANCH   8  22
BRANCH   9  24
ATOM     24  O   UNL     1       9.127  -5.015  24.151  0.00  0.00    -0.385 OA
ATOM     25  H   UNL     1       9.657  -5.737  23.744  0.00  0.00    +0.210 HD
ENDBRANCH   9  24
ENDBRANCH   6   7
ENDBRANCH   5   6
ENDBRANCH   1   5
BRANCH   1  26
ATOM     26  O   UNL     1      10.271  -0.001  23.269  0.00  0.00    -0.186 OA
BRANCH  26  27
ATOM     27  P   UNL     1       9.614   1.464  22.623  0.00  0.00    +0.483 P 
ATOM     28  O   UNL     1       8.654   0.695  21.717  0.00  0.00    -0.227 OA
BRANCH  27  29
ATOM     29  O   UNL     1       8.958   2.929  21.977  0.00  0.00    -0.302 OA
ATOM     30  H   UNL     1       9.698   3.284  21.445  0.00  0.00    +0.222 HD
ENDBRANCH  27  29
BRANCH  27  31
ATOM     31  O   UNL     1       8.875   1.766  24.084  0.00  0.00    -0.284 OA
BRANCH  31  32
ATOM     32  C   UNL     1       7.432   1.784  24.030  0.00  0.00    +0.206 C 
BRANCH  32  33
ATOM     33  C   UNL     1       6.742   0.579  24.677  0.00  0.00    +0.174 C 
BRANCH  33  34
ATOM     34  O   UNL     1       5.329   0.707  24.489  0.00  0.00    -0.387 OA
ATOM     35  H   UNL     1       5.157   0.707  23.532  0.00  0.00    +0.210 HD
ENDBRANCH  33  34
BRANCH  33  37
ATOM     36  C   UNL     1       5.843   0.262  27.075  0.00  0.00    +0.046 C 
ATOM     37  C   UNL     1       7.093   0.476  26.203  0.00  0.00    +0.114 C 
BRANCH  37  38
ATOM     38  O   UNL     1       7.733   1.691  26.639  0.00  0.00    -0.384 OA
ATOM     39  H   UNL     1       8.512   1.832  26.074  0.00  0.00    +0.210 HD
ENDBRANCH  37  38
BRANCH  37  40
ATOM     40  C   UNL     1       8.107  -0.662  26.435  0.00  0.00    +0.192 C 
BRANCH  40  41
ATOM     41  O   UNL     1       9.442  -0.216  26.179  0.00  0.00    -0.392 OA
ATOM     42  H   UNL     1       9.796   0.094  27.032  0.00  0.00    +0.210 HD
ENDBRANCH  40  41
ENDBRANCH  37  40
ENDBRANCH  33  37
ENDBRANCH  32  33
ENDBRANCH  31  32
ENDBRANCH  27  31
ENDBRANCH  26  27
ENDBRANCH   1  26
TORSDOF 18
ENDMDL
MODEL 2
REMARK VINA RESULT:      -6.6      1.772      2.705
REMARK  Name = 
REMARK  19 active torsions:
REMARK  status: ('A' for Active; 'I' for Inactive)
REMARK    1  A    between atoms: C_1  and  C_2
REMARK    2  A    between atoms: C_2  and  O_3
REMARK    3  A    between atoms: C_2  and  C_4
REMARK    4  A    between atoms: C_2  and  C_6
REMARK    5  A    between atoms: C_4  and  O_5
REMARK    6  A    between atoms: C_6  and  O_8
REMARK    7  A    between atoms: C_6  and  C_9
REMARK    8  A    between atoms: C_9  and  O_10
REMARK    9  A    between atoms: O_10  and  P_11
REMARK   10  A    between atoms: P_11  and  O_12
REMARK   11  A    between atoms: P_11  and  O_14
REMARK   12  A    between atoms: O_14  and  P_15
REMARK   13  A    between atoms: P_15  and  O_16
REMARK   14  A    between atoms: P_15  and  O_18
REMARK   15  A    between atoms: O_18  and  C_19
REMARK   16  A    between atoms: C_19  and  C_20
REMARK   17  A    between atoms: C_23  and  N_31
REMARK   18  A    between atoms: C_25  and  O_27
REMARK   19  A    between atoms: C_28  and  O_30
REMARK                            x       y       z     vdW  Elec       q    Type
REMARK                         _______ _______ _______ _____ _____    ______ ____
ROOT
ATOM      1  P   UNL     1       9.176  -1.706  22.975  0.00  0.00    +0.483 P 
ATOM      2  O   UNL     1       9.805  -2.702  23.951  0.00  0.00    -0.227 OA
ENDROOT
BRANCH   1   3
ATOM      3  O   UNL     1      10.268  -1.658  21.755  0.00  0.00    -0.302 OA
ATOM      4  H   UNL     1      10.993  -2.267  22.012  0.00  0.00    +0.222 HD
ENDBRANCH   1   3
BRANCH   1   5
ATOM      5  O   UNL     1       8.315  -2.997  22.211  0.00  0.00    -0.284 OA
BRANCH   5   6
ATOM      6  C   UNL     1       6.893  -2.843  22.316  0.00  0.00    +0.206 C 
BRANCH   6   7
ATOM      7  C   UNL     1       6.143  -4.143  22.654  0.00  0.00    +0.178 C 
ATOM      8  C   UNL     1       7.096  -5.340  22.526  0.00  0.00    +0.178 C 
ATOM      9  C   UNL     1       7.613  -5.593  23.942  0.00  0.00    +0.195 C 
ATOM     10  C   UNL     1       6.777  -4.648  24.827  0.00  0.00    +0.255 C 
ATOM     11  O   UNL     1       5.682  -4.180  24.022  0.00  0.00    -0.346 OA
BRANCH  10  12
ATOM     12  N   UNL     1       6.318  -5.298  26.050  0.00  0.00    -0.270 N 
ATOM     13  C   UNL     1       7.195  -5.256  27.140  0.00  0.00    +0.352 A 
ATOM     14  O   UNL     1       8.292  -4.708  27.032  0.00  0.00    -0.244 OA
ATOM     15  N   UNL     1       6.815  -5.859  28.315  0.00  0.00    -0.178 NA
ATOM     16  C   UNL     1       5.723  -6.557  28.350  0.00  0.00    +0.123 A 
ATOM     17  N   UNL     1       5.396  -7.152  29.541  0.00  0.00    -0.343 N 
ATOM     18  H   UNL     1       5.904  -6.763  30.330  0.00  0.00    +0.144 HD
ATOM     19  H   UNL     1       4.418  -7.325  29.733  0.00  0.00    +0.144 HD
ATOM     20  C   UNL     1       4.832  -6.733  27.186  0.00  0.00    +0.061 A 
ATOM     21  C   UNL     1       5.179  -6.062  26.084  0.00  0.00    +0.096 A 
ENDBRANCH  10  12
BRANCH   8  22
ATOM     22  O   UNL     1       6.381  -6.486  22.048  0.00  0.00    -0.386 OA
ATOM     23  H   UNL     1       5.545  -6.553  22.544  0.00  0.00    +0.210 HD
ENDBRANCH   8  22
BRANCH   9  24
ATOM     24  O   UNL     1       9.008  -5.291  24.045  0.00  0.00    -0.385 OA
ATOM     25  H   UNL     1       9.330  -5.122  23.132  0.00  0.00    +0.210 HD
ENDBRANCH   9  24
ENDBRANCH   6   7
ENDBRANCH   5   6
ENDBRANCH   1   5
BRANCH   1  26
ATOM     26  O   UNL     1      10.036  -0.414  23.739  0.00  0.00    -0.186 OA
BRANCH  26  27
ATOM     27  P   UNL     1      10.129   0.935  22.659  0.00  0.00    +0.483 P 
ATOM     28  O   UNL     1       8.645   0.825  22.311  0.00  0.00    -0.227 OA
BRANCH  27  29
ATOM     29  O   UNL     1      10.222   2.283  21.579  0.00  0.00    -0.302 OA
ATOM     30  H   UNL     1       9.400   2.777  21.773  0.00  0.00    +0.222 HD
ENDBRANCH  27  29
BRANCH  27  31
ATOM     31  O   UNL     1      10.317   1.953  23.963  0.00  0.00    -0.284 OA
BRANCH  31  32
ATOM     32  C   UNL     1       9.090   2.553  24.433  0.00  0.00    +0.206 C 
BRANCH  32  33
ATOM     33  C   UNL     1       8.938   4.046  24.127  0.00  0.00    +0.174 C 
BRANCH  33  34
ATOM     34  O   UNL     1       8.816   4.755  25.364  0.00  0.00    -0.387 OA
ATOM     35  H   UNL     1       7.957   4.519  25.756  0.00  0.00    +0.210 HD
ENDBRANCH  33  34
BRANCH  33  37
ATOM     36  C   UNL     1       6.388   3.784  23.826  0.00  0.00    +0.046 C 
ATOM     37  C   UNL     1       7.695   4.313  23.209  0.00  0.00    +0.114 C 
BRANCH  37  38
ATOM     38  O   UNL     1       7.878   3.661  21.937  0.00  0.00    -0.384 OA
ATOM     39  H   UNL     1       8.519   4.185  21.427  0.00  0.00    +0.210 HD
ENDBRANCH  37  38
BRANCH  37  40
ATOM     40  C   UNL     1       7.572   5.822  22.914  0.00  0.00    +0.192 C 
BRANCH  40  41
ATOM     41  O   UNL     1       8.862   6.414  22.738  0.00  0.00    -0.392 OA
ATOM     42  H   UNL     1       9.335   5.856  22.093  0.00  0.00    +0.210 HD
ENDBRANCH  40  41
ENDBRANCH  37  40
ENDBRANCH  33  37
ENDBRANCH  32  33
ENDBRANCH  31  32
ENDBRANCH  27  31
ENDBRANCH  26  27
ENDBRANCH   1  26
TORSDOF 18
ENDMDL
MODEL 3
REMARK VINA RESULT:      -6.5      1.180      1.797
REMARK  Name = 
REMARK  19 active torsions:
REMARK  status: ('A' for Active; 'I' for Inactive)
REMARK    1  A    between atoms: C_1  and  C_2
REMARK    2  A    between atoms: C_2  and  O_3
REMARK    3  A    between atoms: C_2  and  C_4
REMARK    4  A    between atoms: C_2  and  C_6
REMARK    5  A    between atoms: C_4  and  O_5
REMARK    6  A    between atoms: C_6  and  O_8
REMARK    7  A    between atoms: C_6  and  C_9
REMARK    8  A    between atoms: C_9  and  O_10
REMARK    9  A    between atoms: O_10  and  P_11
REMARK   10  A    between atoms: P_11  and  O_12
REMARK   11  A    between atoms: P_11  and  O_14
REMARK   12  A    between atoms: O_14  and  P_15
REMARK   13  A    between atoms: P_15  and  O_16
REMARK   14  A    between atoms: P_15  and  O_18
REMARK   15  A    between atoms: O_18  and  C_19
REMARK   16  A    between atoms: C_19  and  C_20
REMARK   17  A    between atoms: C_23  and  N_31
REMARK   18  A    between atoms: C_25  and  O_27
REMARK   19  A    between atoms: C_28  and  O_30
REMARK                            x       y       z     vdW  Elec       q    Type
REMARK                         _______ _______ _______ _____ _____    ______ ____
ROOT
ATOM      1  P   UNL     1       9.345  -1.601  22.947  0.00  0.00    +0.483 P 
ATOM      2  O   UNL     1       9.872  -2.591  23.987  0.00  0.00    -0.227 OA
ENDROOT
BRANCH   1   3
ATOM      3  O   UNL     1      10.470  -1.694  21.760  0.00  0.00    -0.302 OA
ATOM      4  H   UNL     1      10.674  -2.647  21.649  0.00  0.00    +0.222 HD
ENDBRANCH   1   3
BRANCH   1   5
ATOM      5  O   UNL     1       8.412  -2.863  22.220  0.00  0.00    -0.284 OA
BRANCH   5   6
ATOM      6  C   UNL     1       7.002  -2.681  22.414  0.00  0.00    +0.206 C 
BRANCH   6   7
ATOM      7  C   UNL     1       6.233  -3.985  22.687  0.00  0.00    +0.178 C 
ATOM      8  C   UNL     1       7.180  -5.185  22.550  0.00  0.00    +0.178 C 
ATOM      9  C   UNL     1       7.651  -5.487  23.973  0.00  0.00    +0.195 C 
ATOM     10  C   UNL     1       6.795  -4.564  24.862  0.00  0.00    +0.255 C 
ATOM     11  O   UNL     1       5.729  -4.061  24.039  0.00  0.00    -0.346 OA
BRANCH  10  12
ATOM     12  N   UNL     1       6.293  -5.249  26.048  0.00  0.00    -0.270 N 
ATOM     13  C   UNL     1       7.142  -5.264  27.161  0.00  0.00    +0.352 A 
ATOM     14  O   UNL     1       8.253  -4.735  27.099  0.00  0.00    -0.244 OA
ATOM     15  N   UNL     1       6.722  -5.902  28.302  0.00  0.00    -0.178 NA
ATOM     16  C   UNL     1       5.616  -6.578  28.285  0.00  0.00    +0.123 A 
ATOM     17  N   UNL     1       5.249  -7.209  29.446  0.00  0.00    -0.343 N 
ATOM     18  H   UNL     1       5.744  -6.859  30.260  0.00  0.00    +0.144 HD
ATOM     19  H   UNL     1       4.262  -7.369  29.608  0.00  0.00    +0.144 HD
ATOM     20  C   UNL     1       4.751  -6.694  27.094  0.00  0.00    +0.061 A 
ATOM     21  C   UNL     1       5.139  -5.991  26.026  0.00  0.00    +0.096 A 
ENDBRANCH  10  12
BRANCH   8  22
ATOM     22  O   UNL     1       6.471  -6.310  22.014  0.00  0.00    -0.386 OA
ATOM     23  H   UNL     1       6.860  -7.121  22.387  0.00  0.00    +0.210 HD
ENDBRANCH   8  22
BRANCH   9  24
ATOM     24  O   UNL     1       9.044  -5.200  24.129  0.00  0.00    -0.385 OA
ATOM     25  H   UNL     1       9.479  -6.042  24.392  0.00  0.00    +0.210 HD
ENDBRANCH   9  24
ENDBRANCH   6   7
ENDBRANCH   5   6
ENDBRANCH   1   5
BRANCH   1  26
ATOM     26  O   UNL     1      10.278  -0.339  23.674  0.00  0.00    -0.186 OA
BRANCH  26  27
ATOM     27  P   UNL     1      10.229   1.067  22.667  0.00  0.00    +0.483 P 
ATOM     28  O   UNL     1       8.785   0.787  22.256  0.00  0.00    -0.227 OA
BRANCH  27  29
ATOM     29  O   UNL     1      10.181   2.474  21.661  0.00  0.00    -0.302 OA
ATOM     30  H   UNL     1       9.229   2.558  21.448  0.00  0.00    +0.222 HD
ENDBRANCH  27  29
BRANCH  27  31
ATOM     31  O   UNL     1      10.241   2.029  24.027  0.00  0.00    -0.284 OA
BRANCH  31  32
ATOM     32  C   UNL     1       9.141   2.962  24.107  0.00  0.00    +0.206 C 
BRANCH  32  33
ATOM     33  C   UNL     1       8.015   2.557  25.063  0.00  0.00    +0.174 C 
BRANCH  33  34
ATOM     34  O   UNL     1       8.147   1.164  25.361  0.00  0.00    -0.387 OA
ATOM     35  H   UNL     1       7.328   0.876  25.799  0.00  0.00    +0.210 HD
ENDBRANCH  33  34
BRANCH  33  37
ATOM     36  C   UNL     1       6.709   3.525  23.057  0.00  0.00    +0.046 C 
ATOM     37  C   UNL     1       6.606   2.860  24.442  0.00  0.00    +0.114 C 
BRANCH  37  38
ATOM     38  O   UNL     1       5.874   3.752  25.305  0.00  0.00    -0.384 OA
ATOM     39  H   UNL     1       5.472   4.440  24.746  0.00  0.00    +0.210 HD
ENDBRANCH  37  38
BRANCH  37  40
ATOM     40  C   UNL     1       5.780   1.562  24.350  0.00  0.00    +0.192 C 
BRANCH  40  41
ATOM     41  O   UNL     1       6.104   0.834  23.162  0.00  0.00    -0.392 OA
ATOM     42  H   UNL     1       6.857   1.298  22.753  0.00  0.00    +0.210 HD
ENDBRANCH  40  41
ENDBRANCH  37  40
ENDBRANCH  33  37
ENDBRANCH  32  33
ENDBRANCH  31  32
ENDBRANCH  27  31
ENDBRANCH  26  27
ENDBRANCH   1  26
TORSDOF 18
ENDMDL
MODEL 4
REMARK VINA RESULT:      -6.4      2.445      4.120
REMARK  Name = 
REMARK  19 active torsions:
REMARK  status: ('A' for Active; 'I' for Inactive)
REMARK    1  A    between atoms: C_1  and  C_2
REMARK    2  A    between atoms: C_2  and  O_3
REMARK    3  A    between atoms: C_2  and  C_4
REMARK    4  A    between atoms: C_2  and  C_6
REMARK    5  A    between atoms: C_4  and  O_5
REMARK    6  A    between atoms: C_6  and  O_8
REMARK    7  A    between atoms: C_6  and  C_9
REMARK    8  A    between atoms: C_9  and  O_10
REMARK    9  A    between atoms: O_10  and  P_11
REMARK   10  A    between atoms: P_11  and  O_12
REMARK   11  A    between atoms: P_11  and  O_14
REMARK   12  A    between atoms: O_14  and  P_15
REMARK   13  A    between atoms: P_15  and  O_16
REMARK   14  A    between atoms: P_15  and  O_18
REMARK   15  A    between atoms: O_18  and  C_19
REMARK   16  A    between atoms: C_19  and  C_20
REMARK   17  A    between atoms: C_23  and  N_31
REMARK   18  A    between atoms: C_25  and  O_27
REMARK   19  A    between atoms: C_28  and  O_30
REMARK                            x       y       z     vdW  Elec       q    Type
REMARK                         _______ _______ _______ _____ _____    ______ ____
ROOT
ATOM      1  P   UNL     1       8.954  -1.825  23.318  0.00  0.00    +0.483 P 
ATOM      2  O   UNL     1      10.153  -1.530  22.414  0.00  0.00    -0.227 OA
ENDROOT
BRANCH   1   3
ATOM      3  O   UNL     1       7.903  -2.555  22.295  0.00  0.00    -0.302 OA
ATOM      4  H   UNL     1       8.426  -3.212  21.788  0.00  0.00    +0.222 HD
ENDBRANCH   1   3
BRANCH   1   5
ATOM      5  O   UNL     1       9.655  -3.345  23.751  0.00  0.00    -0.284 OA
BRANCH   5   6
ATOM      6  C   UNL     1       9.536  -3.622  25.154  0.00  0.00    +0.206 C 
BRANCH   6   7
ATOM      7  C   UNL     1       8.809  -4.939  25.475  0.00  0.00    +0.178 C 
ATOM      8  C   UNL     1       7.988  -4.778  26.762  0.00  0.00    +0.178 C 
ATOM      9  C   UNL     1       6.575  -4.431  26.294  0.00  0.00    +0.195 C 
ATOM     10  C   UNL     1       6.627  -4.603  24.764  0.00  0.00    +0.255 C 
ATOM     11  O   UNL     1       7.845  -5.304  24.462  0.00  0.00    -0.346 OA
BRANCH  10  12
ATOM     12  N   UNL     1       5.454  -5.299  24.246  0.00  0.00    -0.270 N 
ATOM     13  C   UNL     1       4.737  -4.640  23.240  0.00  0.00    +0.352 A 
ATOM     14  O   UNL     1       5.095  -3.528  22.851  0.00  0.00    -0.244 OA
ATOM     15  N   UNL     1       3.619  -5.248  22.722  0.00  0.00    -0.178 NA
ATOM     16  C   UNL     1       3.183  -6.345  23.257  0.00  0.00    +0.123 A 
ATOM     17  N   UNL     1       2.055  -6.903  22.713  0.00  0.00    -0.343 N 
ATOM     18  H   UNL     1       1.841  -6.541  21.789  0.00  0.00    +0.144 HD
ATOM     19  H   UNL     1       1.933  -7.905  22.796  0.00  0.00    +0.144 HD
ATOM     20  C   UNL     1       3.837  -7.007  24.403  0.00  0.00    +0.061 A 
ATOM     21  C   UNL     1       4.971  -6.443  24.828  0.00  0.00    +0.096 A 
ENDBRANCH  10  12
BRANCH   8  22
ATOM     22  O   UNL     1       7.979  -6.011  27.493  0.00  0.00    -0.386 OA
ATOM     23  H   UNL     1       7.226  -5.994  28.111  0.00  0.00    +0.210 HD
ENDBRANCH   8  22
BRANCH   9  24
ATOM     24  O   UNL     1       6.228  -3.088  26.647  0.00  0.00    -0.385 OA
ATOM     25  H   UNL     1       6.674  -2.895  27.502  0.00  0.00    +0.210 HD
ENDBRANCH   9  24
ENDBRANCH   6   7
ENDBRANCH   5   6
ENDBRANCH   1   5
BRANCH   1  26
ATOM     26  O   UNL     1       8.252  -0.304  22.885  0.00  0.00    -0.186 OA
BRANCH  26  27
ATOM     27  P   UNL     1       6.748  -0.105  23.717  0.00  0.00    +0.483 P 
ATOM     28  O   UNL     1       7.184  -1.049  24.838  0.00  0.00    -0.227 OA
BRANCH  27  29
ATOM     29  O   UNL     1       5.245   0.094  24.550  0.00  0.00    -0.302 OA
ATOM     30  H   UNL     1       4.810  -0.773  24.427  0.00  0.00    +0.222 HD
ENDBRANCH  27  29
BRANCH  27  31
ATOM     31  O   UNL     1       7.183   1.455  24.108  0.00  0.00    -0.284 OA
BRANCH  31  32
ATOM     32  C   UNL     1       7.904   2.151  23.067  0.00  0.00    +0.206 C 
BRANCH  32  33
ATOM     33  C   UNL     1       8.967   3.136  23.562  0.00  0.00    +0.174 C 
BRANCH  33  34
ATOM     34  O   UNL     1       8.670   4.432  23.032  0.00  0.00    -0.387 OA
ATOM     35  H   UNL     1       7.716   4.586  23.146  0.00  0.00    +0.210 HD
ENDBRANCH  33  34
BRANCH  33  37
ATOM     36  C   UNL     1      11.430   3.826  23.213  0.00  0.00    +0.046 C 
ATOM     37  C   UNL     1      10.407   2.679  23.137  0.00  0.00    +0.114 C 
BRANCH  37  38
ATOM     38  O   UNL     1      10.384   2.196  21.780  0.00  0.00    -0.384 OA
ATOM     39  H   UNL     1      11.196   1.678  21.638  0.00  0.00    +0.210 HD
ENDBRANCH  37  38
BRANCH  37  40
ATOM     40  C   UNL     1      10.865   1.497  24.016  0.00  0.00    +0.192 C 
BRANCH  40  41
ATOM     41  O   UNL     1       9.950   1.277  25.093  0.00  0.00    -0.392 OA
ATOM     42  H   UNL     1       9.071   1.166  24.688  0.00  0.00    +0.210 HD
ENDBRANCH  40  41
ENDBRANCH  37  40
ENDBRANCH  33  37
ENDBRANCH  32  33
ENDBRANCH  31  32
ENDBRANCH  27  31
ENDBRANCH  26  27
ENDBRANCH   1  26
TORSDOF 18
ENDMDL
MODEL 5
REMARK VINA RESULT:      -6.4      2.395      3.983
REMARK  Name = 
REMARK  19 active torsions:
REMARK  status: ('A' for Active; 'I' for Inactive)
REMARK    1  A    between atoms: C_1  and  C_2
REMARK    2  A    between atoms: C_2  and  O_3
REMARK    3  A    between atoms: C_2  and  C_4
REMARK    4  A    between atoms: C_2  and  C_6
REMARK    5  A    between atoms: C_4  and  O_5
REMARK    6  A    between atoms: C_6  and  O_8
REMARK    7  A    between atoms: C_6  and  C_9
REMARK    8  A    between atoms: C_9  and  O_10
REMARK    9  A    between atoms: O_10  and  P_11
REMARK   10  A    between atoms: P_11  and  O_12
REMARK   11  A    between atoms: P_11  and  O_14
REMARK   12  A    between atoms: O_14  and  P_15
REMARK   13  A    between atoms: P_15  and  O_16
REMARK   14  A    between atoms: P_15  and  O_18
REMARK   15  A    between atoms: O_18  and  C_19
REMARK   16  A    between atoms: C_19  and  C_20
REMARK   17  A    between atoms: C_23  and  N_31
REMARK   18  A    between atoms: C_25  and  O_27
REMARK   19  A    between atoms: C_28  and  O_30
REMARK                            x       y       z     vdW  Elec       q    Type
REMARK                         _______ _______ _______ _____ _____    ______ ____
ROOT
ATOM      1  P   UNL     1       8.984  -1.795  22.936  0.00  0.00    +0.483 P 
ATOM      2  O   UNL     1      10.145  -1.779  21.939  0.00  0.00    -0.227 OA
ENDROOT
BRANCH   1   3
ATOM      3  O   UNL     1       7.959  -2.890  22.277  0.00  0.00    -0.302 OA
ATOM      4  H   UNL     1       7.422  -3.244  23.018  0.00  0.00    +0.222 HD
ENDBRANCH   1   3
BRANCH   1   5
ATOM      5  O   UNL     1       9.784  -3.029  23.846  0.00  0.00    -0.284 OA
BRANCH   5   6
ATOM      6  C   UNL     1       9.216  -3.199  25.152  0.00  0.00    +0.206 C 
BRANCH   6   7
ATOM      7  C   UNL     1       8.667  -4.611  25.420  0.00  0.00    +0.178 C 
ATOM      8  C   UNL     1       7.890  -4.623  26.744  0.00  0.00    +0.178 C 
ATOM      9  C   UNL     1       6.426  -4.426  26.351  0.00  0.00    +0.195 C 
ATOM     10  C   UNL     1       6.431  -4.505  24.812  0.00  0.00    +0.255 C 
ATOM     11  O   UNL     1       7.710  -5.034  24.423  0.00  0.00    -0.346 OA
BRANCH  10  12
ATOM     12  N   UNL     1       5.328  -5.309  24.296  0.00  0.00    -0.270 N 
ATOM     13  C   UNL     1       4.671  -4.807  23.167  0.00  0.00    +0.352 A 
ATOM     14  O   UNL     1       5.019  -3.734  22.673  0.00  0.00    -0.244 OA
ATOM     15  N   UNL     1       3.620  -5.521  22.645  0.00  0.00    -0.178 NA
ATOM     16  C   UNL     1       3.181  -6.566  23.276  0.00  0.00    +0.123 A 
ATOM     17  N   UNL     1       2.120  -7.234  22.721  0.00  0.00    -0.343 N 
ATOM     18  H   UNL     1       1.968  -6.994  21.746  0.00  0.00    +0.144 HD
ATOM     19  H   UNL     1       2.028  -8.223  22.916  0.00  0.00    +0.144 HD
ATOM     20  C   UNL     1       3.765  -7.057  24.539  0.00  0.00    +0.061 A 
ATOM     21  C   UNL     1       4.841  -6.397  24.976  0.00  0.00    +0.096 A 
ENDBRANCH  10  12
BRANCH   8  22
ATOM     22  O   UNL     1       8.060  -5.886  27.399  0.00  0.00    -0.386 OA
ATOM     23  H   UNL     1       9.013  -6.080  27.447  0.00  0.00    +0.210 HD
ENDBRANCH   8  22
BRANCH   9  24
ATOM     24  O   UNL     1       5.937  -3.157  26.796  0.00  0.00    -0.385 OA
ATOM     25  H   UNL     1       6.648  -2.501  26.619  0.00  0.00    +0.210 HD
ENDBRANCH   9  24
ENDBRANCH   6   7
ENDBRANCH   5   6
ENDBRANCH   1   5
BRANCH   1  26
ATOM     26  O   UNL     1       8.184  -0.561  22.026  0.00  0.00    -0.186 OA
BRANCH  26  27
ATOM     27  P   UNL     1       9.235   0.803  21.855  0.00  0.00    +0.483 P 
ATOM     28  O   UNL     1       8.097   1.681  21.336  0.00  0.00    -0.227 OA
BRANCH  27  29
ATOM     29  O   UNL     1      10.286   2.167  21.685  0.00  0.00    -0.302 OA
ATOM     30  H   UNL     1      10.112   2.681  22.499  0.00  0.00    +0.222 HD
ENDBRANCH  27  29
BRANCH  27  31
ATOM     31  O   UNL     1       9.319   0.932  23.514  0.00  0.00    -0.284 OA
BRANCH  31  32
ATOM     32  C   UNL     1       9.668   2.249  23.992  0.00  0.00    +0.206 C 
BRANCH  32  33
ATOM     33  C   UNL     1       8.503   3.060  24.569  0.00  0.00    +0.174 C 
BRANCH  33  34
ATOM     34  O   UNL     1       7.289   2.338  24.341  0.00  0.00    -0.387 OA
ATOM     35  H   UNL     1       6.847   2.737  23.572  0.00  0.00    +0.210 HD
ENDBRANCH  33  34
BRANCH  33  37
ATOM     36  C   UNL     1       7.208   5.287  24.411  0.00  0.00    +0.046 C 
ATOM     37  C   UNL     1       8.429   4.487  23.923  0.00  0.00    +0.114 C 
BRANCH  37  38
ATOM     38  O   UNL     1       8.336   4.370  22.490  0.00  0.00    -0.384 OA
ATOM     39  H   UNL     1       7.929   3.509  22.291  0.00  0.00    +0.210 HD
ENDBRANCH  37  38
BRANCH  37  40
ATOM     40  C   UNL     1       9.728   5.266  24.215  0.00  0.00    +0.192 C 
BRANCH  40  41
ATOM     41  O   UNL     1      10.377   5.651  23.000  0.00  0.00    -0.392 OA
ATOM     42  H   UNL     1      10.093   6.564  22.814  0.00  0.00    +0.210 HD
ENDBRANCH  40  41
ENDBRANCH  37  40
ENDBRANCH  33  37
ENDBRANCH  32  33
ENDBRANCH  31  32
ENDBRANCH  27  31
ENDBRANCH  26  27
ENDBRANCH   1  26
TORSDOF 18
ENDMDL
MODEL 6
REMARK VINA RESULT:      -6.2      2.027      3.527
REMARK  Name = 
REMARK  19 active torsions:
REMARK  status: ('A' for Active; 'I' for Inactive)
REMARK    1  A    between atoms: C_1  and  C_2
REMARK    2  A    between atoms: C_2  and  O_3
REMARK    3  A    between atoms: C_2  and  C_4
REMARK    4  A    between atoms: C_2  and  C_6
REMARK    5  A    between atoms: C_4  and  O_5
REMARK    6  A    between atoms: C_6  and  O_8
REMARK    7  A    between atoms: C_6  and  C_9
REMARK    8  A    between atoms: C_9  and  O_10
REMARK    9  A    between atoms: O_10  and  P_11
REMARK   10  A    between atoms: P_11  and  O_12
REMARK   11  A    between atoms: P_11  and  O_14
REMARK   12  A    between atoms: O_14  and  P_15
REMARK   13  A    between atoms: P_15  and  O_16
REMARK   14  A    between atoms: P_15  and  O_18
REMARK   15  A    between atoms: O_18  and  C_19
REMARK   16  A    between atoms: C_19  and  C_20
REMARK   17  A    between atoms: C_23  and  N_31
REMARK   18  A    between atoms: C_25  and  O_27
REMARK   19  A    between atoms: C_28  and  O_30
REMARK                            x       y       z     vdW  Elec       q    Type
REMARK                         _______ _______ _______ _____ _____    ______ ____
ROOT
ATOM      1  P   UNL     1       8.800  -1.604  23.087  0.00  0.00    +0.483 P 
ATOM      2  O   UNL     1       8.273  -1.355  24.501  0.00  0.00    -0.227 OA
ENDROOT
BRANCH   1   3
ATOM      3  O   UNL     1      10.194  -0.743  23.065  0.00  0.00    -0.302 OA
ATOM      4  H   UNL     1       9.950   0.178  23.297  0.00  0.00    +0.222 HD
ENDBRANCH   1   3
BRANCH   1   5
ATOM      5  O   UNL     1       9.631  -3.015  23.645  0.00  0.00    -0.284 OA
BRANCH   5   6
ATOM      6  C   UNL     1       9.398  -3.270  25.038  0.00  0.00    +0.206 C 
BRANCH   6   7
ATOM      7  C   UNL     1       8.806  -4.659  25.332  0.00  0.00    +0.178 C 
ATOM      8  C   UNL     1       8.052  -4.628  26.669  0.00  0.00    +0.178 C 
ATOM      9  C   UNL     1       6.589  -4.386  26.297  0.00  0.00    +0.195 C 
ATOM     10  C   UNL     1       6.565  -4.484  24.759  0.00  0.00    +0.255 C 
ATOM     11  O   UNL     1       7.819  -5.061  24.357  0.00  0.00    -0.346 OA
BRANCH  10  12
ATOM     12  N   UNL     1       5.427  -5.256  24.272  0.00  0.00    -0.270 N 
ATOM     13  C   UNL     1       4.673  -4.669  23.249  0.00  0.00    +0.352 A 
ATOM     14  O   UNL     1       4.972  -3.554  22.821  0.00  0.00    -0.244 OA
ATOM     15  N   UNL     1       3.586  -5.351  22.759  0.00  0.00    -0.178 NA
ATOM     16  C   UNL     1       3.209  -6.450  23.333  0.00  0.00    +0.123 A 
ATOM     17  N   UNL     1       2.109  -7.083  22.815  0.00  0.00    -0.343 N 
ATOM     18  H   UNL     1       1.872  -6.764  21.880  0.00  0.00    +0.144 HD
ATOM     19  H   UNL     1       2.039  -8.087  22.932  0.00  0.00    +0.144 HD
ATOM     20  C   UNL     1       3.901  -7.039  24.496  0.00  0.00    +0.061 A 
ATOM     21  C   UNL     1       5.007  -6.403  24.895  0.00  0.00    +0.096 A 
ENDBRANCH  10  12
BRANCH   8  22
ATOM     22  O   UNL     1       8.190  -5.889  27.337  0.00  0.00    -0.386 OA
ATOM     23  H   UNL     1       9.011  -5.868  27.861  0.00  0.00    +0.210 HD
ENDBRANCH   8  22
BRANCH   9  24
ATOM     24  O   UNL     1       6.151  -3.096  26.735  0.00  0.00    -0.385 OA
ATOM     25  H   UNL     1       5.399  -3.245  27.350  0.00  0.00    +0.210 HD
ENDBRANCH   9  24
ENDBRANCH   6   7
ENDBRANCH   5   6
ENDBRANCH   1   5
BRANCH   1  26
ATOM     26  O   UNL     1       7.969  -0.194  22.528  0.00  0.00    -0.186 OA
BRANCH  26  27
ATOM     27  P   UNL     1       9.123   1.012  22.070  0.00  0.00    +0.483 P 
ATOM     28  O   UNL     1       8.120   1.693  21.140  0.00  0.00    -0.227 OA
BRANCH  27  29
ATOM     29  O   UNL     1      10.277   2.217  21.612  0.00  0.00    -0.302 OA
ATOM     30  H   UNL     1      10.053   2.968  22.198  0.00  0.00    +0.222 HD
ENDBRANCH  27  29
BRANCH  27  31
ATOM     31  O   UNL     1       9.010   1.682  23.590  0.00  0.00    -0.284 OA
BRANCH  31  32
ATOM     32  C   UNL     1       7.721   2.258  23.894  0.00  0.00    +0.206 C 
BRANCH  32  33
ATOM     33  C   UNL     1       7.186   1.949  25.295  0.00  0.00    +0.174 C 
BRANCH  33  34
ATOM     34  O   UNL     1       8.137   1.124  25.975  0.00  0.00    -0.387 OA
ATOM     35  H   UNL     1       9.026   1.434  25.730  0.00  0.00    +0.210 HD
ENDBRANCH  33  34
BRANCH  33  37
ATOM     36  C   UNL     1       5.513   0.367  26.462  0.00  0.00    +0.046 C 
ATOM     37  C   UNL     1       5.787   1.241  25.225  0.00  0.00    +0.114 C 
BRANCH  37  38
ATOM     38  O   UNL     1       5.728   0.391  24.063  0.00  0.00    -0.384 OA
ATOM     39  H   UNL     1       6.092   0.893  23.313  0.00  0.00    +0.210 HD
ENDBRANCH  37  38
BRANCH  37  40
ATOM     40  C   UNL     1       4.672   2.292  25.057  0.00  0.00    +0.192 C 
BRANCH  40  41
ATOM     41  O   UNL     1       4.179   2.303  23.714  0.00  0.00    -0.392 OA
ATOM     42  H   UNL     1       4.609   1.557  23.258  0.00  0.00    +0.210 HD
ENDBRANCH  40  41
ENDBRANCH  37  40
ENDBRANCH  33  37
ENDBRANCH  32  33
ENDBRANCH  31  32
ENDBRANCH  27  31
ENDBRANCH  26  27
ENDBRANCH   1  26
TORSDOF 18
ENDMDL
MODEL 7
REMARK VINA RESULT:      -6.2      4.013      7.868
REMARK  Name = 
REMARK  19 active torsions:
REMARK  status: ('A' for Active; 'I' for Inactive)
REMARK    1  A    between atoms: C_1  and  C_2
REMARK    2  A    between atoms: C_2  and  O_3
REMARK    3  A    between atoms: C_2  and  C_4
REMARK    4  A    between atoms: C_2  and  C_6
REMARK    5  A    between atoms: C_4  and  O_5
REMARK    6  A    between atoms: C_6  and  O_8
REMARK    7  A    between atoms: C_6  and  C_9
REMARK    8  A    between atoms: C_9  and  O_10
REMARK    9  A    between atoms: O_10  and  P_11
REMARK   10  A    between atoms: P_11  and  O_12
REMARK   11  A    between atoms: P_11  and  O_14
REMARK   12  A    between atoms: O_14  and  P_15
REMARK   13  A    between atoms: P_15  and  O_16
REMARK   14  A    between atoms: P_15  and  O_18
REMARK   15  A    between atoms: O_18  and  C_19
REMARK   16  A    between atoms: C_19  and  C_20
REMARK   17  A    between atoms: C_23  and  N_31
REMARK   18  A    between atoms: C_25  and  O_27
REMARK   19  A    between atoms: C_28  and  O_30
REMARK                            x       y       z     vdW  Elec       q    Type
REMARK                         _______ _______ _______ _____ _____    ______ ____
ROOT
ATOM      1  P   UNL     1       7.296  -3.255  25.802  0.00  0.00    +0.483 P 
ATOM      2  O   UNL     1       7.990  -2.182  26.642  0.00  0.00    -0.227 OA
ENDROOT
BRANCH   1   3
ATOM      3  O   UNL     1       5.835  -2.582  25.493  0.00  0.00    -0.302 OA
ATOM      4  H   UNL     1       5.444  -3.099  24.757  0.00  0.00    +0.222 HD
ENDBRANCH   1   3
BRANCH   1   5
ATOM      5  O   UNL     1       7.966  -2.562  24.365  0.00  0.00    -0.284 OA
BRANCH   5   6
ATOM      6  C   UNL     1       9.400  -2.526  24.394  0.00  0.00    +0.206 C 
BRANCH   6   7
ATOM      7  C   UNL     1      10.023  -1.526  23.406  0.00  0.00    +0.178 C 
ATOM      8  C   UNL     1       8.992  -1.145  22.334  0.00  0.00    +0.178 C 
ATOM      9  C   UNL     1       8.363   0.157  22.829  0.00  0.00    +0.195 C 
ATOM     10  C   UNL     1       9.207   0.545  24.059  0.00  0.00    +0.255 C 
ATOM     11  O   UNL     1      10.386  -0.276  24.033  0.00  0.00    -0.346 OA
BRANCH  10  12
ATOM     12  N   UNL     1       9.530   1.967  24.081  0.00  0.00    -0.270 N 
ATOM     13  C   UNL     1       8.590   2.807  24.689  0.00  0.00    +0.352 A 
ATOM     14  O   UNL     1       7.549   2.339  25.151  0.00  0.00    -0.244 OA
ATOM     15  N   UNL     1       8.842   4.157  24.731  0.00  0.00    -0.178 NA
ATOM     16  C   UNL     1       9.871   4.634  24.102  0.00  0.00    +0.123 A 
ATOM     17  N   UNL     1      10.069   5.989  24.162  0.00  0.00    -0.343 N 
ATOM     18  H   UNL     1       9.542   6.434  24.908  0.00  0.00    +0.144 HD
ATOM     19  H   UNL     1      11.016   6.335  24.071  0.00  0.00    +0.144 HD
ATOM     20  C   UNL     1      10.819   3.797  23.342  0.00  0.00    +0.061 A 
ATOM     21  C   UNL     1      10.600   2.480  23.393  0.00  0.00    +0.096 A 
ENDBRANCH  10  12
BRANCH   8  22
ATOM     22  O   UNL     1       9.648  -0.930  21.078  0.00  0.00    -0.386 OA
ATOM     23  H   UNL     1       8.967  -0.868  20.384  0.00  0.00    +0.210 HD
ENDBRANCH   8  22
BRANCH   9  24
ATOM     24  O   UNL     1       6.991  -0.035  23.190  0.00  0.00    -0.385 OA
ATOM     25  H   UNL     1       6.836   0.489  24.007  0.00  0.00    +0.210 HD
ENDBRANCH   9  24
ENDBRANCH   6   7
ENDBRANCH   5   6
ENDBRANCH   1   5
BRANCH   1  26
ATOM     26  O   UNL     1       6.626  -3.948  27.238  0.00  0.00    -0.186 OA
BRANCH  26  27
ATOM     27  P   UNL     1       5.878  -5.460  26.854  0.00  0.00    +0.483 P 
ATOM     28  O   UNL     1       4.478  -4.873  27.031  0.00  0.00    -0.227 OA
BRANCH  27  29
ATOM     29  O   UNL     1       5.130  -6.972  26.470  0.00  0.00    -0.302 OA
ATOM     30  H   UNL     1       5.884  -7.596  26.469  0.00  0.00    +0.222 HD
ENDBRANCH  27  29
BRANCH  27  31
ATOM     31  O   UNL     1       6.356  -5.282  25.269  0.00  0.00    -0.284 OA
BRANCH  31  32
ATOM     32  C   UNL     1       5.572  -6.041  24.321  0.00  0.00    +0.206 C 
BRANCH  32  33
ATOM     33  C   UNL     1       5.040  -5.239  23.130  0.00  0.00    +0.174 C 
BRANCH  33  34
ATOM     34  O   UNL     1       4.002  -5.994  22.498  0.00  0.00    -0.387 OA
ATOM     35  H   UNL     1       3.694  -6.663  23.134  0.00  0.00    +0.210 HD
ENDBRANCH  33  34
BRANCH  33  37
ATOM     36  C   UNL     1       6.180  -5.857  20.898  0.00  0.00    +0.046 C 
ATOM     37  C   UNL     1       6.185  -4.908  22.110  0.00  0.00    +0.114 C 
BRANCH  37  38
ATOM     38  O   UNL     1       7.466  -5.029  22.759  0.00  0.00    -0.384 OA
ATOM     39  H   UNL     1       7.860  -4.141  22.800  0.00  0.00    +0.210 HD
ENDBRANCH  37  38
BRANCH  37  40
ATOM     40  C   UNL     1       6.068  -3.444  21.641  0.00  0.00    +0.192 C 
BRANCH  40  41
ATOM     41  O   UNL     1       5.463  -2.632  22.651  0.00  0.00    -0.392 OA
ATOM     42  H   UNL     1       4.898  -3.225  23.178  0.00  0.00    +0.210 HD
ENDBRANCH  40  41
ENDBRANCH  37  40
ENDBRANCH  33  37
ENDBRANCH  32  33
ENDBRANCH  31  32
ENDBRANCH  27  31
ENDBRANCH  26  27
ENDBRANCH   1  26
TORSDOF 18
ENDMDL
MODEL 8
REMARK VINA RESULT:      -6.1      3.709      7.528
REMARK  Name = 
REMARK  19 active torsions:
REMARK  status: ('A' for Active; 'I' for Inactive)
REMARK    1  A    between atoms: C_1  and  C_2
REMARK    2  A    between atoms: C_2  and  O_3
REMARK    3  A    between atoms: C_2  and  C_4
REMARK    4  A    between atoms: C_2  and  C_6
REMARK    5  A    between atoms: C_4  and  O_5
REMARK    6  A    between atoms: C_6  and  O_8
REMARK    7  A    between atoms: C_6  and  C_9
REMARK    8  A    between atoms: C_9  and  O_10
REMARK    9  A    between atoms: O_10  and  P_11
REMARK   10  A    between atoms: P_11  and  O_12
REMARK   11  A    between atoms: P_11  and  O_14
REMARK   12  A    between atoms: O_14  and  P_15
REMARK   13  A    between atoms: P_15  and  O_16
REMARK   14  A    between atoms: P_15  and  O_18
REMARK   15  A    between atoms: O_18  and  C_19
REMARK   16  A    between atoms: C_19  and  C_20
REMARK   17  A    between atoms: C_23  and  N_31
REMARK   18  A    between atoms: C_25  and  O_27
REMARK   19  A    between atoms: C_28  and  O_30
REMARK                            x       y       z     vdW  Elec       q    Type
REMARK                         _______ _______ _______ _____ _____    ______ ____
ROOT
ATOM      1  P   UNL     1       8.929  -4.734  25.346  0.00  0.00    +0.483 P 
ATOM      2  O   UNL     1       9.458  -5.860  24.456  0.00  0.00    -0.227 OA
ENDROOT
BRANCH   1   3
ATOM      3  O   UNL     1       9.814  -4.910  26.714  0.00  0.00    -0.302 OA
ATOM      4  H   UNL     1       9.951  -4.006  27.070  0.00  0.00    +0.222 HD
ENDBRANCH   1   3
BRANCH   1   5
ATOM      5  O   UNL     1      10.102  -3.654  24.675  0.00  0.00    -0.284 OA
BRANCH   5   6
ATOM      6  C   UNL     1       9.506  -2.656  23.834  0.00  0.00    +0.206 C 
BRANCH   6   7
ATOM      7  C   UNL     1       8.385  -1.849  24.512  0.00  0.00    +0.178 C 
ATOM      8  C   UNL     1       8.957  -1.069  25.704  0.00  0.00    +0.178 C 
ATOM      9  C   UNL     1       9.258   0.327  25.161  0.00  0.00    +0.195 C 
ATOM     10  C   UNL     1       8.662   0.320  23.739  0.00  0.00    +0.255 C 
ATOM     11  O   UNL     1       7.821  -0.842  23.644  0.00  0.00    -0.346 OA
BRANCH  10  12
ATOM     12  N   UNL     1       7.934   1.548  23.439  0.00  0.00    -0.270 N 
ATOM     13  C   UNL     1       7.923   1.950  22.098  0.00  0.00    +0.352 A 
ATOM     14  O   UNL     1       8.522   1.289  21.249  0.00  0.00    -0.244 OA
ATOM     15  N   UNL     1       7.258   3.103  21.762  0.00  0.00    -0.178 NA
ATOM     16  C   UNL     1       6.769   3.855  22.698  0.00  0.00    +0.123 A 
ATOM     17  N   UNL     1       6.128   5.003  22.310  0.00  0.00    -0.343 N 
ATOM     18  H   UNL     1       5.876   5.003  21.326  0.00  0.00    +0.144 HD
ATOM     19  H   UNL     1       5.404   5.371  22.915  0.00  0.00    +0.144 HD
ATOM     20  C   UNL     1       6.869   3.533  24.135  0.00  0.00    +0.061 A 
ATOM     21  C   UNL     1       7.442   2.362  24.428  0.00  0.00    +0.096 A 
ENDBRANCH  10  12
BRANCH   8  22
ATOM     22  O   UNL     1       7.981  -0.993  26.752  0.00  0.00    -0.386 OA
ATOM     23  H   UNL     1       7.485  -1.830  26.769  0.00  0.00    +0.210 HD
ENDBRANCH   8  22
BRANCH   9  24
ATOM     24  O   UNL     1      10.667   0.575  25.124  0.00  0.00    -0.385 OA
ATOM     25  H   UNL     1      10.886   1.091  25.932  0.00  0.00    +0.210 HD
ENDBRANCH   9  24
ENDBRANCH   6   7
ENDBRANCH   5   6
ENDBRANCH   1   5
BRANCH   1  26
ATOM     26  O   UNL     1       7.757  -5.814  26.017  0.00  0.00    -0.186 OA
BRANCH  26  27
ATOM     27  P   UNL     1       6.437  -4.902  26.666  0.00  0.00    +0.483 P 
ATOM     28  O   UNL     1       7.379  -3.836  27.222  0.00  0.00    -0.227 OA
BRANCH  27  29
ATOM     29  O   UNL     1       5.117  -3.991  27.314  0.00  0.00    -0.302 OA
ATOM     30  H   UNL     1       4.348  -4.335  26.817  0.00  0.00    +0.222 HD
ENDBRANCH  27  29
BRANCH  27  31
ATOM     31  O   UNL     1       5.980  -4.484  25.120  0.00  0.00    -0.284 OA
BRANCH  31  32
ATOM     32  C   UNL     1       5.285  -5.527  24.401  0.00  0.00    +0.206 C 
BRANCH  32  33
ATOM     33  C   UNL     1       4.909  -5.180  22.957  0.00  0.00    +0.174 C 
BRANCH  33  34
ATOM     34  O   UNL     1       4.061  -6.213  22.446  0.00  0.00    -0.387 OA
ATOM     35  H   UNL     1       4.311  -6.369  21.518  0.00  0.00    +0.210 HD
ENDBRANCH  33  34
BRANCH  33  37
ATOM     36  C   UNL     1       6.061  -5.764  20.722  0.00  0.00    +0.046 C 
ATOM     37  C   UNL     1       6.187  -5.016  22.061  0.00  0.00    +0.114 C 
BRANCH  37  38
ATOM     38  O   UNL     1       7.338  -5.540  22.752  0.00  0.00    -0.384 OA
ATOM     39  H   UNL     1       7.815  -4.787  23.141  0.00  0.00    +0.210 HD
ENDBRANCH  37  38
BRANCH  37  40
ATOM     40  C   UNL     1       6.468  -3.521  21.812  0.00  0.00    +0.192 C 
BRANCH  40  41
ATOM     41  O   UNL     1       5.559  -2.701  22.552  0.00  0.00    -0.392 OA
ATOM     42  H   UNL     1       5.119  -3.288  23.193  0.00  0.00    +0.210 HD
ENDBRANCH  40  41
ENDBRANCH  37  40
ENDBRANCH  33  37
ENDBRANCH  32  33
ENDBRANCH  31  32
ENDBRANCH  27  31
ENDBRANCH  26  27
ENDBRANCH   1  26
TORSDOF 18
ENDMDL
MODEL 9
REMARK VINA RESULT:      -5.9      2.692      4.529
REMARK  Name = 
REMARK  19 active torsions:
REMARK  status: ('A' for Active; 'I' for Inactive)
REMARK    1  A    between atoms: C_1  and  C_2
REMARK    2  A    between atoms: C_2  and  O_3
REMARK    3  A    between atoms: C_2  and  C_4
REMARK    4  A    between atoms: C_2  and  C_6
REMARK    5  A    between atoms: C_4  and  O_5
REMARK    6  A    between atoms: C_6  and  O_8
REMARK    7  A    between atoms: C_6  and  C_9
REMARK    8  A    between atoms: C_9  and  O_10
REMARK    9  A    between atoms: O_10  and  P_11
REMARK   10  A    between atoms: P_11  and  O_12
REMARK   11  A    between atoms: P_11  and  O_14
REMARK   12  A    between atoms: O_14  and  P_15
REMARK   13  A    between atoms: P_15  and  O_16
REMARK   14  A    between atoms: P_15  and  O_18
REMARK   15  A    between atoms: O_18  and  C_19
REMARK   16  A    between atoms: C_19  and  C_20
REMARK   17  A    between atoms: C_23  and  N_31
REMARK   18  A    between atoms: C_25  and  O_27
REMARK   19  A    between atoms: C_28  and  O_30
REMARK                            x       y       z     vdW  Elec       q    Type
REMARK                         _______ _______ _______ _____ _____    ______ ____
ROOT
ATOM      1  P   UNL     1       8.680  -0.821  24.522  0.00  0.00    +0.483 P 
ATOM      2  O   UNL     1       8.709  -1.537  23.170  0.00  0.00    -0.227 OA
ENDROOT
BRANCH   1   3
ATOM      3  O   UNL     1       7.108  -0.952  24.965  0.00  0.00    -0.302 OA
ATOM      4  H   UNL     1       6.584  -0.887  24.138  0.00  0.00    +0.222 HD
ENDBRANCH   1   3
BRANCH   1   5
ATOM      5  O   UNL     1       9.072  -2.307  25.316  0.00  0.00    -0.284 OA
BRANCH   5   6
ATOM      6  C   UNL     1       9.330  -3.370  24.388  0.00  0.00    +0.206 C 
BRANCH   6   7
ATOM      7  C   UNL     1       8.799  -4.742  24.840  0.00  0.00    +0.178 C 
ATOM      8  C   UNL     1       8.168  -4.619  26.235  0.00  0.00    +0.178 C 
ATOM      9  C   UNL     1       6.673  -4.430  25.982  0.00  0.00    +0.195 C 
ATOM     10  C   UNL     1       6.512  -4.648  24.465  0.00  0.00    +0.255 C 
ATOM     11  O   UNL     1       7.737  -5.234  23.994  0.00  0.00    -0.346 OA
BRANCH  10  12
ATOM     12  N   UNL     1       5.352  -5.473  24.145  0.00  0.00    -0.270 N 
ATOM     13  C   UNL     1       4.574  -5.054  23.060  0.00  0.00    +0.352 A 
ATOM     14  O   UNL     1       4.870  -4.030  22.443  0.00  0.00    -0.244 OA
ATOM     15  N   UNL     1       3.466  -5.792  22.720  0.00  0.00    -0.178 NA
ATOM     16  C   UNL     1       3.095  -6.775  23.480  0.00  0.00    +0.123 A 
ATOM     17  N   UNL     1       1.974  -7.470  23.105  0.00  0.00    -0.343 N 
ATOM     18  H   UNL     1       1.713  -7.307  22.138  0.00  0.00    +0.144 HD
ATOM     19  H   UNL     1       1.898  -8.438  23.390  0.00  0.00    +0.144 HD
ATOM     20  C   UNL     1       3.816  -7.172  24.705  0.00  0.00    +0.061 A 
ATOM     21  C   UNL     1       4.939  -6.495  24.962  0.00  0.00    +0.096 A 
ENDBRANCH  10  12
BRANCH   8  22
ATOM     22  O   UNL     1       8.395  -5.821  26.981  0.00  0.00    -0.386 OA
ATOM     23  H   UNL     1       9.000  -6.388  26.471  0.00  0.00    +0.210 HD
ENDBRANCH   8  22
BRANCH   9  24
ATOM     24  O   UNL     1       6.246  -3.117  26.359  0.00  0.00    -0.385 OA
ATOM     25  H   UNL     1       6.398  -2.535  25.581  0.00  0.00    +0.210 HD
ENDBRANCH   9  24
ENDBRANCH   6   7
ENDBRANCH   5   6
ENDBRANCH   1   5
BRANCH   1  26
ATOM     26  O   UNL     1       8.288   0.665  23.727  0.00  0.00    -0.186 OA
BRANCH  26  27
ATOM     27  P   UNL     1       6.620   1.038  23.993  0.00  0.00    +0.483 P 
ATOM     28  O   UNL     1       6.970   2.121  25.012  0.00  0.00    -0.227 OA
BRANCH  27  29
ATOM     29  O   UNL     1       4.951   1.411  24.258  0.00  0.00    -0.302 OA
ATOM     30  H   UNL     1       4.489   0.768  23.685  0.00  0.00    +0.222 HD
ENDBRANCH  27  29
BRANCH  27  31
ATOM     31  O   UNL     1       6.540   1.714  22.473  0.00  0.00    -0.284 OA
BRANCH  31  32
ATOM     32  C   UNL     1       6.298   3.138  22.466  0.00  0.00    +0.206 C 
BRANCH  32  33
ATOM     33  C   UNL     1       7.498   3.998  22.055  0.00  0.00    +0.174 C 
BRANCH  33  34
ATOM     34  O   UNL     1       8.660   3.513  22.735  0.00  0.00    -0.387 OA
ATOM     35  H   UNL     1       9.440   3.800  22.229  0.00  0.00    +0.210 HD
ENDBRANCH  33  34
BRANCH  33  37
ATOM     36  C   UNL     1       5.820   5.774  22.886  0.00  0.00    +0.046 C 
ATOM     37  C   UNL     1       7.252   5.511  22.387  0.00  0.00    +0.114 C 
BRANCH  37  38
ATOM     38  O   UNL     1       7.461   6.310  21.206  0.00  0.00    -0.384 OA
ATOM     39  H   UNL     1       7.456   5.709  20.440  0.00  0.00    +0.210 HD
ENDBRANCH  37  38
BRANCH  37  40
ATOM     40  C   UNL     1       8.277   5.996  23.431  0.00  0.00    +0.192 C 
BRANCH  40  41
ATOM     41  O   UNL     1       9.576   6.130  22.847  0.00  0.00    -0.392 OA
ATOM     42  H   UNL     1      10.171   5.558  23.365  0.00  0.00    +0.210 HD
ENDBRANCH  40  41
ENDBRANCH  37  40
ENDBRANCH  33  37
ENDBRANCH  32  33
ENDBRANCH  31  32
ENDBRANCH  27  31
ENDBRANCH  26  27
ENDBRANCH   1  26
TORSDOF 18
ENDMDL
