MODEL 1
REMARK VINA RESULT:      -7.9      0.000      0.000
REMARK  Name = 
REMARK  5 active torsions:
REMARK  status: ('A' for Active; 'I' for Inactive)
REMARK    1  A    between atoms: C_1  and  C_2
REMARK    2  A    between atoms: C_3  and  C_16
REMARK    3  A    between atoms: C_12  and  C_13
REMARK    4  A    between atoms: C_13  and  O_14
REMARK    5  A    between atoms: C_19  and  C_22
REMARK                            x       y       z     vdW  Elec       q    Type
REMARK                         _______ _______ _______ _____ _____    ______ ____
ROOT
ATOM      1  C   UNL     1       8.302  -2.690  21.833  0.00  0.00    +0.047 C 
ATOM      2  C   UNL     1       7.756  -2.969  23.210  0.00  0.00    -0.010 A 
ATOM      3  C   UNL     1       7.037  -4.170  23.465  0.00  0.00    +0.073 A 
ATOM      4  C   UNL     1       6.657  -4.540  24.789  0.00  0.00    +0.017 A 
ATOM      5  C   UNL     1       6.936  -3.592  25.785  0.00  0.00    +0.073 A 
ATOM      6  C   UNL     1       6.558  -3.839  27.101  0.00  0.00    +0.031 A 
ATOM      7  C   UNL     1       5.912  -5.015  27.479  0.00  0.00    +0.040 A 
ATOM      8  C   UNL     1       5.656  -5.970  26.518  0.00  0.00    +0.124 A 
ATOM      9  F   UNL     1       5.052  -7.114  26.858  0.00  0.00    -0.205 F 
ATOM     10  N   UNL     1       7.526  -2.414  25.531  0.00  0.00    -0.246 NA
ATOM     11  C   UNL     1       6.015  -5.746  25.195  0.00  0.00    +0.049 A 
ATOM     12  C   UNL     1       7.923  -2.080  24.276  0.00  0.00    +0.075 A 
ENDROOT
BRANCH  12  13
ATOM     13  C   UNL     1       8.484  -0.697  24.205  0.00  0.00    +0.001 A 
ATOM     14  C   UNL     1       7.749   0.351  23.620  0.00  0.00    +0.010 A 
ATOM     15  C   UNL     1       8.259   1.659  23.512  0.00  0.00    +0.009 A 
ATOM     16  C   UNL     1       9.534   1.994  23.994  0.00  0.00    -0.015 A 
ATOM     17  C   UNL     1      10.282   0.943  24.545  0.00  0.00    +0.009 A 
ATOM     18  C   UNL     1       9.779  -0.367  24.630  0.00  0.00    +0.010 A 
BRANCH  16  19
ATOM     19  C   UNL     1      10.069   3.378  23.919  0.00  0.00    +0.017 A 
ATOM     20  C   UNL     1       9.319   4.494  24.343  0.00  0.00    +0.131 A 
ATOM     21  F   UNL     1       8.070   4.340  24.812  0.00  0.00    -0.205 F 
ATOM     22  C   UNL     1       9.824   5.795  24.287  0.00  0.00    +0.039 A 
ATOM     23  C   UNL     1      11.102   6.024  23.789  0.00  0.00    +0.003 A 
ATOM     24  C   UNL     1      11.868   4.949  23.351  0.00  0.00    +0.001 A 
ATOM     25  C   UNL     1      11.360   3.644  23.420  0.00  0.00    +0.011 A 
ENDBRANCH  16  19
ENDBRANCH  12  13
BRANCH   3  26
ATOM     26  C   UNL     1       6.520  -4.927  22.288  0.00  0.00    +0.338 C 
ATOM     27  O   UNL     1       7.106  -5.838  21.733  0.00  0.00    -0.245 OA
BRANCH  26  28
ATOM     28  O   UNL     1       5.329  -4.514  21.831  0.00  0.00    -0.477 OA
ATOM     29  H   UNL     1       5.182  -5.067  21.033  0.00  0.00    +0.295 HD
ENDBRANCH  26  28
ENDBRANCH   3  26
TORSDOF 4
ENDMDL
MODEL 2
REMARK VINA RESULT:      -7.8      0.915      1.435
REMARK  Name = 
REMARK  5 active torsions:
REMARK  status: ('A' for Active; 'I' for Inactive)
REMARK    1  A    between atoms: C_1  and  C_2
REMARK    2  A    between atoms: C_3  and  C_16
REMARK    3  A    between atoms: C_12  and  C_13
REMARK    4  A    between atoms: C_13  and  O_14
REMARK    5  A    between atoms: C_19  and  C_22
REMARK                            x       y       z     vdW  Elec       q    Type
REMARK                         _______ _______ _______ _____ _____    ______ ____
ROOT
ATOM      1  C   UNL     1       8.278  -2.347  22.006  0.00  0.00    +0.047 C 
ATOM      2  C   UNL     1       7.651  -2.715  23.327  0.00  0.00    -0.010 A 
ATOM      3  C   UNL     1       7.016  -3.977  23.491  0.00  0.00    +0.073 A 
ATOM      4  C   UNL     1       6.566  -4.420  24.769  0.00  0.00    +0.017 A 
ATOM      5  C   UNL     1       6.687  -3.486  25.809  0.00  0.00    +0.073 A 
ATOM      6  C   UNL     1       6.229  -3.807  27.084  0.00  0.00    +0.031 A 
ATOM      7  C   UNL     1       5.655  -5.043  27.377  0.00  0.00    +0.040 A 
ATOM      8  C   UNL     1       5.553  -5.982  26.373  0.00  0.00    +0.124 A 
ATOM      9  F   UNL     1       5.021  -7.182  26.632  0.00  0.00    -0.205 F 
ATOM     10  N   UNL     1       7.197  -2.257  25.636  0.00  0.00    -0.246 NA
ATOM     11  C   UNL     1       5.995  -5.687  25.090  0.00  0.00    +0.049 A 
ATOM     12  C   UNL     1       7.661  -1.851  24.427  0.00  0.00    +0.075 A 
ENDROOT
BRANCH  12  13
ATOM     13  C   UNL     1       8.111  -0.427  24.438  0.00  0.00    +0.001 A 
ATOM     14  C   UNL     1       7.254   0.604  24.006  0.00  0.00    +0.010 A 
ATOM     15  C   UNL     1       7.656   1.954  23.978  0.00  0.00    +0.009 A 
ATOM     16  C   UNL     1       8.937   2.349  24.392  0.00  0.00    -0.015 A 
ATOM     17  C   UNL     1       9.804   1.319  24.789  0.00  0.00    +0.009 A 
ATOM     18  C   UNL     1       9.408  -0.030  24.794  0.00  0.00    +0.010 A 
BRANCH  16  19
ATOM     19  C   UNL     1       9.361   3.773  24.402  0.00  0.00    +0.017 A 
ATOM     20  C   UNL     1      10.459   4.233  23.647  0.00  0.00    +0.131 A 
ATOM     21  F   UNL     1      11.181   3.380  22.902  0.00  0.00    -0.205 F 
ATOM     22  C   UNL     1      10.852   5.573  23.645  0.00  0.00    +0.039 A 
ATOM     23  C   UNL     1      10.160   6.502  24.414  0.00  0.00    +0.003 A 
ATOM     24  C   UNL     1       9.078   6.084  25.181  0.00  0.00    +0.001 A 
ATOM     25  C   UNL     1       8.680   4.739  25.171  0.00  0.00    +0.011 A 
ENDBRANCH  16  19
ENDBRANCH  12  13
BRANCH   3  26
ATOM     26  C   UNL     1       6.656  -4.733  22.256  0.00  0.00    +0.338 C 
ATOM     27  O   UNL     1       5.670  -4.523  21.573  0.00  0.00    -0.245 OA
BRANCH  26  28
ATOM     28  O   UNL     1       7.498  -5.726  21.937  0.00  0.00    -0.477 OA
ATOM     29  H   UNL     1       7.215  -5.989  21.033  0.00  0.00    +0.295 HD
ENDBRANCH  26  28
ENDBRANCH   3  26
TORSDOF 4
ENDMDL
MODEL 3
REMARK VINA RESULT:      -7.8      2.347      3.397
REMARK  Name = 
REMARK  5 active torsions:
REMARK  status: ('A' for Active; 'I' for Inactive)
REMARK    1  A    between atoms: C_1  and  C_2
REMARK    2  A    between atoms: C_3  and  C_16
REMARK    3  A    between atoms: C_12  and  C_13
REMARK    4  A    between atoms: C_13  and  O_14
REMARK    5  A    between atoms: C_19  and  C_22
REMARK                            x       y       z     vdW  Elec       q    Type
REMARK                         _______ _______ _______ _____ _____    ______ ____
ROOT
ATOM      1  C   UNL     1       8.693  -2.193  26.737  0.00  0.00    +0.047 C 
ATOM      2  C   UNL     1       8.262  -2.617  25.357  0.00  0.00    -0.010 A 
ATOM      3  C   UNL     1       8.045  -3.992  25.065  0.00  0.00    +0.073 A 
ATOM      4  C   UNL     1       7.477  -4.406  23.824  0.00  0.00    +0.017 A 
ATOM      5  C   UNL     1       7.263  -3.385  22.887  0.00  0.00    +0.073 A 
ATOM      6  C   UNL     1       6.758  -3.696  21.628  0.00  0.00    +0.031 A 
ATOM      7  C   UNL     1       6.441  -5.003  21.257  0.00  0.00    +0.040 A 
ATOM      8  C   UNL     1       6.620  -6.014  22.176  0.00  0.00    +0.124 A 
ATOM      9  F   UNL     1       6.308  -7.274  21.851  0.00  0.00    -0.205 F 
ATOM     10  N   UNL     1       7.558  -2.098  23.124  0.00  0.00    -0.246 NA
ATOM     11  C   UNL     1       7.129  -5.734  23.437  0.00  0.00    +0.049 A 
ATOM     12  C   UNL     1       8.063  -1.699  24.320  0.00  0.00    +0.075 A 
ENDROOT
BRANCH  12  13
ATOM     13  C   UNL     1       8.392  -0.242  24.343  0.00  0.00    +0.001 A 
ATOM     14  C   UNL     1       9.729   0.195  24.407  0.00  0.00    +0.010 A 
ATOM     15  C   UNL     1      10.072   1.560  24.457  0.00  0.00    +0.009 A 
ATOM     16  C   UNL     1       9.094   2.566  24.436  0.00  0.00    -0.015 A 
ATOM     17  C   UNL     1       7.761   2.131  24.408  0.00  0.00    +0.009 A 
ATOM     18  C   UNL     1       7.420   0.768  24.381  0.00  0.00    +0.010 A 
BRANCH  16  19
ATOM     19  C   UNL     1       9.445   4.010  24.452  0.00  0.00    +0.017 A 
ATOM     20  C   UNL     1      10.546   4.520  23.735  0.00  0.00    +0.131 A 
ATOM     21  F   UNL     1      11.338   3.701  23.024  0.00  0.00    -0.205 F 
ATOM     22  C   UNL     1      10.870   5.879  23.737  0.00  0.00    +0.039 A 
ATOM     23  C   UNL     1      10.104   6.776  24.472  0.00  0.00    +0.003 A 
ATOM     24  C   UNL     1       9.016   6.307  25.202  0.00  0.00    +0.001 A 
ATOM     25  C   UNL     1       8.688   4.945  25.188  0.00  0.00    +0.011 A 
ENDBRANCH  16  19
ENDBRANCH  12  13
BRANCH   3  26
ATOM     26  C   UNL     1       8.615  -4.995  26.011  0.00  0.00    +0.338 C 
ATOM     27  O   UNL     1       7.997  -5.533  26.912  0.00  0.00    -0.245 OA
BRANCH  26  28
ATOM     28  O   UNL     1       9.915  -5.267  25.829  0.00  0.00    -0.477 OA
ATOM     29  H   UNL     1      10.042  -6.121  26.299  0.00  0.00    +0.295 HD
ENDBRANCH  26  28
ENDBRANCH   3  26
TORSDOF 4
ENDMDL
MODEL 4
REMARK VINA RESULT:      -7.7      2.593      3.360
REMARK  Name = 
REMARK  5 active torsions:
REMARK  status: ('A' for Active; 'I' for Inactive)
REMARK    1  A    between atoms: C_1  and  C_2
REMARK    2  A    between atoms: C_3  and  C_16
REMARK    3  A    between atoms: C_12  and  C_13
REMARK    4  A    between atoms: C_13  and  O_14
REMARK    5  A    between atoms: C_19  and  C_22
REMARK                            x       y       z     vdW  Elec       q    Type
REMARK                         _______ _______ _______ _____ _____    ______ ____
ROOT
ATOM      1  C   UNL     1       8.950  -1.912  26.273  0.00  0.00    +0.047 C 
ATOM      2  C   UNL     1       8.356  -2.423  24.985  0.00  0.00    -0.010 A 
ATOM      3  C   UNL     1       8.283  -3.822  24.736  0.00  0.00    +0.073 A 
ATOM      4  C   UNL     1       7.578  -4.338  23.610  0.00  0.00    +0.017 A 
ATOM      5  C   UNL     1       7.072  -3.378  22.721  0.00  0.00    +0.073 A 
ATOM      6  C   UNL     1       6.412  -3.784  21.565  0.00  0.00    +0.031 A 
ATOM      7  C   UNL     1       6.219  -5.130  21.255  0.00  0.00    +0.040 A 
ATOM      8  C   UNL     1       6.684  -6.086  22.132  0.00  0.00    +0.124 A 
ATOM      9  F   UNL     1       6.497  -7.384  21.866  0.00  0.00    -0.205 F 
ATOM     10  N   UNL     1       7.225  -2.058  22.903  0.00  0.00    -0.246 NA
ATOM     11  C   UNL     1       7.354  -5.710  23.289  0.00  0.00    +0.049 A 
ATOM     12  C   UNL     1       7.863  -1.566  23.996  0.00  0.00    +0.075 A 
ENDROOT
BRANCH  12  13
ATOM     13  C   UNL     1       7.989  -0.078  23.962  0.00  0.00    +0.001 A 
ATOM     14  C   UNL     1       8.935   0.547  23.126  0.00  0.00    +0.010 A 
ATOM     15  C   UNL     1       9.099   1.945  23.090  0.00  0.00    +0.009 A 
ATOM     16  C   UNL     1       8.315   2.799  23.882  0.00  0.00    -0.015 A 
ATOM     17  C   UNL     1       7.397   2.176  24.740  0.00  0.00    +0.009 A 
ATOM     18  C   UNL     1       7.252   0.778  24.792  0.00  0.00    +0.010 A 
BRANCH  16  19
ATOM     19  C   UNL     1       8.452   4.278  23.825  0.00  0.00    +0.017 A 
ATOM     20  C   UNL     1       7.744   5.059  22.890  0.00  0.00    +0.131 A 
ATOM     21  F   UNL     1       6.929   4.480  21.993  0.00  0.00    -0.205 F 
ATOM     22  C   UNL     1       7.860   6.450  22.843  0.00  0.00    +0.039 A 
ATOM     23  C   UNL     1       8.706   7.108  23.729  0.00  0.00    +0.003 A 
ATOM     24  C   UNL     1       9.431   6.369  24.659  0.00  0.00    +0.001 A 
ATOM     25  C   UNL     1       9.301   4.974  24.709  0.00  0.00    +0.011 A 
ENDBRANCH  16  19
ENDBRANCH  12  13
BRANCH   3  26
ATOM     26  C   UNL     1       9.134  -4.716  25.573  0.00  0.00    +0.338 C 
ATOM     27  O   UNL     1      10.283  -5.026  25.317  0.00  0.00    -0.245 OA
BRANCH  26  28
ATOM     28  O   UNL     1       8.530  -5.212  26.663  0.00  0.00    -0.477 OA
ATOM     29  H   UNL     1       8.988  -4.764  27.407  0.00  0.00    +0.295 HD
ENDBRANCH  26  28
ENDBRANCH   3  26
TORSDOF 4
ENDMDL
MODEL 5
REMARK VINA RESULT:      -7.5      1.945      2.906
REMARK  Name = 
REMARK  5 active torsions:
REMARK  status: ('A' for Active; 'I' for Inactive)
REMARK    1  A    between atoms: C_1  and  C_2
REMARK    2  A    between atoms: C_3  and  C_16
REMARK    3  A    between atoms: C_12  and  C_13
REMARK    4  A    between atoms: C_13  and  O_14
REMARK    5  A    between atoms: C_19  and  C_22
REMARK                            x       y       z     vdW  Elec       q    Type
REMARK                         _______ _______ _______ _____ _____    ______ ____
ROOT
ATOM      1  C   UNL     1       7.255  -1.336  26.880  0.00  0.00    +0.047 C 
ATOM      2  C   UNL     1       7.289  -2.093  25.577  0.00  0.00    -0.010 A 
ATOM      3  C   UNL     1       6.819  -3.434  25.516  0.00  0.00    +0.073 A 
ATOM      4  C   UNL     1       6.681  -4.116  24.271  0.00  0.00    +0.017 A 
ATOM      5  C   UNL     1       7.146  -3.419  23.146  0.00  0.00    +0.073 A 
ATOM      6  C   UNL     1       7.100  -4.020  21.892  0.00  0.00    +0.031 A 
ATOM      7  C   UNL     1       6.592  -5.305  21.703  0.00  0.00    +0.040 A 
ATOM      8  C   UNL     1       6.105  -5.993  22.793  0.00  0.00    +0.124 A 
ATOM      9  F   UNL     1       5.597  -7.221  22.637  0.00  0.00    -0.205 F 
ATOM     10  N   UNL     1       7.681  -2.190  23.214  0.00  0.00    -0.246 NA
ATOM     11  C   UNL     1       6.146  -5.420  24.058  0.00  0.00    +0.049 A 
ATOM     12  C   UNL     1       7.776  -1.527  24.395  0.00  0.00    +0.075 A 
ENDROOT
BRANCH  12  13
ATOM     13  C   UNL     1       8.471  -0.212  24.256  0.00  0.00    +0.001 A 
ATOM     14  C   UNL     1       7.806   0.902  23.709  0.00  0.00    +0.010 A 
ATOM     15  C   UNL     1       8.441   2.148  23.539  0.00  0.00    +0.009 A 
ATOM     16  C   UNL     1       9.777   2.351  23.917  0.00  0.00    -0.015 A 
ATOM     17  C   UNL     1      10.451   1.233  24.430  0.00  0.00    +0.009 A 
ATOM     18  C   UNL     1       9.822  -0.016  24.578  0.00  0.00    +0.010 A 
BRANCH  16  19
ATOM     19  C   UNL     1      10.446   3.670  23.778  0.00  0.00    +0.017 A 
ATOM     20  C   UNL     1       9.798   4.877  24.111  0.00  0.00    +0.131 A 
ATOM     21  F   UNL     1       8.529   4.873  24.549  0.00  0.00    -0.205 F 
ATOM     22  C   UNL     1      10.429   6.117  23.993  0.00  0.00    +0.039 A 
ATOM     23  C   UNL     1      11.735   6.192  23.523  0.00  0.00    +0.003 A 
ATOM     24  C   UNL     1      12.403   5.023  23.173  0.00  0.00    +0.001 A 
ATOM     25  C   UNL     1      11.769   3.779  23.304  0.00  0.00    +0.011 A 
ENDBRANCH  16  19
ENDBRANCH  12  13
BRANCH   3  26
ATOM     26  C   UNL     1       6.667  -4.171  26.805  0.00  0.00    +0.338 C 
ATOM     27  O   UNL     1       7.561  -4.770  27.375  0.00  0.00    -0.245 OA
BRANCH  26  28
ATOM     28  O   UNL     1       5.427  -4.166  27.314  0.00  0.00    -0.477 OA
ATOM     29  H   UNL     1       4.928  -3.578  26.706  0.00  0.00    +0.295 HD
ENDBRANCH  26  28
ENDBRANCH   3  26
TORSDOF 4
ENDMDL
MODEL 6
REMARK VINA RESULT:      -7.4      2.312      3.050
REMARK  Name = 
REMARK  5 active torsions:
REMARK  status: ('A' for Active; 'I' for Inactive)
REMARK    1  A    between atoms: C_1  and  C_2
REMARK    2  A    between atoms: C_3  and  C_16
REMARK    3  A    between atoms: C_12  and  C_13
REMARK    4  A    between atoms: C_13  and  O_14
REMARK    5  A    between atoms: C_19  and  C_22
REMARK                            x       y       z     vdW  Elec       q    Type
REMARK                         _______ _______ _______ _____ _____    ______ ____
ROOT
ATOM      1  C   UNL     1       8.686  -2.378  26.363  0.00  0.00    +0.047 C 
ATOM      2  C   UNL     1       7.530  -2.875  25.533  0.00  0.00    -0.010 A 
ATOM      3  C   UNL     1       7.181  -4.254  25.546  0.00  0.00    +0.073 A 
ATOM      4  C   UNL     1       5.995  -4.725  24.909  0.00  0.00    +0.017 A 
ATOM      5  C   UNL     1       5.277  -3.764  24.183  0.00  0.00    +0.073 A 
ATOM      6  C   UNL     1       4.132  -4.137  23.485  0.00  0.00    +0.031 A 
ATOM      7  C   UNL     1       3.656  -5.448  23.486  0.00  0.00    +0.040 A 
ATOM      8  C   UNL     1       4.335  -6.399  24.217  0.00  0.00    +0.124 A 
ATOM      9  F   UNL     1       3.890  -7.660  24.248  0.00  0.00    -0.205 F 
ATOM     10  N   UNL     1       5.658  -2.481  24.088  0.00  0.00    -0.246 NA
ATOM     11  C   UNL     1       5.484  -6.057  24.917  0.00  0.00    +0.049 A 
ATOM     12  C   UNL     1       6.765  -2.025  24.728  0.00  0.00    +0.075 A 
ENDROOT
BRANCH  12  13
ATOM     13  C   UNL     1       7.049  -0.590  24.425  0.00  0.00    +0.001 A 
ATOM     14  C   UNL     1       7.909  -0.232  23.369  0.00  0.00    +0.010 A 
ATOM     15  C   UNL     1       8.218   1.110  23.074  0.00  0.00    +0.009 A 
ATOM     16  C   UNL     1       7.675   2.171  23.814  0.00  0.00    -0.015 A 
ATOM     17  C   UNL     1       6.846   1.814  24.889  0.00  0.00    +0.009 A 
ATOM     18  C   UNL     1       6.557   0.473  25.196  0.00  0.00    +0.010 A 
BRANCH  16  19
ATOM     19  C   UNL     1       7.965   3.592  23.490  0.00  0.00    +0.017 A 
ATOM     20  C   UNL     1       7.223   4.306  22.527  0.00  0.00    +0.131 A 
ATOM     21  F   UNL     1       6.232   3.707  21.846  0.00  0.00    -0.205 F 
ATOM     22  C   UNL     1       7.484   5.645  22.229  0.00  0.00    +0.039 A 
ATOM     23  C   UNL     1       8.512   6.315  22.882  0.00  0.00    +0.003 A 
ATOM     24  C   UNL     1       9.273   5.641  23.831  0.00  0.00    +0.001 A 
ATOM     25  C   UNL     1       9.000   4.299  24.135  0.00  0.00    +0.011 A 
ENDBRANCH  16  19
ENDBRANCH  12  13
BRANCH   3  26
ATOM     26  C   UNL     1       8.193  -5.216  26.071  0.00  0.00    +0.338 C 
ATOM     27  O   UNL     1       9.145  -5.641  25.441  0.00  0.00    -0.245 OA
BRANCH  26  28
ATOM     28  O   UNL     1       7.975  -5.635  27.326  0.00  0.00    -0.477 OA
ATOM     29  H   UNL     1       8.581  -5.082  27.865  0.00  0.00    +0.295 HD
ENDBRANCH  26  28
ENDBRANCH   3  26
TORSDOF 4
ENDMDL
MODEL 7
REMARK VINA RESULT:      -7.1      3.281      9.272
REMARK  Name = 
REMARK  5 active torsions:
REMARK  status: ('A' for Active; 'I' for Inactive)
REMARK    1  A    between atoms: C_1  and  C_2
REMARK    2  A    between atoms: C_3  and  C_16
REMARK    3  A    between atoms: C_12  and  C_13
REMARK    4  A    between atoms: C_13  and  O_14
REMARK    5  A    between atoms: C_19  and  C_22
REMARK                            x       y       z     vdW  Elec       q    Type
REMARK                         _______ _______ _______ _____ _____    ______ ____
ROOT
ATOM      1  C   UNL     1       9.199  -2.116  24.149  0.00  0.00    +0.047 C 
ATOM      2  C   UNL     1       8.407  -0.869  23.850  0.00  0.00    -0.010 A 
ATOM      3  C   UNL     1       9.031   0.408  23.915  0.00  0.00    +0.073 A 
ATOM      4  C   UNL     1       8.357   1.585  23.476  0.00  0.00    +0.017 A 
ATOM      5  C   UNL     1       7.019   1.409  23.094  0.00  0.00    +0.073 A 
ATOM      6  C   UNL     1       6.262   2.508  22.698  0.00  0.00    +0.031 A 
ATOM      7  C   UNL     1       6.792   3.797  22.654  0.00  0.00    +0.040 A 
ATOM      8  C   UNL     1       8.113   3.983  22.999  0.00  0.00    +0.124 A 
ATOM      9  F   UNL     1       8.651   5.208  22.949  0.00  0.00    -0.205 F 
ATOM     10  N   UNL     1       6.398   0.221  23.126  0.00  0.00    -0.246 NA
ATOM     11  C   UNL     1       8.890   2.906  23.406  0.00  0.00    +0.049 A 
ATOM     12  C   UNL     1       7.052  -0.907  23.507  0.00  0.00    +0.075 A 
ENDROOT
BRANCH  12  13
ATOM     13  C   UNL     1       6.155  -2.101  23.544  0.00  0.00    +0.001 A 
ATOM     14  C   UNL     1       5.370  -2.379  24.679  0.00  0.00    +0.010 A 
ATOM     15  C   UNL     1       4.535  -3.511  24.757  0.00  0.00    +0.009 A 
ATOM     16  C   UNL     1       4.431  -4.424  23.697  0.00  0.00    -0.015 A 
ATOM     17  C   UNL     1       5.239  -4.167  22.579  0.00  0.00    +0.009 A 
ATOM     18  C   UNL     1       6.090  -3.049  22.512  0.00  0.00    +0.010 A 
BRANCH  16  19
ATOM     19  C   UNL     1       3.526  -5.601  23.752  0.00  0.00    +0.017 A 
ATOM     20  C   UNL     1       3.852  -6.761  24.484  0.00  0.00    +0.131 A 
ATOM     21  F   UNL     1       5.018  -6.848  25.144  0.00  0.00    -0.205 F 
ATOM     22  C   UNL     1       2.998  -7.864  24.549  0.00  0.00    +0.039 A 
ATOM     23  C   UNL     1       1.786  -7.847  23.867  0.00  0.00    +0.003 A 
ATOM     24  C   UNL     1       1.436  -6.724  23.125  0.00  0.00    +0.001 A 
ATOM     25  C   UNL     1       2.292  -5.614  23.072  0.00  0.00    +0.011 A 
ENDBRANCH  16  19
ENDBRANCH  12  13
BRANCH   3  26
ATOM     26  C   UNL     1      10.331   0.503  24.641  0.00  0.00    +0.338 C 
ATOM     27  O   UNL     1      11.411   0.693  24.113  0.00  0.00    -0.245 OA
BRANCH  26  28
ATOM     28  O   UNL     1      10.250   0.332  25.968  0.00  0.00    -0.477 OA
ATOM     29  H   UNL     1       9.799   1.147  26.281  0.00  0.00    +0.295 HD
ENDBRANCH  26  28
ENDBRANCH   3  26
TORSDOF 4
ENDMDL
MODEL 8
REMARK VINA RESULT:      -7.1      3.713      9.629
REMARK  Name = 
REMARK  5 active torsions:
REMARK  status: ('A' for Active; 'I' for Inactive)
REMARK    1  A    between atoms: C_1  and  C_2
REMARK    2  A    between atoms: C_3  and  C_16
REMARK    3  A    between atoms: C_12  and  C_13
REMARK    4  A    between atoms: C_13  and  O_14
REMARK    5  A    between atoms: C_19  and  C_22
REMARK                            x       y       z     vdW  Elec       q    Type
REMARK                         _______ _______ _______ _____ _____    ______ ____
ROOT
ATOM      1  C   UNL     1       6.713  -2.774  26.893  0.00  0.00    +0.047 C 
ATOM      2  C   UNL     1       7.167  -2.183  25.583  0.00  0.00    -0.010 A 
ATOM      3  C   UNL     1       8.033  -1.055  25.568  0.00  0.00    +0.073 A 
ATOM      4  C   UNL     1       8.612  -0.581  24.354  0.00  0.00    +0.017 A 
ATOM      5  C   UNL     1       8.178  -1.224  23.186  0.00  0.00    +0.073 A 
ATOM      6  C   UNL     1       8.648  -0.799  21.947  0.00  0.00    +0.031 A 
ATOM      7  C   UNL     1       9.556   0.251  21.818  0.00  0.00    +0.040 A 
ATOM      8  C   UNL     1      10.015   0.875  22.957  0.00  0.00    +0.124 A 
ATOM      9  F   UNL     1      10.899   1.875  22.862  0.00  0.00    -0.205 F 
ATOM     10  N   UNL     1       7.285  -2.225  23.188  0.00  0.00    -0.246 NA
ATOM     11  C   UNL     1       9.557   0.478  24.207  0.00  0.00    +0.049 A 
ATOM     12  C   UNL     1       6.764  -2.702  24.348  0.00  0.00    +0.075 A 
ENDROOT
BRANCH  12  13
ATOM     13  C   UNL     1       5.734  -3.760  24.118  0.00  0.00    +0.001 A 
ATOM     14  C   UNL     1       4.368  -3.494  24.327  0.00  0.00    +0.010 A 
ATOM     15  C   UNL     1       3.374  -4.475  24.145  0.00  0.00    +0.009 A 
ATOM     16  C   UNL     1       3.693  -5.779  23.734  0.00  0.00    -0.015 A 
ATOM     17  C   UNL     1       5.058  -6.055  23.560  0.00  0.00    +0.009 A 
ATOM     18  C   UNL     1       6.050  -5.080  23.764  0.00  0.00    +0.010 A 
BRANCH  16  19
ATOM     19  C   UNL     1       2.651  -6.813  23.504  0.00  0.00    +0.017 A 
ATOM     20  C   UNL     1       2.486  -7.914  24.368  0.00  0.00    +0.131 A 
ATOM     21  F   UNL     1       3.293  -8.077  25.430  0.00  0.00    -0.205 F 
ATOM     22  C   UNL     1       1.500  -8.881  24.162  0.00  0.00    +0.039 A 
ATOM     23  C   UNL     1       0.648  -8.783  23.067  0.00  0.00    +0.003 A 
ATOM     24  C   UNL     1       0.788  -7.716  22.186  0.00  0.00    +0.001 A 
ATOM     25  C   UNL     1       1.773  -6.742  22.404  0.00  0.00    +0.011 A 
ENDBRANCH  16  19
ENDBRANCH  12  13
BRANCH   3  26
ATOM     26  C   UNL     1       8.157  -0.264  26.827  0.00  0.00    +0.338 C 
ATOM     27  O   UNL     1       7.374   0.595  27.190  0.00  0.00    -0.245 OA
BRANCH  26  28
ATOM     28  O   UNL     1       9.244  -0.540  27.561  0.00  0.00    -0.477 OA
ATOM     29  H   UNL     1       9.041  -0.139  28.435  0.00  0.00    +0.295 HD
ENDBRANCH  26  28
ENDBRANCH   3  26
TORSDOF 4
ENDMDL
MODEL 9
REMARK VINA RESULT:      -7.0      1.592      2.127
REMARK  Name = 
REMARK  5 active torsions:
REMARK  status: ('A' for Active; 'I' for Inactive)
REMARK    1  A    between atoms: C_1  and  C_2
REMARK    2  A    between atoms: C_3  and  C_16
REMARK    3  A    between atoms: C_12  and  C_13
REMARK    4  A    between atoms: C_13  and  O_14
REMARK    5  A    between atoms: C_19  and  C_22
REMARK                            x       y       z     vdW  Elec       q    Type
REMARK                         _______ _______ _______ _____ _____    ______ ____
ROOT
ATOM      1  C   UNL     1       6.300  -2.973  21.929  0.00  0.00    +0.047 C 
ATOM      2  C   UNL     1       6.180  -3.252  23.405  0.00  0.00    -0.010 A 
ATOM      3  C   UNL     1       5.712  -4.516  23.860  0.00  0.00    +0.073 A 
ATOM      4  C   UNL     1       5.748  -4.868  25.241  0.00  0.00    +0.017 A 
ATOM      5  C   UNL     1       6.161  -3.850  26.113  0.00  0.00    +0.073 A 
ATOM      6  C   UNL     1       6.181  -4.080  27.485  0.00  0.00    +0.031 A 
ATOM      7  C   UNL     1       5.812  -5.306  28.037  0.00  0.00    +0.040 A 
ATOM      8  C   UNL     1       5.430  -6.326  27.193  0.00  0.00    +0.124 A 
ATOM      9  F   UNL     1       5.087  -7.517  27.696  0.00  0.00    -0.205 F 
ATOM     10  N   UNL     1       6.510  -2.623  25.696  0.00  0.00    -0.246 NA
ATOM     11  C   UNL     1       5.393  -6.122  25.820  0.00  0.00    +0.049 A 
ATOM     12  C   UNL     1       6.513  -2.302  24.376  0.00  0.00    +0.075 A 
ENDROOT
BRANCH  12  13
ATOM     13  C   UNL     1       6.858  -0.868  24.140  0.00  0.00    +0.001 A 
ATOM     14  C   UNL     1       8.098  -0.506  23.580  0.00  0.00    +0.010 A 
ATOM     15  C   UNL     1       8.465   0.837  23.368  0.00  0.00    +0.009 A 
ATOM     16  C   UNL     1       7.605   1.896  23.698  0.00  0.00    -0.015 A 
ATOM     17  C   UNL     1       6.383   1.539  24.288  0.00  0.00    +0.009 A 
ATOM     18  C   UNL     1       6.029   0.198  24.519  0.00  0.00    +0.010 A 
BRANCH  16  19
ATOM     19  C   UNL     1       7.965   3.315  23.446  0.00  0.00    +0.017 A 
ATOM     20  C   UNL     1       7.241   4.122  22.545  0.00  0.00    +0.131 A 
ATOM     21  F   UNL     1       6.201   3.618  21.860  0.00  0.00    -0.205 F 
ATOM     22  C   UNL     1       7.568   5.460  22.316  0.00  0.00    +0.039 A 
ATOM     23  C   UNL     1       8.649   6.035  22.976  0.00  0.00    +0.003 A 
ATOM     24  C   UNL     1       9.395   5.266  23.864  0.00  0.00    +0.001 A 
ATOM     25  C   UNL     1       9.054   3.927  24.099  0.00  0.00    +0.011 A 
ENDBRANCH  16  19
ENDBRANCH  12  13
BRANCH   3  26
ATOM     26  C   UNL     1       4.998  -5.380  22.875  0.00  0.00    +0.338 C 
ATOM     27  O   UNL     1       3.812  -5.303  22.610  0.00  0.00    -0.245 OA
BRANCH  26  28
ATOM     28  O   UNL     1       5.760  -6.315  22.289  0.00  0.00    -0.477 OA
ATOM     29  H   UNL     1       5.447  -6.319  21.358  0.00  0.00    +0.295 HD
ENDBRANCH  26  28
ENDBRANCH   3  26
TORSDOF 4
ENDMDL
