MODEL 1
REMARK VINA RESULT:      -6.6      0.000      0.000
REMARK  Name = 
REMARK  12 active torsions:
REMARK  status: ('A' for Active; 'I' for Inactive)
REMARK    1  A    between atoms: C_2  and  O_3
REMARK    2  A    between atoms: C_2  and  C_4
REMARK    3  A    between atoms: C_2  and  C_13
REMARK    4  A    between atoms: C_4  and  C_5
REMARK    5  A    between atoms: N_7  and  N_8
REMARK    6  A    between atoms: N_7  and  C_9
REMARK    7  A    between atoms: C_9  and  C_10
REMARK    8  A    between atoms: C_10  and  O_11
REMARK    9  A    between atoms: N_15  and  C_16
REMARK   10  A    between atoms: N_15  and  C_23
REMARK   11  A    between atoms: C_16  and  C_17
REMARK   12  A    between atoms: C_23  and  C_24
REMARK                            x       y       z     vdW  Elec       q    Type
REMARK                         _______ _______ _______ _____ _____    ______ ____
ROOT
ATOM      1  C   UNL     1       9.002  -3.222  23.950  0.00  0.00    +0.245 C 
ATOM      2  N   UNL     1       8.782  -2.205  23.031  0.00  0.00    -0.291 N 
ATOM      3  O   UNL     1      10.117  -3.731  24.112  0.00  0.00    -0.273 OA
ENDROOT
BRANCH   1   4
ATOM      4  C   UNL     1       7.818  -3.772  24.778  0.00  0.00    +0.209 C 
BRANCH   4   5
ATOM      5  O   UNL     1       7.731  -5.192  24.628  0.00  0.00    -0.382 OA
ATOM      6  H   UNL     1       8.196  -5.419  23.799  0.00  0.00    +0.210 HD
ENDBRANCH   4   5
BRANCH   4   7
ATOM      7  C   UNL     1       8.025  -3.450  26.267  0.00  0.00    +0.138 C 
BRANCH   7   8
ATOM      8  C   UNL     1       6.760  -3.733  27.064  0.00  0.00    +0.232 C 
ATOM      9  N   UNL     1       6.712  -4.932  27.802  0.00  0.00    -0.229 N 
ATOM     10  O   UNL     1       5.808  -2.952  27.044  0.00  0.00    -0.274 OA
BRANCH   9  11
ATOM     11  N   UNL     1       7.656  -5.981  27.597  0.00  0.00    -0.251 NA
ATOM     12  H   UNL     1       7.934  -5.982  26.607  0.00  0.00    +0.141 HD
ATOM     13  H   UNL     1       8.516  -5.778  28.122  0.00  0.00    +0.141 HD
ENDBRANCH   9  11
BRANCH   9  14
ATOM     14  C   UNL     1       5.426  -5.250  28.463  0.00  0.00    +0.246 C 
BRANCH  14  15
ATOM     15  C   UNL     1       5.282  -6.604  29.151  0.00  0.00    +0.324 C 
ATOM     16  O   UNL     1       5.087  -6.731  30.353  0.00  0.00    -0.249 OA
BRANCH  15  17
ATOM     17  O   UNL     1       5.356  -7.661  28.315  0.00  0.00    -0.479 OA
ATOM     18  H   UNL     1       6.124  -7.516  27.708  0.00  0.00    +0.295 HD
ENDBRANCH  15  17
ENDBRANCH  14  15
ENDBRANCH   9  14
ENDBRANCH   7   8
ENDBRANCH   4   7
ENDBRANCH   1   4
BRANCH   2  19
ATOM     19  C   UNL     1       9.954  -1.582  22.409  0.00  0.00    +0.143 C 
BRANCH  19  20
ATOM     20  C   UNL     1      10.160  -0.130  22.780  0.00  0.00    -0.030 A 
ATOM     21  C   UNL     1      10.516   0.231  24.089  0.00  0.00    +0.005 A 
ATOM     22  C   UNL     1      10.702   1.569  24.440  0.00  0.00    +0.000 A 
ATOM     23  C   UNL     1      10.524   2.568  23.487  0.00  0.00    +0.000 A 
ATOM     24  C   UNL     1      10.149   2.228  22.189  0.00  0.00    +0.000 A 
ATOM     25  C   UNL     1       9.970   0.887  21.834  0.00  0.00    +0.005 A 
ENDBRANCH  19  20
ENDBRANCH   2  19
BRANCH   2  26
ATOM     26  C   UNL     1       7.462  -1.667  22.683  0.00  0.00    +0.143 C 
BRANCH  26  27
ATOM     27  C   UNL     1       7.052  -0.384  23.388  0.00  0.00    -0.030 A 
ATOM     28  C   UNL     1       6.689   0.730  22.606  0.00  0.00    +0.005 A 
ATOM     29  C   UNL     1       6.329   1.941  23.196  0.00  0.00    +0.000 A 
ATOM     30  C   UNL     1       6.318   2.071  24.582  0.00  0.00    +0.000 A 
ATOM     31  C   UNL     1       6.661   0.977  25.374  0.00  0.00    +0.000 A 
ATOM     32  C   UNL     1       7.016  -0.241  24.782  0.00  0.00    +0.005 A 
ENDBRANCH  26  27
ENDBRANCH   2  26
TORSDOF 12
ENDMDL
MODEL 2
REMARK VINA RESULT:      -6.5      4.309      8.022
REMARK  Name = 
REMARK  12 active torsions:
REMARK  status: ('A' for Active; 'I' for Inactive)
REMARK    1  A    between atoms: C_2  and  O_3
REMARK    2  A    between atoms: C_2  and  C_4
REMARK    3  A    between atoms: C_2  and  C_13
REMARK    4  A    between atoms: C_4  and  C_5
REMARK    5  A    between atoms: N_7  and  N_8
REMARK    6  A    between atoms: N_7  and  C_9
REMARK    7  A    between atoms: C_9  and  C_10
REMARK    8  A    between atoms: C_10  and  O_11
REMARK    9  A    between atoms: N_15  and  C_16
REMARK   10  A    between atoms: N_15  and  C_23
REMARK   11  A    between atoms: C_16  and  C_17
REMARK   12  A    between atoms: C_23  and  C_24
REMARK                            x       y       z     vdW  Elec       q    Type
REMARK                         _______ _______ _______ _____ _____    ______ ____
ROOT
ATOM      1  C   UNL     1       8.384  -0.357  23.426  0.00  0.00    +0.245 C 
ATOM      2  N   UNL     1       8.662  -1.700  23.211  0.00  0.00    -0.291 N 
ATOM      3  O   UNL     1       8.721   0.226  24.463  0.00  0.00    -0.273 OA
ENDROOT
BRANCH   1   4
ATOM      4  C   UNL     1       7.596   0.440  22.361  0.00  0.00    +0.209 C 
BRANCH   4   5
ATOM      5  O   UNL     1       6.410   0.994  22.939  0.00  0.00    -0.382 OA
ATOM      6  H   UNL     1       5.684   0.369  22.748  0.00  0.00    +0.210 HD
ENDBRANCH   4   5
BRANCH   4   7
ATOM      7  C   UNL     1       8.460   1.592  21.822  0.00  0.00    +0.138 C 
BRANCH   7   8
ATOM      8  C   UNL     1       7.886   2.939  22.235  0.00  0.00    +0.232 C 
ATOM      9  N   UNL     1       8.569   3.657  23.235  0.00  0.00    -0.229 N 
ATOM     10  O   UNL     1       6.851   3.372  21.727  0.00  0.00    -0.274 OA
BRANCH   9  11
ATOM     11  N   UNL     1       9.574   3.050  24.045  0.00  0.00    -0.251 NA
ATOM     12  H   UNL     1      10.495   3.277  23.649  0.00  0.00    +0.141 HD
ATOM     13  H   UNL     1       9.566   3.475  24.980  0.00  0.00    +0.141 HD
ENDBRANCH   9  11
BRANCH   9  14
ATOM     14  C   UNL     1       7.924   4.900  23.714  0.00  0.00    +0.246 C 
BRANCH  14  15
ATOM     15  C   UNL     1       8.318   6.219  23.057  0.00  0.00    +0.324 C 
ATOM     16  O   UNL     1       8.959   7.092  23.627  0.00  0.00    -0.249 OA
BRANCH  15  17
ATOM     17  O   UNL     1       7.926   6.335  21.769  0.00  0.00    -0.479 OA
ATOM     18  H   UNL     1       7.479   7.212  21.665  0.00  0.00    +0.295 HD
ENDBRANCH  15  17
ENDBRANCH  14  15
ENDBRANCH   9  14
ENDBRANCH   7   8
ENDBRANCH   4   7
ENDBRANCH   1   4
BRANCH   2  19
ATOM     19  C   UNL     1       9.571  -2.367  24.148  0.00  0.00    +0.143 C 
BRANCH  19  20
ATOM     20  C   UNL     1       8.893  -3.337  25.091  0.00  0.00    -0.030 A 
ATOM     21  C   UNL     1       7.869  -2.904  25.949  0.00  0.00    +0.005 A 
ATOM     22  C   UNL     1       7.245  -3.792  26.826  0.00  0.00    +0.000 A 
ATOM     23  C   UNL     1       7.643  -5.125  26.865  0.00  0.00    +0.000 A 
ATOM     24  C   UNL     1       8.673  -5.566  26.036  0.00  0.00    +0.000 A 
ATOM     25  C   UNL     1       9.294  -4.679  25.152  0.00  0.00    +0.005 A 
ENDBRANCH  19  20
ENDBRANCH   2  19
BRANCH   2  26
ATOM     26  C   UNL     1       8.159  -2.484  22.078  0.00  0.00    +0.143 C 
BRANCH  26  27
ATOM     27  C   UNL     1       7.057  -3.485  22.387  0.00  0.00    -0.030 A 
ATOM     28  C   UNL     1       5.840  -3.007  22.912  0.00  0.00    +0.005 A 
ATOM     29  C   UNL     1       4.803  -3.879  23.241  0.00  0.00    +0.000 A 
ATOM     30  C   UNL     1       4.952  -5.251  23.051  0.00  0.00    +0.000 A 
ATOM     31  C   UNL     1       6.143  -5.742  22.520  0.00  0.00    +0.000 A 
ATOM     32  C   UNL     1       7.182  -4.866  22.183  0.00  0.00    +0.005 A 
ENDBRANCH  26  27
ENDBRANCH   2  26
TORSDOF 12
ENDMDL
MODEL 3
REMARK VINA RESULT:      -6.3      3.533      7.751
REMARK  Name = 
REMARK  12 active torsions:
REMARK  status: ('A' for Active; 'I' for Inactive)
REMARK    1  A    between atoms: C_2  and  O_3
REMARK    2  A    between atoms: C_2  and  C_4
REMARK    3  A    between atoms: C_2  and  C_13
REMARK    4  A    between atoms: C_4  and  C_5
REMARK    5  A    between atoms: N_7  and  N_8
REMARK    6  A    between atoms: N_7  and  C_9
REMARK    7  A    between atoms: C_9  and  C_10
REMARK    8  A    between atoms: C_10  and  O_11
REMARK    9  A    between atoms: N_15  and  C_16
REMARK   10  A    between atoms: N_15  and  C_23
REMARK   11  A    between atoms: C_16  and  C_17
REMARK   12  A    between atoms: C_23  and  C_24
REMARK                            x       y       z     vdW  Elec       q    Type
REMARK                         _______ _______ _______ _____ _____    ______ ____
ROOT
ATOM      1  C   UNL     1       8.682  -1.482  25.347  0.00  0.00    +0.245 C 
ATOM      2  N   UNL     1       8.485  -2.857  25.334  0.00  0.00    -0.291 N 
ATOM      3  O   UNL     1       8.157  -0.751  26.194  0.00  0.00    -0.273 OA
ENDROOT
BRANCH   1   4
ATOM      4  C   UNL     1       9.553  -0.826  24.252  0.00  0.00    +0.209 C 
BRANCH   4   5
ATOM      5  O   UNL     1       8.732  -0.401  23.160  0.00  0.00    -0.382 OA
ATOM      6  H   UNL     1       9.186   0.355  22.740  0.00  0.00    +0.210 HD
ENDBRANCH   4   5
BRANCH   4   7
ATOM      7  C   UNL     1      10.278   0.404  24.824  0.00  0.00    +0.138 C 
BRANCH   7   8
ATOM      8  C   UNL     1      10.010   1.635  23.972  0.00  0.00    +0.232 C 
ATOM      9  N   UNL     1       9.095   2.583  24.471  0.00  0.00    -0.229 N 
ATOM     10  O   UNL     1      10.558   1.785  22.879  0.00  0.00    -0.274 OA
BRANCH   9  11
ATOM     11  N   UNL     1       8.228   2.290  25.564  0.00  0.00    -0.251 NA
ATOM     12  H   UNL     1       8.382   1.315  25.852  0.00  0.00    +0.141 HD
ATOM     13  H   UNL     1       8.493   2.860  26.377  0.00  0.00    +0.141 HD
ENDBRANCH   9  11
BRANCH   9  14
ATOM     14  C   UNL     1       8.751   3.706  23.570  0.00  0.00    +0.246 C 
BRANCH  14  15
ATOM     15  C   UNL     1       7.565   3.537  22.624  0.00  0.00    +0.324 C 
ATOM     16  O   UNL     1       6.842   2.549  22.620  0.00  0.00    -0.249 OA
BRANCH  15  17
ATOM     17  O   UNL     1       7.355   4.590  21.806  0.00  0.00    -0.479 OA
ATOM     18  H   UNL     1       8.080   4.602  21.132  0.00  0.00    +0.295 HD
ENDBRANCH  15  17
ENDBRANCH  14  15
ENDBRANCH   9  14
ENDBRANCH   7   8
ENDBRANCH   4   7
ENDBRANCH   1   4
BRANCH   2  19
ATOM     19  C   UNL     1       7.818  -3.461  26.490  0.00  0.00    +0.143 C 
BRANCH  19  20
ATOM     20  C   UNL     1       6.533  -4.188  26.160  0.00  0.00    -0.030 A 
ATOM     21  C   UNL     1       5.406  -3.482  25.709  0.00  0.00    +0.005 A 
ATOM     22  C   UNL     1       4.216  -4.146  25.408  0.00  0.00    +0.000 A 
ATOM     23  C   UNL     1       4.131  -5.526  25.565  0.00  0.00    +0.000 A 
ATOM     24  C   UNL     1       5.233  -6.239  26.034  0.00  0.00    +0.000 A 
ATOM     25  C   UNL     1       6.428  -5.576  26.328  0.00  0.00    +0.005 A 
ENDBRANCH  19  20
ENDBRANCH   2  19
BRANCH   2  26
ATOM     26  C   UNL     1       8.952  -3.756  24.273  0.00  0.00    +0.143 C 
BRANCH  26  27
ATOM     27  C   UNL     1       7.906  -4.208  23.266  0.00  0.00    -0.030 A 
ATOM     28  C   UNL     1       7.763  -5.586  23.013  0.00  0.00    +0.005 A 
ATOM     29  C   UNL     1       6.841  -6.058  22.081  0.00  0.00    +0.000 A 
ATOM     30  C   UNL     1       6.033  -5.167  21.379  0.00  0.00    +0.000 A 
ATOM     31  C   UNL     1       6.148  -3.801  21.624  0.00  0.00    +0.000 A 
ATOM     32  C   UNL     1       7.071  -3.327  22.565  0.00  0.00    +0.005 A 
ENDBRANCH  26  27
ENDBRANCH   2  26
TORSDOF 12
ENDMDL
MODEL 4
REMARK VINA RESULT:      -6.2      4.186      7.936
REMARK  Name = 
REMARK  12 active torsions:
REMARK  status: ('A' for Active; 'I' for Inactive)
REMARK    1  A    between atoms: C_2  and  O_3
REMARK    2  A    between atoms: C_2  and  C_4
REMARK    3  A    between atoms: C_2  and  C_13
REMARK    4  A    between atoms: C_4  and  C_5
REMARK    5  A    between atoms: N_7  and  N_8
REMARK    6  A    between atoms: N_7  and  C_9
REMARK    7  A    between atoms: C_9  and  C_10
REMARK    8  A    between atoms: C_10  and  O_11
REMARK    9  A    between atoms: N_15  and  C_16
REMARK   10  A    between atoms: N_15  and  C_23
REMARK   11  A    between atoms: C_16  and  C_17
REMARK   12  A    between atoms: C_23  and  C_24
REMARK                            x       y       z     vdW  Elec       q    Type
REMARK                         _______ _______ _______ _____ _____    ______ ____
ROOT
ATOM      1  C   UNL     1       8.473  -0.111  23.264  0.00  0.00    +0.245 C 
ATOM      2  N   UNL     1       8.849  -1.444  23.357  0.00  0.00    -0.291 N 
ATOM      3  O   UNL     1       8.046   0.379  22.212  0.00  0.00    -0.273 OA
ENDROOT
BRANCH   1   4
ATOM      4  C   UNL     1       8.621   0.812  24.495  0.00  0.00    +0.209 C 
BRANCH   4   5
ATOM      5  O   UNL     1       9.882   1.487  24.453  0.00  0.00    -0.382 OA
ATOM      6  H   UNL     1      10.104   1.617  23.511  0.00  0.00    +0.210 HD
ENDBRANCH   4   5
BRANCH   4   7
ATOM      7  C   UNL     1       7.503   1.867  24.497  0.00  0.00    +0.138 C 
BRANCH   7   8
ATOM      8  C   UNL     1       8.078   3.266  24.664  0.00  0.00    +0.232 C 
ATOM      9  N   UNL     1       8.373   3.991  23.493  0.00  0.00    -0.229 N 
ATOM     10  O   UNL     1       8.297   3.735  25.782  0.00  0.00    -0.274 OA
BRANCH   9  11
ATOM     11  N   UNL     1       8.421   3.365  22.212  0.00  0.00    -0.251 NA
ATOM     12  H   UNL     1       7.780   2.561  22.217  0.00  0.00    +0.141 HD
ATOM     13  H   UNL     1       8.051   4.006  21.501  0.00  0.00    +0.141 HD
ENDBRANCH   9  11
BRANCH   9  14
ATOM     14  C   UNL     1       9.052   5.293  23.675  0.00  0.00    +0.246 C 
BRANCH  14  15
ATOM     15  C   UNL     1      10.577   5.316  23.698  0.00  0.00    +0.324 C 
ATOM     16  O   UNL     1      11.231   6.274  24.092  0.00  0.00    -0.249 OA
BRANCH  15  17
ATOM     17  O   UNL     1      11.155   4.171  23.275  0.00  0.00    -0.479 OA
ATOM     18  H   UNL     1      11.974   4.411  22.775  0.00  0.00    +0.295 HD
ENDBRANCH  15  17
ENDBRANCH  14  15
ENDBRANCH   9  14
ENDBRANCH   7   8
ENDBRANCH   4   7
ENDBRANCH   1   4
BRANCH   2  19
ATOM     19  C   UNL     1       8.515  -2.328  22.236  0.00  0.00    +0.143 C 
BRANCH  19  20
ATOM     20  C   UNL     1       7.332  -3.236  22.488  0.00  0.00    -0.030 A 
ATOM     21  C   UNL     1       7.470  -4.632  22.406  0.00  0.00    +0.005 A 
ATOM     22  C   UNL     1       6.381  -5.475  22.631  0.00  0.00    +0.000 A 
ATOM     23  C   UNL     1       5.134  -4.935  22.932  0.00  0.00    +0.000 A 
ATOM     24  C   UNL     1       4.975  -3.551  22.996  0.00  0.00    +0.000 A 
ATOM     25  C   UNL     1       6.067  -2.706  22.778  0.00  0.00    +0.005 A 
ENDBRANCH  19  20
ENDBRANCH   2  19
BRANCH   2  26
ATOM     26  C   UNL     1       9.502  -2.047  24.525  0.00  0.00    +0.143 C 
BRANCH  26  27
ATOM     27  C   UNL     1       8.629  -2.925  25.406  0.00  0.00    -0.030 A 
ATOM     28  C   UNL     1       8.987  -4.277  25.577  0.00  0.00    +0.005 A 
ATOM     29  C   UNL     1       8.210  -5.138  26.351  0.00  0.00    +0.000 A 
ATOM     30  C   UNL     1       7.058  -4.671  26.979  0.00  0.00    +0.000 A 
ATOM     31  C   UNL     1       6.694  -3.334  26.834  0.00  0.00    +0.000 A 
ATOM     32  C   UNL     1       7.477  -2.468  26.061  0.00  0.00    +0.005 A 
ENDBRANCH  26  27
ENDBRANCH   2  26
TORSDOF 12
ENDMDL
MODEL 5
REMARK VINA RESULT:      -6.2      3.922      8.083
REMARK  Name = 
REMARK  12 active torsions:
REMARK  status: ('A' for Active; 'I' for Inactive)
REMARK    1  A    between atoms: C_2  and  O_3
REMARK    2  A    between atoms: C_2  and  C_4
REMARK    3  A    between atoms: C_2  and  C_13
REMARK    4  A    between atoms: C_4  and  C_5
REMARK    5  A    between atoms: N_7  and  N_8
REMARK    6  A    between atoms: N_7  and  C_9
REMARK    7  A    between atoms: C_9  and  C_10
REMARK    8  A    between atoms: C_10  and  O_11
REMARK    9  A    between atoms: N_15  and  C_16
REMARK   10  A    between atoms: N_15  and  C_23
REMARK   11  A    between atoms: C_16  and  C_17
REMARK   12  A    between atoms: C_23  and  C_24
REMARK                            x       y       z     vdW  Elec       q    Type
REMARK                         _______ _______ _______ _____ _____    ______ ____
ROOT
ATOM      1  C   UNL     1       8.348  -0.365  23.765  0.00  0.00    +0.245 C 
ATOM      2  N   UNL     1       8.585  -1.711  23.519  0.00  0.00    -0.291 N 
ATOM      3  O   UNL     1       8.600   0.158  24.857  0.00  0.00    -0.273 OA
ENDROOT
BRANCH   1   4
ATOM      4  C   UNL     1       7.717   0.514  22.661  0.00  0.00    +0.209 C 
BRANCH   4   5
ATOM      5  O   UNL     1       6.301   0.314  22.623  0.00  0.00    -0.382 OA
ATOM      6  H   UNL     1       5.888   1.169  22.855  0.00  0.00    +0.210 HD
ENDBRANCH   4   5
BRANCH   4   7
ATOM      7  C   UNL     1       7.993   1.999  22.949  0.00  0.00    +0.138 C 
BRANCH   7   8
ATOM      8  C   UNL     1       9.468   2.322  22.760  0.00  0.00    +0.232 C 
ATOM      9  N   UNL     1      10.048   3.248  23.649  0.00  0.00    -0.229 N 
ATOM     10  O   UNL     1      10.121   1.809  21.851  0.00  0.00    -0.274 OA
BRANCH   9  11
ATOM     11  N   UNL     1       9.256   4.077  24.497  0.00  0.00    -0.251 NA
ATOM     12  H   UNL     1       9.176   3.623  25.417  0.00  0.00    +0.141 HD
ATOM     13  H   UNL     1       9.747   4.962  24.671  0.00  0.00    +0.141 HD
ENDBRANCH   9  11
BRANCH   9  14
ATOM     14  C   UNL     1      11.446   3.648  23.368  0.00  0.00    +0.246 C 
BRANCH  14  15
ATOM     15  C   UNL     1      11.809   5.126  23.468  0.00  0.00    +0.324 C 
ATOM     16  O   UNL     1      12.878   5.528  23.909  0.00  0.00    -0.249 OA
BRANCH  15  17
ATOM     17  O   UNL     1      10.861   5.963  22.996  0.00  0.00    -0.479 OA
ATOM     18  H   UNL     1      11.313   6.775  22.656  0.00  0.00    +0.295 HD
ENDBRANCH  15  17
ENDBRANCH  14  15
ENDBRANCH   9  14
ENDBRANCH   7   8
ENDBRANCH   4   7
ENDBRANCH   1   4
BRANCH   2  19
ATOM     19  C   UNL     1       9.356  -2.461  24.514  0.00  0.00    +0.143 C 
BRANCH  19  20
ATOM     20  C   UNL     1       8.520  -3.335  25.422  0.00  0.00    -0.030 A 
ATOM     21  C   UNL     1       8.785  -4.709  25.538  0.00  0.00    +0.005 A 
ATOM     22  C   UNL     1       8.014  -5.522  26.370  0.00  0.00    +0.000 A 
ATOM     23  C   UNL     1       6.957  -4.974  27.091  0.00  0.00    +0.000 A 
ATOM     24  C   UNL     1       6.666  -3.617  26.970  0.00  0.00    +0.000 A 
ATOM     25  C   UNL     1       7.443  -2.800  26.143  0.00  0.00    +0.005 A 
ENDBRANCH  19  20
ENDBRANCH   2  19
BRANCH   2  26
ATOM     26  C   UNL     1       8.170  -2.422  22.304  0.00  0.00    +0.143 C 
BRANCH  26  27
ATOM     27  C   UNL     1       7.084  -3.472  22.477  0.00  0.00    -0.030 A 
ATOM     28  C   UNL     1       5.808  -3.058  22.907  0.00  0.00    +0.005 A 
ATOM     29  C   UNL     1       4.780  -3.979  23.109  0.00  0.00    +0.000 A 
ATOM     30  C   UNL     1       4.998  -5.336  22.883  0.00  0.00    +0.000 A 
ATOM     31  C   UNL     1       6.249  -5.763  22.444  0.00  0.00    +0.000 A 
ATOM     32  C   UNL     1       7.280  -4.839  22.235  0.00  0.00    +0.005 A 
ENDBRANCH  26  27
ENDBRANCH   2  26
TORSDOF 12
ENDMDL
MODEL 6
REMARK VINA RESULT:      -6.2      1.492      2.108
REMARK  Name = 
REMARK  12 active torsions:
REMARK  status: ('A' for Active; 'I' for Inactive)
REMARK    1  A    between atoms: C_2  and  O_3
REMARK    2  A    between atoms: C_2  and  C_4
REMARK    3  A    between atoms: C_2  and  C_13
REMARK    4  A    between atoms: C_4  and  C_5
REMARK    5  A    between atoms: N_7  and  N_8
REMARK    6  A    between atoms: N_7  and  C_9
REMARK    7  A    between atoms: C_9  and  C_10
REMARK    8  A    between atoms: C_10  and  O_11
REMARK    9  A    between atoms: N_15  and  C_16
REMARK   10  A    between atoms: N_15  and  C_23
REMARK   11  A    between atoms: C_16  and  C_17
REMARK   12  A    between atoms: C_23  and  C_24
REMARK                            x       y       z     vdW  Elec       q    Type
REMARK                         _______ _______ _______ _____ _____    ______ ____
ROOT
ATOM      1  C   UNL     1       7.484  -3.471  23.361  0.00  0.00    +0.245 C 
ATOM      2  N   UNL     1       8.182  -2.588  24.175  0.00  0.00    -0.291 N 
ATOM      3  O   UNL     1       7.906  -3.816  22.252  0.00  0.00    -0.273 OA
ENDROOT
BRANCH   1   4
ATOM      4  C   UNL     1       6.116  -4.019  23.827  0.00  0.00    +0.209 C 
BRANCH   4   5
ATOM      5  O   UNL     1       5.267  -4.244  22.698  0.00  0.00    -0.382 OA
ATOM      6  H   UNL     1       5.737  -3.896  21.915  0.00  0.00    +0.210 HD
ENDBRANCH   4   5
BRANCH   4   7
ATOM      7  C   UNL     1       6.309  -5.353  24.566  0.00  0.00    +0.138 C 
BRANCH   7   8
ATOM      8  C   UNL     1       5.763  -5.272  25.983  0.00  0.00    +0.232 C 
ATOM      9  N   UNL     1       6.695  -5.272  27.039  0.00  0.00    -0.229 N 
ATOM     10  O   UNL     1       4.550  -5.229  26.196  0.00  0.00    -0.274 OA
BRANCH   9  11
ATOM     11  N   UNL     1       8.061  -5.630  26.838  0.00  0.00    -0.251 NA
ATOM     12  H   UNL     1       8.583  -4.786  26.566  0.00  0.00    +0.141 HD
ATOM     13  H   UNL     1       8.473  -5.931  27.729  0.00  0.00    +0.141 HD
ENDBRANCH   9  11
BRANCH   9  14
ATOM     14  C   UNL     1       6.139  -5.325  28.411  0.00  0.00    +0.246 C 
BRANCH  14  15
ATOM     15  C   UNL     1       5.975  -6.690  29.072  0.00  0.00    +0.324 C 
ATOM     16  O   UNL     1       6.410  -6.957  30.185  0.00  0.00    -0.249 OA
BRANCH  15  17
ATOM     17  O   UNL     1       5.274  -7.581  28.337  0.00  0.00    -0.479 OA
ATOM     18  H   UNL     1       5.916  -8.085  27.778  0.00  0.00    +0.295 HD
ENDBRANCH  15  17
ENDBRANCH  14  15
ENDBRANCH   9  14
ENDBRANCH   7   8
ENDBRANCH   4   7
ENDBRANCH   1   4
BRANCH   2  19
ATOM     19  C   UNL     1       9.553  -2.244  23.789  0.00  0.00    +0.143 C 
BRANCH  19  20
ATOM     20  C   UNL     1       9.725  -0.823  23.296  0.00  0.00    -0.030 A 
ATOM     21  C   UNL     1       9.192  -0.424  22.060  0.00  0.00    +0.005 A 
ATOM     22  C   UNL     1       9.352   0.883  21.598  0.00  0.00    +0.000 A 
ATOM     23  C   UNL     1      10.058   1.808  22.361  0.00  0.00    +0.000 A 
ATOM     24  C   UNL     1      10.613   1.422  23.580  0.00  0.00    +0.000 A 
ATOM     25  C   UNL     1      10.446   0.116  24.048  0.00  0.00    +0.005 A 
ENDBRANCH  19  20
ENDBRANCH   2  19
BRANCH   2  26
ATOM     26  C   UNL     1       7.667  -2.023  25.427  0.00  0.00    +0.143 C 
BRANCH  26  27
ATOM     27  C   UNL     1       7.184  -0.583  25.367  0.00  0.00    -0.030 A 
ATOM     28  C   UNL     1       7.657   0.329  26.331  0.00  0.00    +0.005 A 
ATOM     29  C   UNL     1       7.229   1.655  26.343  0.00  0.00    +0.000 A 
ATOM     30  C   UNL     1       6.321   2.109  25.389  0.00  0.00    +0.000 A 
ATOM     31  C   UNL     1       5.852   1.227  24.418  0.00  0.00    +0.000 A 
ATOM     32  C   UNL     1       6.286  -0.104  24.402  0.00  0.00    +0.005 A 
ENDBRANCH  26  27
ENDBRANCH   2  26
TORSDOF 12
ENDMDL
MODEL 7
REMARK VINA RESULT:      -6.2      3.207      7.135
REMARK  Name = 
REMARK  12 active torsions:
REMARK  status: ('A' for Active; 'I' for Inactive)
REMARK    1  A    between atoms: C_2  and  O_3
REMARK    2  A    between atoms: C_2  and  C_4
REMARK    3  A    between atoms: C_2  and  C_13
REMARK    4  A    between atoms: C_4  and  C_5
REMARK    5  A    between atoms: N_7  and  N_8
REMARK    6  A    between atoms: N_7  and  C_9
REMARK    7  A    between atoms: C_9  and  C_10
REMARK    8  A    between atoms: C_10  and  O_11
REMARK    9  A    between atoms: N_15  and  C_16
REMARK   10  A    between atoms: N_15  and  C_23
REMARK   11  A    between atoms: C_16  and  C_17
REMARK   12  A    between atoms: C_23  and  C_24
REMARK                            x       y       z     vdW  Elec       q    Type
REMARK                         _______ _______ _______ _____ _____    ______ ____
ROOT
ATOM      1  C   UNL     1       8.733  -2.082  25.367  0.00  0.00    +0.245 C 
ATOM      2  N   UNL     1       8.367  -3.417  25.475  0.00  0.00    -0.291 N 
ATOM      3  O   UNL     1       9.582  -1.697  24.554  0.00  0.00    -0.273 OA
ENDROOT
BRANCH   1   4
ATOM      4  C   UNL     1       8.096  -1.036  26.310  0.00  0.00    +0.209 C 
BRANCH   4   5
ATOM      5  O   UNL     1       9.094  -0.124  26.778  0.00  0.00    -0.382 OA
ATOM      6  H   UNL     1       8.689   0.766  26.774  0.00  0.00    +0.210 HD
ENDBRANCH   4   5
BRANCH   4   7
ATOM      7  C   UNL     1       7.019  -0.238  25.558  0.00  0.00    +0.138 C 
BRANCH   7   8
ATOM      8  C   UNL     1       7.550   1.123  25.134  0.00  0.00    +0.232 C 
ATOM      9  N   UNL     1       7.889   1.294  23.777  0.00  0.00    -0.229 N 
ATOM     10  O   UNL     1       7.697   2.032  25.952  0.00  0.00    -0.274 OA
BRANCH   9  11
ATOM     11  N   UNL     1       8.021   0.187  22.889  0.00  0.00    -0.251 NA
ATOM     12  H   UNL     1       9.022   0.015  22.726  0.00  0.00    +0.141 HD
ATOM     13  H   UNL     1       7.668  -0.664  23.343  0.00  0.00    +0.141 HD
ENDBRANCH   9  11
BRANCH   9  14
ATOM     14  C   UNL     1       8.525   2.580  23.412  0.00  0.00    +0.246 C 
BRANCH  14  15
ATOM     15  C   UNL     1       9.955   2.553  22.881  0.00  0.00    +0.324 C 
ATOM     16  O   UNL     1      10.931   2.856  23.556  0.00  0.00    -0.249 OA
BRANCH  15  17
ATOM     17  O   UNL     1      10.063   2.132  21.602  0.00  0.00    -0.479 OA
ATOM     18  H   UNL     1      10.109   1.144  21.611  0.00  0.00    +0.295 HD
ENDBRANCH  15  17
ENDBRANCH  14  15
ENDBRANCH   9  14
ENDBRANCH   7   8
ENDBRANCH   4   7
ENDBRANCH   1   4
BRANCH   2  19
ATOM     19  C   UNL     1       8.845  -4.341  24.443  0.00  0.00    +0.143 C 
BRANCH  19  20
ATOM     20  C   UNL     1       7.855  -4.599  23.328  0.00  0.00    -0.030 A 
ATOM     21  C   UNL     1       7.599  -5.906  22.884  0.00  0.00    +0.005 A 
ATOM     22  C   UNL     1       6.692  -6.150  21.853  0.00  0.00    +0.000 A 
ATOM     23  C   UNL     1       6.033  -5.087  21.241  0.00  0.00    +0.000 A 
ATOM     24  C   UNL     1       6.292  -3.782  21.655  0.00  0.00    +0.000 A 
ATOM     25  C   UNL     1       7.195  -3.537  22.694  0.00  0.00    +0.005 A 
ENDBRANCH  19  20
ENDBRANCH   2  19
BRANCH   2  26
ATOM     26  C   UNL     1       7.484  -3.957  26.515  0.00  0.00    +0.143 C 
BRANCH  26  27
ATOM     27  C   UNL     1       6.135  -4.480  26.047  0.00  0.00    -0.030 A 
ATOM     28  C   UNL     1       5.172  -3.555  25.597  0.00  0.00    +0.005 A 
ATOM     29  C   UNL     1       3.908  -3.973  25.183  0.00  0.00    +0.000 A 
ATOM     30  C   UNL     1       3.573  -5.324  25.201  0.00  0.00    +0.000 A 
ATOM     31  C   UNL     1       4.516  -6.256  25.630  0.00  0.00    +0.000 A 
ATOM     32  C   UNL     1       5.788  -5.838  26.041  0.00  0.00    +0.005 A 
ENDBRANCH  26  27
ENDBRANCH   2  26
TORSDOF 12
ENDMDL
MODEL 8
REMARK VINA RESULT:      -6.2      3.827      7.971
REMARK  Name = 
REMARK  12 active torsions:
REMARK  status: ('A' for Active; 'I' for Inactive)
REMARK    1  A    between atoms: C_2  and  O_3
REMARK    2  A    between atoms: C_2  and  C_4
REMARK    3  A    between atoms: C_2  and  C_13
REMARK    4  A    between atoms: C_4  and  C_5
REMARK    5  A    between atoms: N_7  and  N_8
REMARK    6  A    between atoms: N_7  and  C_9
REMARK    7  A    between atoms: C_9  and  C_10
REMARK    8  A    between atoms: C_10  and  O_11
REMARK    9  A    between atoms: N_15  and  C_16
REMARK   10  A    between atoms: N_15  and  C_23
REMARK   11  A    between atoms: C_16  and  C_17
REMARK   12  A    between atoms: C_23  and  C_24
REMARK                            x       y       z     vdW  Elec       q    Type
REMARK                         _______ _______ _______ _____ _____    ______ ____
ROOT
ATOM      1  C   UNL     1       8.505  -1.434  25.260  0.00  0.00    +0.245 C 
ATOM      2  N   UNL     1       8.365  -2.814  25.300  0.00  0.00    -0.291 N 
ATOM      3  O   UNL     1       7.917  -0.690  26.053  0.00  0.00    -0.273 OA
ENDROOT
BRANCH   1   4
ATOM      4  C   UNL     1       9.393  -0.787  24.171  0.00  0.00    +0.209 C 
BRANCH   4   5
ATOM      5  O   UNL     1       8.579  -0.299  23.100  0.00  0.00    -0.382 OA
ATOM      6  H   UNL     1       9.147   0.277  22.552  0.00  0.00    +0.210 HD
ENDBRANCH   4   5
BRANCH   4   7
ATOM      7  C   UNL     1      10.177   0.394  24.766  0.00  0.00    +0.138 C 
BRANCH   7   8
ATOM      8  C   UNL     1       9.968   1.654  23.940  0.00  0.00    +0.232 C 
ATOM      9  N   UNL     1       9.148   2.660  24.487  0.00  0.00    -0.229 N 
ATOM     10  O   UNL     1      10.480   1.777  22.826  0.00  0.00    -0.274 OA
BRANCH   9  11
ATOM     11  N   UNL     1       8.307   2.417  25.613  0.00  0.00    -0.251 NA
ATOM     12  H   UNL     1       8.860   2.555  26.470  0.00  0.00    +0.141 HD
ATOM     13  H   UNL     1       7.566   3.127  25.649  0.00  0.00    +0.141 HD
ENDBRANCH   9  11
BRANCH   9  14
ATOM     14  C   UNL     1       8.851   3.818  23.614  0.00  0.00    +0.246 C 
BRANCH  14  15
ATOM     15  C   UNL     1       9.261   5.208  24.092  0.00  0.00    +0.324 C 
ATOM     16  O   UNL     1       9.190   5.567  25.260  0.00  0.00    -0.249 OA
BRANCH  15  17
ATOM     17  O   UNL     1       9.746   6.008  23.118  0.00  0.00    -0.479 OA
ATOM     18  H   UNL     1      10.615   5.635  22.823  0.00  0.00    +0.295 HD
ENDBRANCH  15  17
ENDBRANCH  14  15
ENDBRANCH   9  14
ENDBRANCH   7   8
ENDBRANCH   4   7
ENDBRANCH   1   4
BRANCH   2  19
ATOM     19  C   UNL     1       7.677  -3.397  26.455  0.00  0.00    +0.143 C 
BRANCH  19  20
ATOM     20  C   UNL     1       6.411  -4.152  26.113  0.00  0.00    -0.030 A 
ATOM     21  C   UNL     1       6.335  -5.542  26.293  0.00  0.00    +0.005 A 
ATOM     22  C   UNL     1       5.172  -6.245  25.973  0.00  0.00    +0.000 A 
ATOM     23  C   UNL     1       4.071  -5.568  25.457  0.00  0.00    +0.000 A 
ATOM     24  C   UNL     1       4.138  -4.191  25.251  0.00  0.00    +0.000 A 
ATOM     25  C   UNL     1       5.299  -3.485  25.579  0.00  0.00    +0.005 A 
ENDBRANCH  19  20
ENDBRANCH   2  19
BRANCH   2  26
ATOM     26  C   UNL     1       8.911  -3.737  24.299  0.00  0.00    +0.143 C 
BRANCH  26  27
ATOM     27  C   UNL     1       7.925  -4.286  23.280  0.00  0.00    -0.030 A 
ATOM     28  C   UNL     1       7.123  -3.378  22.560  0.00  0.00    +0.005 A 
ATOM     29  C   UNL     1       6.182  -3.824  21.633  0.00  0.00    +0.000 A 
ATOM     30  C   UNL     1       6.019  -5.186  21.397  0.00  0.00    +0.000 A 
ATOM     31  C   UNL     1       6.811  -6.100  22.089  0.00  0.00    +0.000 A 
ATOM     32  C   UNL     1       7.761  -5.653  23.016  0.00  0.00    +0.005 A 
ENDBRANCH  26  27
ENDBRANCH   2  26
TORSDOF 12
ENDMDL
MODEL 9
REMARK VINA RESULT:      -6.1      3.452      7.891
REMARK  Name = 
REMARK  12 active torsions:
REMARK  status: ('A' for Active; 'I' for Inactive)
REMARK    1  A    between atoms: C_2  and  O_3
REMARK    2  A    between atoms: C_2  and  C_4
REMARK    3  A    between atoms: C_2  and  C_13
REMARK    4  A    between atoms: C_4  and  C_5
REMARK    5  A    between atoms: N_7  and  N_8
REMARK    6  A    between atoms: N_7  and  C_9
REMARK    7  A    between atoms: C_9  and  C_10
REMARK    8  A    between atoms: C_10  and  O_11
REMARK    9  A    between atoms: N_15  and  C_16
REMARK   10  A    between atoms: N_15  and  C_23
REMARK   11  A    between atoms: C_16  and  C_17
REMARK   12  A    between atoms: C_23  and  C_24
REMARK                            x       y       z     vdW  Elec       q    Type
REMARK                         _______ _______ _______ _____ _____    ______ ____
ROOT
ATOM      1  C   UNL     1       8.150  -2.160  23.133  0.00  0.00    +0.245 C 
ATOM      2  N   UNL     1       7.038  -2.228  23.962  0.00  0.00    -0.291 N 
ATOM      3  O   UNL     1       8.094  -2.453  21.933  0.00  0.00    -0.273 OA
ENDROOT
BRANCH   1   4
ATOM      4  C   UNL     1       9.516  -1.743  23.722  0.00  0.00    +0.209 C 
BRANCH   4   5
ATOM      5  O   UNL     1      10.382  -2.879  23.807  0.00  0.00    -0.382 OA
ATOM      6  H   UNL     1      10.889  -2.788  24.637  0.00  0.00    +0.210 HD
ENDBRANCH   4   5
BRANCH   4   7
ATOM      7  C   UNL     1      10.179  -0.691  22.817  0.00  0.00    +0.138 C 
BRANCH   7   8
ATOM      8  C   UNL     1      10.421   0.603  23.579  0.00  0.00    +0.232 C 
ATOM      9  N   UNL     1      10.109   1.811  22.924  0.00  0.00    -0.229 N 
ATOM     10  O   UNL     1      10.893   0.593  24.717  0.00  0.00    -0.274 OA
BRANCH   9  11
ATOM     11  N   UNL     1       9.862   1.863  21.520  0.00  0.00    -0.251 NA
ATOM     12  H   UNL     1       9.337   2.724  21.313  0.00  0.00    +0.141 HD
ATOM     13  H   UNL     1      10.752   1.958  21.017  0.00  0.00    +0.141 HD
ENDBRANCH   9  11
BRANCH   9  14
ATOM     14  C   UNL     1      10.474   3.059  23.630  0.00  0.00    +0.246 C 
BRANCH  14  15
ATOM     15  C   UNL     1       9.429   4.167  23.728  0.00  0.00    +0.324 C 
ATOM     16  O   UNL     1       9.427   5.014  24.612  0.00  0.00    -0.249 OA
BRANCH  15  17
ATOM     17  O   UNL     1       8.517   4.157  22.732  0.00  0.00    -0.479 OA
ATOM     18  H   UNL     1       8.037   5.022  22.752  0.00  0.00    +0.295 HD
ENDBRANCH  15  17
ENDBRANCH  14  15
ENDBRANCH   9  14
ENDBRANCH   7   8
ENDBRANCH   4   7
ENDBRANCH   1   4
BRANCH   2  19
ATOM     19  C   UNL     1       5.730  -2.438  23.334  0.00  0.00    +0.143 C 
BRANCH  19  20
ATOM     20  C   UNL     1       5.141  -3.813  23.562  0.00  0.00    -0.030 A 
ATOM     21  C   UNL     1       5.800  -4.962  23.095  0.00  0.00    +0.005 A 
ATOM     22  C   UNL     1       5.260  -6.232  23.298  0.00  0.00    +0.000 A 
ATOM     23  C   UNL     1       4.045  -6.372  23.962  0.00  0.00    +0.000 A 
ATOM     24  C   UNL     1       3.367  -5.241  24.413  0.00  0.00    +0.000 A 
ATOM     25  C   UNL     1       3.911  -3.968  24.217  0.00  0.00    +0.005 A 
ENDBRANCH  19  20
ENDBRANCH   2  19
BRANCH   2  26
ATOM     26  C   UNL     1       7.070  -2.043  25.417  0.00  0.00    +0.143 C 
BRANCH  26  27
ATOM     27  C   UNL     1       6.904  -3.298  26.259  0.00  0.00    -0.030 A 
ATOM     28  C   UNL     1       5.827  -3.367  27.164  0.00  0.00    +0.005 A 
ATOM     29  C   UNL     1       5.641  -4.481  27.982  0.00  0.00    +0.000 A 
ATOM     30  C   UNL     1       6.521  -5.557  27.914  0.00  0.00    +0.000 A 
ATOM     31  C   UNL     1       7.585  -5.515  27.015  0.00  0.00    +0.000 A 
ATOM     32  C   UNL     1       7.769  -4.400  26.189  0.00  0.00    +0.005 A 
ENDBRANCH  26  27
ENDBRANCH   2  26
TORSDOF 12
ENDMDL
