MODEL 1
REMARK VINA RESULT:      -6.2      0.000      0.000
REMARK  Name = 
REMARK  15 active torsions:
REMARK  status: ('A' for Active; 'I' for Inactive)
REMARK    1  A    between atoms: C_1  and  C_2
REMARK    2  A    between atoms: C_2  and  C_3
REMARK    3  A    between atoms: C_3  and  C_4
REMARK    4  A    between atoms: C_4  and  C_5
REMARK    5  A    between atoms: C_5  and  C_6
REMARK    6  A    between atoms: C_6  and  O_8
REMARK    7  A    between atoms: C_6  and  C_9
REMARK    8  A    between atoms: C_10  and  C_11
REMARK    9  A    between atoms: C_12  and  C_13
REMARK   10  A    between atoms: C_13  and  C_14
REMARK   11  A    between atoms: C_15  and  C_16
REMARK   12  A    between atoms: C_16  and  C_17
REMARK   13  A    between atoms: C_17  and  C_18
REMARK   14  A    between atoms: C_18  and  C_19
REMARK   15  A    between atoms: C_19  and  O_20
REMARK                            x       y       z     vdW  Elec       q    Type
REMARK                         _______ _______ _______ _____ _____    ______ ____
ROOT
ATOM      1  C   UNL     1       9.688   1.567  23.186  0.00  0.00    -0.040 C 
ATOM      2  C   UNL     1       9.373   1.537  21.718  0.00  0.00    +0.043 C 
ATOM      3  C   UNL     1       9.431   0.062  21.347  0.00  0.00    +0.084 C 
ATOM      4  C   UNL     1      10.046  -0.553  22.566  0.00  0.00    +0.160 C 
ATOM      5  O   UNL     1      10.469  -1.698  22.627  0.00  0.00    -0.292 OA
ATOM      6  C   UNL     1      10.052   0.385  23.703  0.00  0.00    +0.002 C 
ENDROOT
BRANCH   1   8
ATOM      7  C   UNL     1       8.938   3.864  23.422  0.00  0.00    +0.004 C 
ATOM      8  C   UNL     1       9.560   2.792  23.932  0.00  0.00    +0.002 C 
BRANCH   7   9
ATOM      9  C   UNL     1       8.736   5.204  24.081  0.00  0.00    +0.137 C 
BRANCH   9  10
ATOM     10  O   UNL     1       8.767   5.059  25.497  0.00  0.00    -0.388 OA
ATOM     11  H   UNL     1       9.685   4.867  25.748  0.00  0.00    +0.210 HD
ENDBRANCH   9  10
BRANCH   9  12
ATOM     12  C   UNL     1       9.818   6.228  23.697  0.00  0.00    +0.035 C 
BRANCH  12  13
ATOM     13  C   UNL     1      10.795   6.517  24.840  0.00  0.00    +0.003 C 
BRANCH  13  14
ATOM     14  C   UNL     1      12.252   6.327  24.423  0.00  0.00    -0.000 C 
BRANCH  14  16
ATOM     15  C   UNL     1      13.256   5.575  22.234  0.00  0.00    +0.004 C 
ATOM     16  C   UNL     1      12.362   5.195  23.401  0.00  0.00    -0.003 C 
ENDBRANCH  14  16
ENDBRANCH  13  14
ENDBRANCH  12  13
ENDBRANCH   9  12
ENDBRANCH   7   9
ENDBRANCH   1   8
BRANCH   6  17
ATOM     17  C   UNL     1      10.418  -0.027  25.084  0.00  0.00    +0.065 C 
BRANCH  17  18
ATOM     18  C   UNL     1       9.204  -0.399  25.893  0.00  0.00    -0.026 C 
ATOM     19  C   UNL     1       8.526  -1.549  25.744  0.00  0.00    -0.031 C 
BRANCH  19  20
ATOM     20  C   UNL     1       7.323  -1.930  26.559  0.00  0.00    +0.027 C 
BRANCH  20  21
ATOM     21  C   UNL     1       7.135  -3.447  26.594  0.00  0.00    +0.015 C 
BRANCH  21  22
ATOM     22  C   UNL     1       7.602  -4.095  25.290  0.00  0.00    +0.121 C 
BRANCH  22  23
ATOM     23  C   UNL     1       8.606  -5.197  25.539  0.00  0.00    +0.305 C 
ATOM     24  O   UNL     1       9.533  -5.492  24.805  0.00  0.00    -0.251 OA
BRANCH  23  25
ATOM     25  O   UNL     1       8.371  -5.850  26.703  0.00  0.00    -0.481 OA
ATOM     26  H   UNL     1       7.736  -5.395  27.289  0.00  0.00    +0.295 HD
ENDBRANCH  23  25
ENDBRANCH  22  23
ENDBRANCH  21  22
ENDBRANCH  20  21
ENDBRANCH  19  20
ENDBRANCH  17  18
ENDBRANCH   6  17
TORSDOF 14
ENDMDL
MODEL 2
REMARK VINA RESULT:      -6.0      2.880      4.917
REMARK  Name = 
REMARK  15 active torsions:
REMARK  status: ('A' for Active; 'I' for Inactive)
REMARK    1  A    between atoms: C_1  and  C_2
REMARK    2  A    between atoms: C_2  and  C_3
REMARK    3  A    between atoms: C_3  and  C_4
REMARK    4  A    between atoms: C_4  and  C_5
REMARK    5  A    between atoms: C_5  and  C_6
REMARK    6  A    between atoms: C_6  and  O_8
REMARK    7  A    between atoms: C_6  and  C_9
REMARK    8  A    between atoms: C_10  and  C_11
REMARK    9  A    between atoms: C_12  and  C_13
REMARK   10  A    between atoms: C_13  and  C_14
REMARK   11  A    between atoms: C_15  and  C_16
REMARK   12  A    between atoms: C_16  and  C_17
REMARK   13  A    between atoms: C_17  and  C_18
REMARK   14  A    between atoms: C_18  and  C_19
REMARK   15  A    between atoms: C_19  and  O_20
REMARK                            x       y       z     vdW  Elec       q    Type
REMARK                         _______ _______ _______ _____ _____    ______ ____
ROOT
ATOM      1  C   UNL     1       6.373  -2.216  23.494  0.00  0.00    -0.040 C 
ATOM      2  C   UNL     1       7.037  -2.625  22.211  0.00  0.00    +0.043 C 
ATOM      3  C   UNL     1       6.098  -3.660  21.610  0.00  0.00    +0.084 C 
ATOM      4  C   UNL     1       5.154  -3.935  22.741  0.00  0.00    +0.160 C 
ATOM      5  O   UNL     1       4.357  -4.860  22.769  0.00  0.00    -0.292 OA
ATOM      6  C   UNL     1       5.283  -2.929  23.811  0.00  0.00    +0.002 C 
ENDROOT
BRANCH   1   8
ATOM      7  C   UNL     1       8.152  -1.117  24.728  0.00  0.00    +0.004 C 
ATOM      8  C   UNL     1       6.894  -1.117  24.265  0.00  0.00    +0.002 C 
BRANCH   7   9
ATOM      9  C   UNL     1       8.825  -0.046  25.545  0.00  0.00    +0.137 C 
BRANCH   9  10
ATOM     10  O   UNL     1       9.222  -0.573  26.808  0.00  0.00    -0.388 OA
ATOM     11  H   UNL     1       9.292  -1.536  26.710  0.00  0.00    +0.210 HD
ENDBRANCH   9  10
BRANCH   9  12
ATOM     12  C   UNL     1      10.083   0.523  24.867  0.00  0.00    +0.035 C 
BRANCH  12  13
ATOM     13  C   UNL     1       9.837   1.879  24.199  0.00  0.00    +0.003 C 
BRANCH  13  14
ATOM     14  C   UNL     1      10.212   1.876  22.719  0.00  0.00    -0.000 C 
BRANCH  14  16
ATOM     15  C   UNL     1       9.441  -0.095  21.345  0.00  0.00    +0.004 C 
ATOM     16  C   UNL     1       9.076   1.274  21.891  0.00  0.00    -0.003 C 
ENDBRANCH  14  16
ENDBRANCH  13  14
ENDBRANCH  12  13
ENDBRANCH   9  12
ENDBRANCH   7   9
ENDBRANCH   1   8
BRANCH   6  17
ATOM     17  C   UNL     1       4.335  -2.845  24.953  0.00  0.00    +0.065 C 
BRANCH  17  18
ATOM     18  C   UNL     1       4.881  -3.524  26.181  0.00  0.00    -0.026 C 
ATOM     19  C   UNL     1       5.661  -4.617  26.150  0.00  0.00    -0.031 C 
BRANCH  19  20
ATOM     20  C   UNL     1       6.219  -5.288  27.372  0.00  0.00    +0.027 C 
BRANCH  20  21
ATOM     21  C   UNL     1       7.735  -5.464  27.265  0.00  0.00    +0.015 C 
BRANCH  21  22
ATOM     22  C   UNL     1       8.342  -4.461  26.284  0.00  0.00    +0.121 C 
BRANCH  22  23
ATOM     23  C   UNL     1       9.140  -5.148  25.200  0.00  0.00    +0.305 C 
ATOM     24  O   UNL     1       8.784  -5.299  24.044  0.00  0.00    -0.251 OA
BRANCH  23  25
ATOM     25  O   UNL     1      10.337  -5.594  25.651  0.00  0.00    -0.481 OA
ATOM     26  H   UNL     1      10.275  -6.392  26.210  0.00  0.00    +0.295 HD
ENDBRANCH  23  25
ENDBRANCH  22  23
ENDBRANCH  21  22
ENDBRANCH  20  21
ENDBRANCH  19  20
ENDBRANCH  17  18
ENDBRANCH   6  17
TORSDOF 14
ENDMDL
MODEL 3
REMARK VINA RESULT:      -5.9      1.448      2.530
REMARK  Name = 
REMARK  15 active torsions:
REMARK  status: ('A' for Active; 'I' for Inactive)
REMARK    1  A    between atoms: C_1  and  C_2
REMARK    2  A    between atoms: C_2  and  C_3
REMARK    3  A    between atoms: C_3  and  C_4
REMARK    4  A    between atoms: C_4  and  C_5
REMARK    5  A    between atoms: C_5  and  C_6
REMARK    6  A    between atoms: C_6  and  O_8
REMARK    7  A    between atoms: C_6  and  C_9
REMARK    8  A    between atoms: C_10  and  C_11
REMARK    9  A    between atoms: C_12  and  C_13
REMARK   10  A    between atoms: C_13  and  C_14
REMARK   11  A    between atoms: C_15  and  C_16
REMARK   12  A    between atoms: C_16  and  C_17
REMARK   13  A    between atoms: C_17  and  C_18
REMARK   14  A    between atoms: C_18  and  C_19
REMARK   15  A    between atoms: C_19  and  O_20
REMARK                            x       y       z     vdW  Elec       q    Type
REMARK                         _______ _______ _______ _____ _____    ______ ____
ROOT
ATOM      1  C   UNL     1       9.634   1.261  22.820  0.00  0.00    -0.040 C 
ATOM      2  C   UNL     1       9.277   0.970  21.390  0.00  0.00    +0.043 C 
ATOM      3  C   UNL     1       9.409  -0.541  21.267  0.00  0.00    +0.084 C 
ATOM      4  C   UNL     1      10.095  -0.911  22.547  0.00  0.00    +0.160 C 
ATOM      5  O   UNL     1      10.585  -2.006  22.779  0.00  0.00    -0.292 OA
ATOM      6  C   UNL     1      10.081   0.204  23.511  0.00  0.00    +0.002 C 
ENDROOT
BRANCH   1   8
ATOM      7  C   UNL     1      10.462   3.475  23.377  0.00  0.00    +0.004 C 
ATOM      8  C   UNL     1       9.458   2.586  23.357  0.00  0.00    +0.002 C 
BRANCH   7   9
ATOM      9  C   UNL     1      10.424   4.884  23.909  0.00  0.00    +0.137 C 
BRANCH   9  10
ATOM     10  O   UNL     1      11.095   5.762  23.010  0.00  0.00    -0.388 OA
ATOM     11  H   UNL     1      11.783   5.245  22.561  0.00  0.00    +0.210 HD
ENDBRANCH   9  10
BRANCH   9  12
ATOM     12  C   UNL     1       8.993   5.417  24.092  0.00  0.00    +0.035 C 
BRANCH  12  13
ATOM     13  C   UNL     1       8.703   6.650  23.233  0.00  0.00    +0.003 C 
BRANCH  13  14
ATOM     14  C   UNL     1       7.541   6.428  22.267  0.00  0.00    -0.000 C 
BRANCH  14  16
ATOM     15  C   UNL     1       5.611   4.909  22.841  0.00  0.00    +0.004 C 
ATOM     16  C   UNL     1       7.049   4.983  22.361  0.00  0.00    -0.003 C 
ENDBRANCH  14  16
ENDBRANCH  13  14
ENDBRANCH  12  13
ENDBRANCH   9  12
ENDBRANCH   7   9
ENDBRANCH   1   8
BRANCH   6  17
ATOM     17  C   UNL     1      10.512   0.049  24.926  0.00  0.00    +0.065 C 
BRANCH  17  18
ATOM     18  C   UNL     1       9.384  -0.428  25.801  0.00  0.00    -0.026 C 
ATOM     19  C   UNL     1       8.627  -1.505  25.530  0.00  0.00    -0.031 C 
BRANCH  19  20
ATOM     20  C   UNL     1       7.510  -1.991  26.409  0.00  0.00    +0.027 C 
BRANCH  20  21
ATOM     21  C   UNL     1       7.430  -3.519  26.408  0.00  0.00    +0.015 C 
BRANCH  21  22
ATOM     22  C   UNL     1       8.822  -4.148  26.447  0.00  0.00    +0.121 C 
BRANCH  22  23
ATOM     23  C   UNL     1       9.064  -5.054  25.261  0.00  0.00    +0.305 C 
ATOM     24  O   UNL     1       8.347  -5.143  24.279  0.00  0.00    -0.251 OA
BRANCH  23  25
ATOM     25  O   UNL     1      10.198  -5.782  25.396  0.00  0.00    -0.481 OA
ATOM     26  H   UNL     1      10.057  -6.659  25.802  0.00  0.00    +0.295 HD
ENDBRANCH  23  25
ENDBRANCH  22  23
ENDBRANCH  21  22
ENDBRANCH  20  21
ENDBRANCH  19  20
ENDBRANCH  17  18
ENDBRANCH   6  17
TORSDOF 14
ENDMDL
MODEL 4
REMARK VINA RESULT:      -5.8      1.142      1.341
REMARK  Name = 
REMARK  15 active torsions:
REMARK  status: ('A' for Active; 'I' for Inactive)
REMARK    1  A    between atoms: C_1  and  C_2
REMARK    2  A    between atoms: C_2  and  C_3
REMARK    3  A    between atoms: C_3  and  C_4
REMARK    4  A    between atoms: C_4  and  C_5
REMARK    5  A    between atoms: C_5  and  C_6
REMARK    6  A    between atoms: C_6  and  O_8
REMARK    7  A    between atoms: C_6  and  C_9
REMARK    8  A    between atoms: C_10  and  C_11
REMARK    9  A    between atoms: C_12  and  C_13
REMARK   10  A    between atoms: C_13  and  C_14
REMARK   11  A    between atoms: C_15  and  C_16
REMARK   12  A    between atoms: C_16  and  C_17
REMARK   13  A    between atoms: C_17  and  C_18
REMARK   14  A    between atoms: C_18  and  C_19
REMARK   15  A    between atoms: C_19  and  O_20
REMARK                            x       y       z     vdW  Elec       q    Type
REMARK                         _______ _______ _______ _____ _____    ______ ____
ROOT
ATOM      1  C   UNL     1       9.658   1.430  23.427  0.00  0.00    -0.040 C 
ATOM      2  C   UNL     1       9.754   1.407  21.929  0.00  0.00    +0.043 C 
ATOM      3  C   UNL     1       9.764  -0.073  21.572  0.00  0.00    +0.084 C 
ATOM      4  C   UNL     1       9.959  -0.726  22.906  0.00  0.00    +0.160 C 
ATOM      5  O   UNL     1      10.233  -1.905  23.067  0.00  0.00    -0.292 OA
ATOM      6  C   UNL     1       9.748   0.227  24.012  0.00  0.00    +0.002 C 
ENDROOT
BRANCH   1   8
ATOM      7  C   UNL     1       8.960   3.754  23.503  0.00  0.00    +0.004 C 
ATOM      8  C   UNL     1       9.456   2.675  24.123  0.00  0.00    +0.002 C 
BRANCH   7   9
ATOM      9  C   UNL     1       8.701   5.113  24.100  0.00  0.00    +0.137 C 
BRANCH   9  10
ATOM     10  O   UNL     1       8.670   5.023  25.521  0.00  0.00    -0.388 OA
ATOM     11  H   UNL     1       9.574   4.836  25.819  0.00  0.00    +0.210 HD
ENDBRANCH   9  10
BRANCH   9  12
ATOM     12  C   UNL     1       9.779   6.146  23.726  0.00  0.00    +0.035 C 
BRANCH  12  13
ATOM     13  C   UNL     1      10.771   6.406  24.862  0.00  0.00    +0.003 C 
BRANCH  13  14
ATOM     14  C   UNL     1      12.224   6.329  24.396  0.00  0.00    -0.000 C 
BRANCH  14  16
ATOM     15  C   UNL     1      13.254   5.554  22.227  0.00  0.00    +0.004 C 
ATOM     16  C   UNL     1      12.401   5.165  23.422  0.00  0.00    -0.003 C 
ENDBRANCH  14  16
ENDBRANCH  13  14
ENDBRANCH  12  13
ENDBRANCH   9  12
ENDBRANCH   7   9
ENDBRANCH   1   8
BRANCH   6  17
ATOM     17  C   UNL     1       9.681  -0.196  25.436  0.00  0.00    +0.065 C 
BRANCH  17  18
ATOM     18  C   UNL     1       8.502  -1.096  25.693  0.00  0.00    -0.026 C 
ATOM     19  C   UNL     1       8.603  -2.345  26.177  0.00  0.00    -0.031 C 
BRANCH  19  20
ATOM     20  C   UNL     1       7.428  -3.241  26.448  0.00  0.00    +0.027 C 
BRANCH  20  21
ATOM     21  C   UNL     1       7.644  -4.633  25.852  0.00  0.00    +0.015 C 
BRANCH  21  22
ATOM     22  C   UNL     1       6.654  -4.913  24.722  0.00  0.00    +0.121 C 
BRANCH  22  23
ATOM     23  C   UNL     1       7.339  -4.962  23.375  0.00  0.00    +0.305 C 
ATOM     24  O   UNL     1       7.285  -5.887  22.583  0.00  0.00    -0.251 OA
BRANCH  23  25
ATOM     25  O   UNL     1       8.045  -3.834  23.119  0.00  0.00    -0.481 OA
ATOM     26  H   UNL     1       8.881  -3.992  22.640  0.00  0.00    +0.295 HD
ENDBRANCH  23  25
ENDBRANCH  22  23
ENDBRANCH  21  22
ENDBRANCH  20  21
ENDBRANCH  19  20
ENDBRANCH  17  18
ENDBRANCH   6  17
TORSDOF 14
ENDMDL
MODEL 5
REMARK VINA RESULT:      -5.8      3.000      5.171
REMARK  Name = 
REMARK  15 active torsions:
REMARK  status: ('A' for Active; 'I' for Inactive)
REMARK    1  A    between atoms: C_1  and  C_2
REMARK    2  A    between atoms: C_2  and  C_3
REMARK    3  A    between atoms: C_3  and  C_4
REMARK    4  A    between atoms: C_4  and  C_5
REMARK    5  A    between atoms: C_5  and  C_6
REMARK    6  A    between atoms: C_6  and  O_8
REMARK    7  A    between atoms: C_6  and  C_9
REMARK    8  A    between atoms: C_10  and  C_11
REMARK    9  A    between atoms: C_12  and  C_13
REMARK   10  A    between atoms: C_13  and  C_14
REMARK   11  A    between atoms: C_15  and  C_16
REMARK   12  A    between atoms: C_16  and  C_17
REMARK   13  A    between atoms: C_17  and  C_18
REMARK   14  A    between atoms: C_18  and  C_19
REMARK   15  A    between atoms: C_19  and  O_20
REMARK                            x       y       z     vdW  Elec       q    Type
REMARK                         _______ _______ _______ _____ _____    ______ ____
ROOT
ATOM      1  C   UNL     1       7.226  -2.794  23.577  0.00  0.00    -0.040 C 
ATOM      2  C   UNL     1       6.390  -2.602  22.344  0.00  0.00    +0.043 C 
ATOM      3  C   UNL     1       6.207  -4.007  21.788  0.00  0.00    +0.084 C 
ATOM      4  C   UNL     1       7.184  -4.804  22.596  0.00  0.00    +0.160 C 
ATOM      5  O   UNL     1       7.520  -5.951  22.342  0.00  0.00    -0.292 OA
ATOM      6  C   UNL     1       7.673  -4.044  23.760  0.00  0.00    +0.002 C 
ENDROOT
BRANCH   1   8
ATOM      7  C   UNL     1       8.642  -1.045  24.490  0.00  0.00    +0.004 C 
ATOM      8  C   UNL     1       7.467  -1.690  24.471  0.00  0.00    +0.002 C 
BRANCH   7   9
ATOM      9  C   UNL     1       9.034   0.114  25.368  0.00  0.00    +0.137 C 
BRANCH   9  10
ATOM     10  O   UNL     1       9.380  -0.355  26.668  0.00  0.00    -0.388 OA
ATOM     11  H   UNL     1      10.341  -0.482  26.683  0.00  0.00    +0.210 HD
ENDBRANCH   9  10
BRANCH   9  12
ATOM     12  C   UNL     1      10.241   0.896  24.824  0.00  0.00    +0.035 C 
BRANCH  12  13
ATOM     13  C   UNL     1       9.833   2.100  23.970  0.00  0.00    +0.003 C 
BRANCH  13  14
ATOM     14  C   UNL     1      10.224   1.934  22.503  0.00  0.00    -0.000 C 
BRANCH  14  16
ATOM     15  C   UNL     1       9.314  -0.045  21.230  0.00  0.00    +0.004 C 
ATOM     16  C   UNL     1       9.047   1.371  21.707  0.00  0.00    -0.003 C 
ENDBRANCH  14  16
ENDBRANCH  13  14
ENDBRANCH  12  13
ENDBRANCH   9  12
ENDBRANCH   7   9
ENDBRANCH   1   8
BRANCH   6  17
ATOM     17  C   UNL     1       8.494  -4.661  24.836  0.00  0.00    +0.065 C 
BRANCH  17  18
ATOM     18  C   UNL     1       7.657  -5.508  25.757  0.00  0.00    -0.026 C 
ATOM     19  C   UNL     1       6.380  -5.235  26.076  0.00  0.00    -0.031 C 
BRANCH  19  20
ATOM     20  C   UNL     1       5.538  -6.085  26.983  0.00  0.00    +0.027 C 
BRANCH  20  21
ATOM     21  C   UNL     1       4.245  -6.520  26.291  0.00  0.00    +0.015 C 
BRANCH  21  22
ATOM     22  C   UNL     1       3.892  -5.585  25.135  0.00  0.00    +0.121 C 
BRANCH  22  23
ATOM     23  C   UNL     1       3.878  -6.312  23.809  0.00  0.00    +0.305 C 
ATOM     24  O   UNL     1       3.375  -5.899  22.779  0.00  0.00    -0.251 OA
BRANCH  23  25
ATOM     25  O   UNL     1       4.505  -7.510  23.876  0.00  0.00    -0.481 OA
ATOM     26  H   UNL     1       3.896  -8.273  23.911  0.00  0.00    +0.295 HD
ENDBRANCH  23  25
ENDBRANCH  22  23
ENDBRANCH  21  22
ENDBRANCH  20  21
ENDBRANCH  19  20
ENDBRANCH  17  18
ENDBRANCH   6  17
TORSDOF 14
ENDMDL
MODEL 6
REMARK VINA RESULT:      -5.8      3.292      7.213
REMARK  Name = 
REMARK  15 active torsions:
REMARK  status: ('A' for Active; 'I' for Inactive)
REMARK    1  A    between atoms: C_1  and  C_2
REMARK    2  A    between atoms: C_2  and  C_3
REMARK    3  A    between atoms: C_3  and  C_4
REMARK    4  A    between atoms: C_4  and  C_5
REMARK    5  A    between atoms: C_5  and  C_6
REMARK    6  A    between atoms: C_6  and  O_8
REMARK    7  A    between atoms: C_6  and  C_9
REMARK    8  A    between atoms: C_10  and  C_11
REMARK    9  A    between atoms: C_12  and  C_13
REMARK   10  A    between atoms: C_13  and  C_14
REMARK   11  A    between atoms: C_15  and  C_16
REMARK   12  A    between atoms: C_16  and  C_17
REMARK   13  A    between atoms: C_17  and  C_18
REMARK   14  A    between atoms: C_18  and  C_19
REMARK   15  A    between atoms: C_19  and  O_20
REMARK                            x       y       z     vdW  Elec       q    Type
REMARK                         _______ _______ _______ _____ _____    ______ ____
ROOT
ATOM      1  C   UNL     1       8.827  -0.948  22.998  0.00  0.00    -0.040 C 
ATOM      2  C   UNL     1      10.323  -0.843  23.083  0.00  0.00    +0.043 C 
ATOM      3  C   UNL     1      10.568   0.247  24.117  0.00  0.00    +0.084 C 
ATOM      4  C   UNL     1       9.202   0.836  24.296  0.00  0.00    +0.160 C 
ATOM      5  O   UNL     1       8.969   1.880  24.886  0.00  0.00    -0.292 OA
ATOM      6  C   UNL     1       8.161  -0.019  23.698  0.00  0.00    +0.002 C 
ENDROOT
BRANCH   1   8
ATOM      7  C   UNL     1       7.896  -3.181  22.790  0.00  0.00    +0.004 C 
ATOM      8  C   UNL     1       8.215  -2.004  22.233  0.00  0.00    +0.002 C 
BRANCH   7   9
ATOM      9  C   UNL     1       7.262  -4.369  22.115  0.00  0.00    +0.137 C 
BRANCH   9  10
ATOM     10  O   UNL     1       7.543  -5.556  22.851  0.00  0.00    -0.388 OA
ATOM     11  H   UNL     1       6.906  -6.230  22.568  0.00  0.00    +0.210 HD
ENDBRANCH   9  10
BRANCH   9  12
ATOM     12  C   UNL     1       5.732  -4.248  22.004  0.00  0.00    +0.035 C 
BRANCH  12  13
ATOM     13  C   UNL     1       5.074  -3.800  23.312  0.00  0.00    +0.003 C 
BRANCH  13  14
ATOM     14  C   UNL     1       3.837  -4.628  23.655  0.00  0.00    -0.000 C 
BRANCH  14  16
ATOM     15  C   UNL     1       4.921  -6.383  25.107  0.00  0.00    +0.004 C 
ATOM     16  C   UNL     1       3.965  -5.204  25.065  0.00  0.00    -0.003 C 
ENDBRANCH  14  16
ENDBRANCH  13  14
ENDBRANCH  12  13
ENDBRANCH   9  12
ENDBRANCH   7   9
ENDBRANCH   1   8
BRANCH   6  17
ATOM     17  C   UNL     1       6.707   0.221  23.903  0.00  0.00    +0.065 C 
BRANCH  17  18
ATOM     18  C   UNL     1       6.114  -0.759  24.880  0.00  0.00    -0.026 C 
ATOM     19  C   UNL     1       6.804  -1.333  25.880  0.00  0.00    -0.031 C 
BRANCH  19  20
ATOM     20  C   UNL     1       6.212  -2.300  26.864  0.00  0.00    +0.027 C 
BRANCH  20  21
ATOM     21  C   UNL     1       6.870  -3.676  26.753  0.00  0.00    +0.015 C 
BRANCH  21  22
ATOM     22  C   UNL     1       8.297  -3.568  26.216  0.00  0.00    +0.121 C 
BRANCH  22  23
ATOM     23  C   UNL     1       8.897  -4.927  25.940  0.00  0.00    +0.305 C 
ATOM     24  O   UNL     1       9.707  -5.181  25.064  0.00  0.00    -0.251 OA
BRANCH  23  25
ATOM     25  O   UNL     1       8.437  -5.873  26.793  0.00  0.00    -0.481 OA
ATOM     26  H   UNL     1       8.920  -5.908  27.641  0.00  0.00    +0.295 HD
ENDBRANCH  23  25
ENDBRANCH  22  23
ENDBRANCH  21  22
ENDBRANCH  20  21
ENDBRANCH  19  20
ENDBRANCH  17  18
ENDBRANCH   6  17
TORSDOF 14
ENDMDL
MODEL 7
REMARK VINA RESULT:      -5.8      2.301      3.468
REMARK  Name = 
REMARK  15 active torsions:
REMARK  status: ('A' for Active; 'I' for Inactive)
REMARK    1  A    between atoms: C_1  and  C_2
REMARK    2  A    between atoms: C_2  and  C_3
REMARK    3  A    between atoms: C_3  and  C_4
REMARK    4  A    between atoms: C_4  and  C_5
REMARK    5  A    between atoms: C_5  and  C_6
REMARK    6  A    between atoms: C_6  and  O_8
REMARK    7  A    between atoms: C_6  and  C_9
REMARK    8  A    between atoms: C_10  and  C_11
REMARK    9  A    between atoms: C_12  and  C_13
REMARK   10  A    between atoms: C_13  and  C_14
REMARK   11  A    between atoms: C_15  and  C_16
REMARK   12  A    between atoms: C_16  and  C_17
REMARK   13  A    between atoms: C_17  and  C_18
REMARK   14  A    between atoms: C_18  and  C_19
REMARK   15  A    between atoms: C_19  and  O_20
REMARK                            x       y       z     vdW  Elec       q    Type
REMARK                         _______ _______ _______ _____ _____    ______ ____
ROOT
ATOM      1  C   UNL     1       9.763   1.297  23.433  0.00  0.00    -0.040 C 
ATOM      2  C   UNL     1       9.823   1.217  21.934  0.00  0.00    +0.043 C 
ATOM      3  C   UNL     1       9.745  -0.272  21.630  0.00  0.00    +0.084 C 
ATOM      4  C   UNL     1       9.935  -0.889  22.983  0.00  0.00    +0.160 C 
ATOM      5  O   UNL     1      10.149  -2.075  23.180  0.00  0.00    -0.292 OA
ATOM      6  C   UNL     1       9.801   0.111  24.058  0.00  0.00    +0.002 C 
ENDROOT
BRANCH   1   8
ATOM      7  C   UNL     1       9.647   3.721  23.397  0.00  0.00    +0.004 C 
ATOM      8  C   UNL     1       9.643   2.573  24.089  0.00  0.00    +0.002 C 
BRANCH   7   9
ATOM      9  C   UNL     1       9.536   5.120  23.946  0.00  0.00    +0.137 C 
BRANCH   9  10
ATOM     10  O   UNL     1      10.480   5.972  23.306  0.00  0.00    -0.388 OA
ATOM     11  H   UNL     1      10.820   6.584  23.978  0.00  0.00    +0.210 HD
ENDBRANCH   9  10
BRANCH   9  12
ATOM     12  C   UNL     1       8.141   5.736  23.737  0.00  0.00    +0.035 C 
BRANCH  12  13
ATOM     13  C   UNL     1       7.464   5.252  22.452  0.00  0.00    +0.003 C 
BRANCH  13  14
ATOM     14  C   UNL     1       6.151   4.522  22.726  0.00  0.00    -0.000 C 
BRANCH  14  16
ATOM     15  C   UNL     1       6.070   2.072  23.320  0.00  0.00    +0.004 C 
ATOM     16  C   UNL     1       6.228   3.088  22.203  0.00  0.00    -0.003 C 
ENDBRANCH  14  16
ENDBRANCH  13  14
ENDBRANCH  12  13
ENDBRANCH   9  12
ENDBRANCH   7   9
ENDBRANCH   1   8
BRANCH   6  17
ATOM     17  C   UNL     1       9.744  -0.258  25.497  0.00  0.00    +0.065 C 
BRANCH  17  18
ATOM     18  C   UNL     1       8.489  -1.024  25.825  0.00  0.00    -0.026 C 
ATOM     19  C   UNL     1       7.258  -0.648  25.439  0.00  0.00    -0.031 C 
BRANCH  19  20
ATOM     20  C   UNL     1       6.007  -1.417  25.752  0.00  0.00    +0.027 C 
BRANCH  20  21
ATOM     21  C   UNL     1       5.590  -2.301  24.575  0.00  0.00    +0.015 C 
BRANCH  21  22
ATOM     22  C   UNL     1       6.245  -1.837  23.274  0.00  0.00    +0.121 C 
BRANCH  22  23
ATOM     23  C   UNL     1       6.369  -2.965  22.274  0.00  0.00    +0.305 C 
ATOM     24  O   UNL     1       5.480  -3.365  21.542  0.00  0.00    -0.251 OA
BRANCH  23  25
ATOM     25  O   UNL     1       7.610  -3.508  22.266  0.00  0.00    -0.481 OA
ATOM     26  H   UNL     1       8.327  -2.855  22.379  0.00  0.00    +0.295 HD
ENDBRANCH  23  25
ENDBRANCH  22  23
ENDBRANCH  21  22
ENDBRANCH  20  21
ENDBRANCH  19  20
ENDBRANCH  17  18
ENDBRANCH   6  17
TORSDOF 14
ENDMDL
MODEL 8
REMARK VINA RESULT:      -5.8      2.925      7.746
REMARK  Name = 
REMARK  15 active torsions:
REMARK  status: ('A' for Active; 'I' for Inactive)
REMARK    1  A    between atoms: C_1  and  C_2
REMARK    2  A    between atoms: C_2  and  C_3
REMARK    3  A    between atoms: C_3  and  C_4
REMARK    4  A    between atoms: C_4  and  C_5
REMARK    5  A    between atoms: C_5  and  C_6
REMARK    6  A    between atoms: C_6  and  O_8
REMARK    7  A    between atoms: C_6  and  C_9
REMARK    8  A    between atoms: C_10  and  C_11
REMARK    9  A    between atoms: C_12  and  C_13
REMARK   10  A    between atoms: C_13  and  C_14
REMARK   11  A    between atoms: C_15  and  C_16
REMARK   12  A    between atoms: C_16  and  C_17
REMARK   13  A    between atoms: C_17  and  C_18
REMARK   14  A    between atoms: C_18  and  C_19
REMARK   15  A    between atoms: C_19  and  O_20
REMARK                            x       y       z     vdW  Elec       q    Type
REMARK                         _______ _______ _______ _____ _____    ______ ____
ROOT
ATOM      1  C   UNL     1       6.524  -5.094  22.894  0.00  0.00    -0.040 C 
ATOM      2  C   UNL     1       6.639  -6.380  22.127  0.00  0.00    +0.043 C 
ATOM      3  C   UNL     1       6.491  -5.967  20.670  0.00  0.00    +0.084 C 
ATOM      4  C   UNL     1       6.029  -4.546  20.782  0.00  0.00    +0.160 C 
ATOM      5  O   UNL     1       5.588  -3.885  19.854  0.00  0.00    -0.292 OA
ATOM      6  C   UNL     1       6.201  -4.027  22.151  0.00  0.00    +0.002 C 
ENDROOT
BRANCH   1   8
ATOM      7  C   UNL     1       8.031  -4.995  24.796  0.00  0.00    +0.004 C 
ATOM      8  C   UNL     1       6.783  -5.068  24.311  0.00  0.00    +0.002 C 
BRANCH   7   9
ATOM      9  C   UNL     1       8.448  -4.965  26.243  0.00  0.00    +0.137 C 
BRANCH   9  10
ATOM     10  O   UNL     1       9.844  -5.224  26.353  0.00  0.00    -0.388 OA
ATOM     11  H   UNL     1       9.982  -6.162  26.142  0.00  0.00    +0.210 HD
ENDBRANCH   9  10
BRANCH   9  12
ATOM     12  C   UNL     1       8.176  -3.608  26.916  0.00  0.00    +0.035 C 
BRANCH  12  13
ATOM     13  C   UNL     1       8.547  -2.418  26.027  0.00  0.00    +0.003 C 
BRANCH  13  14
ATOM     14  C   UNL     1       7.631  -1.217  26.250  0.00  0.00    -0.000 C 
BRANCH  14  16
ATOM     15  C   UNL     1       7.336   0.979  25.043  0.00  0.00    +0.004 C 
ATOM     16  C   UNL     1       8.311   0.061  25.757  0.00  0.00    -0.003 C 
ENDBRANCH  14  16
ENDBRANCH  13  14
ENDBRANCH  12  13
ENDBRANCH   9  12
ENDBRANCH   7   9
ENDBRANCH   1   8
BRANCH   6  17
ATOM     17  C   UNL     1       6.012  -2.593  22.497  0.00  0.00    +0.065 C 
BRANCH  17  18
ATOM     18  C   UNL     1       7.329  -1.877  22.637  0.00  0.00    -0.026 C 
ATOM     19  C   UNL     1       8.508  -2.390  22.247  0.00  0.00    -0.031 C 
BRANCH  19  20
ATOM     20  C   UNL     1       9.822  -1.673  22.373  0.00  0.00    +0.027 C 
BRANCH  20  21
ATOM     21  C   UNL     1       9.761  -0.288  21.726  0.00  0.00    +0.015 C 
BRANCH  21  22
ATOM     22  C   UNL     1      10.207   0.801  22.702  0.00  0.00    +0.121 C 
BRANCH  22  23
ATOM     23  C   UNL     1       9.670   2.159  22.311  0.00  0.00    +0.305 C 
ATOM     24  O   UNL     1       8.535   2.392  21.932  0.00  0.00    -0.251 OA
BRANCH  23  25
ATOM     25  O   UNL     1      10.605   3.132  22.432  0.00  0.00    -0.481 OA
ATOM     26  H   UNL     1      11.520   2.796  22.482  0.00  0.00    +0.295 HD
ENDBRANCH  23  25
ENDBRANCH  22  23
ENDBRANCH  21  22
ENDBRANCH  20  21
ENDBRANCH  19  20
ENDBRANCH  17  18
ENDBRANCH   6  17
TORSDOF 14
ENDMDL
MODEL 9
REMARK VINA RESULT:      -5.7      3.029      7.155
REMARK  Name = 
REMARK  15 active torsions:
REMARK  status: ('A' for Active; 'I' for Inactive)
REMARK    1  A    between atoms: C_1  and  C_2
REMARK    2  A    between atoms: C_2  and  C_3
REMARK    3  A    between atoms: C_3  and  C_4
REMARK    4  A    between atoms: C_4  and  C_5
REMARK    5  A    between atoms: C_5  and  C_6
REMARK    6  A    between atoms: C_6  and  O_8
REMARK    7  A    between atoms: C_6  and  C_9
REMARK    8  A    between atoms: C_10  and  C_11
REMARK    9  A    between atoms: C_12  and  C_13
REMARK   10  A    between atoms: C_13  and  C_14
REMARK   11  A    between atoms: C_15  and  C_16
REMARK   12  A    between atoms: C_16  and  C_17
REMARK   13  A    between atoms: C_17  and  C_18
REMARK   14  A    between atoms: C_18  and  C_19
REMARK   15  A    between atoms: C_19  and  O_20
REMARK                            x       y       z     vdW  Elec       q    Type
REMARK                         _______ _______ _______ _____ _____    ______ ____
ROOT
ATOM      1  C   UNL     1       9.229  -0.638  24.435  0.00  0.00    -0.040 C 
ATOM      2  C   UNL     1      10.386   0.297  24.650  0.00  0.00    +0.043 C 
ATOM      3  C   UNL     1       9.943   1.602  24.006  0.00  0.00    +0.084 C 
ATOM      4  C   UNL     1       8.714   1.191  23.253  0.00  0.00    +0.160 C 
ATOM      5  O   UNL     1       8.147   1.883  22.421  0.00  0.00    -0.292 OA
ATOM      6  C   UNL     1       8.250  -0.147  23.662  0.00  0.00    +0.002 C 
ENDROOT
BRANCH   1   8
ATOM      7  C   UNL     1       9.541  -3.045  24.384  0.00  0.00    +0.004 C 
ATOM      8  C   UNL     1       9.217  -1.935  25.061  0.00  0.00    +0.002 C 
BRANCH   7   9
ATOM      9  C   UNL     1       9.567  -4.458  24.905  0.00  0.00    +0.137 C 
BRANCH   9  10
ATOM     10  O   UNL     1       9.452  -4.457  26.325  0.00  0.00    -0.388 OA
ATOM     11  H   UNL     1       9.621  -5.362  26.629  0.00  0.00    +0.210 HD
ENDBRANCH   9  10
BRANCH   9  12
ATOM     12  C   UNL     1       8.420  -5.322  24.351  0.00  0.00    +0.035 C 
BRANCH  12  13
ATOM     13  C   UNL     1       7.700  -4.666  23.170  0.00  0.00    +0.003 C 
BRANCH  13  14
ATOM     14  C   UNL     1       7.047  -5.690  22.244  0.00  0.00    -0.000 C 
BRANCH  14  16
ATOM     15  C   UNL     1       4.890  -6.235  23.432  0.00  0.00    +0.004 C 
ATOM     16  C   UNL     1       5.528  -5.517  22.257  0.00  0.00    -0.003 C 
ENDBRANCH  14  16
ENDBRANCH  13  14
ENDBRANCH  12  13
ENDBRANCH   9  12
ENDBRANCH   7   9
ENDBRANCH   1   8
BRANCH   6  17
ATOM     17  C   UNL     1       6.947  -0.715  23.225  0.00  0.00    +0.065 C 
BRANCH  17  18
ATOM     18  C   UNL     1       6.061  -1.040  24.398  0.00  0.00    -0.026 C 
ATOM     19  C   UNL     1       5.520  -2.250  24.617  0.00  0.00    -0.031 C 
BRANCH  19  20
ATOM     20  C   UNL     1       4.647  -2.581  25.794  0.00  0.00    +0.027 C 
BRANCH  20  21
ATOM     21  C   UNL     1       4.785  -4.053  26.189  0.00  0.00    +0.015 C 
BRANCH  21  22
ATOM     22  C   UNL     1       5.975  -4.267  27.123  0.00  0.00    +0.121 C 
BRANCH  22  23
ATOM     23  C   UNL     1       6.315  -5.733  27.273  0.00  0.00    +0.305 C 
ATOM     24  O   UNL     1       5.582  -6.664  26.986  0.00  0.00    -0.251 OA
BRANCH  23  25
ATOM     25  O   UNL     1       7.559  -5.921  27.772  0.00  0.00    -0.481 OA
ATOM     26  H   UNL     1       8.236  -5.341  27.374  0.00  0.00    +0.295 HD
ENDBRANCH  23  25
ENDBRANCH  22  23
ENDBRANCH  21  22
ENDBRANCH  20  21
ENDBRANCH  19  20
ENDBRANCH  17  18
ENDBRANCH   6  17
TORSDOF 14
ENDMDL
