MODEL 1
REMARK VINA RESULT:      -5.7      0.000      0.000
REMARK  Name = 
REMARK  6 active torsions:
REMARK  status: ('A' for Active; 'I' for Inactive)
REMARK    1  A    between atoms: N_1  and  CA_2
REMARK    2  A    between atoms: CA_2  and  C_4
REMARK    3  A    between atoms: CA_2  and  C_14
REMARK    4  A    between atoms: C_4  and  C_5
REMARK    5  A    between atoms: C_9  and  O_10
REMARK    6  A    between atoms: C_14  and  O_15
REMARK                            x       y       z     vdW  Elec       q    Type
REMARK                         _______ _______ _______ _____ _____    ______ ____
ROOT
ATOM      1  C   UNL     1       9.021  -1.418  23.958  0.00  0.00    +0.003 C 
ATOM      2  C   UNL     1       8.695  -1.393  22.505  0.00  0.00    +0.186 C 
ATOM      3  O   UNL     1       8.034  -2.286  21.988  0.00  0.00    -0.287 OA
ATOM      4  C   UNL     1       9.100  -0.217  21.721  0.00  0.00    +0.098 C 
ATOM      5  C   UNL     1       9.814   0.760  22.278  0.00  0.00    +0.145 C 
ATOM      6  C   UNL     1      10.265   0.684  23.690  0.00  0.00    +0.097 C 
ATOM      7  N   UNL     1      11.029   1.627  24.139  0.00  0.00    -0.296 NA
ATOM      8  H   UNL     1      11.264   1.465  25.126  0.00  0.00    +0.187 HD
ATOM      9  C   UNL     1       9.785  -0.454  24.495  0.00  0.00    +0.038 C 
ENDROOT
BRANCH   5  10
ATOM     10  O   UNL     1      10.160   1.896  21.574  0.00  0.00    -0.505 OA
ATOM     11  H   UNL     1       9.497   2.561  21.870  0.00  0.00    +0.292 HD
ENDBRANCH   5  10
BRANCH   1  12
ATOM     12  C   UNL     1       8.436  -2.553  24.770  0.00  0.00    +0.069 C 
BRANCH  12  13
ATOM     13  CA  UNL     1       9.128  -3.914  24.545  0.00  0.00    +0.165 C 
BRANCH  13  14
ATOM     14  N   UNL     1       8.394  -4.850  23.635  0.00  0.00    -0.318 NA
ATOM     15  H1  UNL     1       7.828  -5.497  24.196  0.00  0.00    +0.119 HD
ATOM     16  H2  UNL     1       7.660  -4.304  23.169  0.00  0.00    +0.119 HD
ENDBRANCH  13  14
BRANCH  13  17
ATOM     17  C   UNL     1       9.366  -4.617  25.891  0.00  0.00    +0.322 C 
ATOM     18  OXT UNL     1       8.773  -4.366  26.928  0.00  0.00    -0.249 OA
BRANCH  17  19
ATOM     19  O   UNL     1      10.306  -5.591  25.783  0.00  0.00    -0.480 OA
ATOM     20  H   UNL     1      10.866  -5.338  25.005  0.00  0.00    +0.295 HD
ENDBRANCH  17  19
ENDBRANCH  13  17
ENDBRANCH  12  13
ENDBRANCH   1  12
TORSDOF 6
ENDMDL
MODEL 2
REMARK VINA RESULT:      -5.7      2.297      5.963
REMARK  Name = 
REMARK  6 active torsions:
REMARK  status: ('A' for Active; 'I' for Inactive)
REMARK    1  A    between atoms: N_1  and  CA_2
REMARK    2  A    between atoms: CA_2  and  C_4
REMARK    3  A    between atoms: CA_2  and  C_14
REMARK    4  A    between atoms: C_4  and  C_5
REMARK    5  A    between atoms: C_9  and  O_10
REMARK    6  A    between atoms: C_14  and  O_15
REMARK                            x       y       z     vdW  Elec       q    Type
REMARK                         _______ _______ _______ _____ _____    ______ ____
ROOT
ATOM      1  C   UNL     1       7.883  -3.797  23.754  0.00  0.00    +0.003 C 
ATOM      2  C   UNL     1       9.162  -3.930  24.505  0.00  0.00    +0.186 C 
ATOM      3  O   UNL     1      10.189  -3.391  24.109  0.00  0.00    -0.287 OA
ATOM      4  C   UNL     1       9.143  -4.640  25.793  0.00  0.00    +0.098 C 
ATOM      5  C   UNL     1       8.029  -5.223  26.232  0.00  0.00    +0.145 C 
ATOM      6  C   UNL     1       6.781  -5.218  25.429  0.00  0.00    +0.097 C 
ATOM      7  N   UNL     1       5.763  -5.878  25.877  0.00  0.00    -0.296 NA
ATOM      8  H   UNL     1       4.962  -5.790  25.238  0.00  0.00    +0.187 HD
ATOM      9  C   UNL     1       6.780  -4.432  24.181  0.00  0.00    +0.038 C 
ENDROOT
BRANCH   5  10
ATOM     10  O   UNL     1       7.976  -5.851  27.460  0.00  0.00    -0.505 OA
ATOM     11  H   UNL     1       7.010  -5.965  27.618  0.00  0.00    +0.292 HD
ENDBRANCH   5  10
BRANCH   1  12
ATOM     12  C   UNL     1       7.899  -2.909  22.529  0.00  0.00    +0.069 C 
BRANCH  12  13
ATOM     13  CA  UNL     1       8.072  -1.407  22.838  0.00  0.00    +0.165 C 
BRANCH  13  14
ATOM     14  N   UNL     1       6.812  -0.600  22.771  0.00  0.00    -0.318 NA
ATOM     15  H1  UNL     1       6.968   0.312  23.216  0.00  0.00    +0.119 HD
ATOM     16  H2  UNL     1       6.686  -0.319  21.792  0.00  0.00    +0.119 HD
ENDBRANCH  13  14
BRANCH  13  17
ATOM     17  C   UNL     1       9.108  -0.786  21.888  0.00  0.00    +0.322 C 
ATOM     18  OXT UNL     1       9.032   0.331  21.400  0.00  0.00    -0.249 OA
BRANCH  17  19
ATOM     19  O   UNL     1      10.154  -1.625  21.675  0.00  0.00    -0.480 OA
ATOM     20  H   UNL     1      10.929  -1.210  22.132  0.00  0.00    +0.295 HD
ENDBRANCH  17  19
ENDBRANCH  13  17
ENDBRANCH  12  13
ENDBRANCH   1  12
TORSDOF 6
ENDMDL
MODEL 3
REMARK VINA RESULT:      -5.6      1.671      5.768
REMARK  Name = 
REMARK  6 active torsions:
REMARK  status: ('A' for Active; 'I' for Inactive)
REMARK    1  A    between atoms: N_1  and  CA_2
REMARK    2  A    between atoms: CA_2  and  C_4
REMARK    3  A    between atoms: CA_2  and  C_14
REMARK    4  A    between atoms: C_4  and  C_5
REMARK    5  A    between atoms: C_9  and  O_10
REMARK    6  A    between atoms: C_14  and  O_15
REMARK                            x       y       z     vdW  Elec       q    Type
REMARK                         _______ _______ _______ _____ _____    ______ ____
ROOT
ATOM      1  C   UNL     1       8.595  -2.426  24.960  0.00  0.00    +0.003 C 
ATOM      2  C   UNL     1       7.642  -2.467  26.104  0.00  0.00    +0.186 C 
ATOM      3  O   UNL     1       6.962  -1.491  26.398  0.00  0.00    -0.287 OA
ATOM      4  C   UNL     1       7.461  -3.743  26.813  0.00  0.00    +0.098 C 
ATOM      5  C   UNL     1       8.193  -4.809  26.495  0.00  0.00    +0.145 C 
ATOM      6  C   UNL     1       9.245  -4.745  25.449  0.00  0.00    +0.097 C 
ATOM      7  N   UNL     1       9.977  -5.793  25.254  0.00  0.00    -0.296 NA
ATOM      8  H   UNL     1      10.659  -5.625  24.502  0.00  0.00    +0.187 HD
ATOM      9  C   UNL     1       9.364  -3.490  24.683  0.00  0.00    +0.038 C 
ENDROOT
BRANCH   5  10
ATOM     10  O   UNL     1       8.004  -6.029  27.112  0.00  0.00    -0.505 OA
ATOM     11  H   UNL     1       8.853  -6.179  27.588  0.00  0.00    +0.292 HD
ENDBRANCH   5  10
BRANCH   1  12
ATOM     12  C   UNL     1       8.624  -1.154  24.141  0.00  0.00    +0.069 C 
BRANCH  12  13
ATOM     13  CA  UNL     1      10.031  -0.748  23.654  0.00  0.00    +0.165 C 
BRANCH  13  14
ATOM     14  N   UNL     1      10.642   0.409  24.384  0.00  0.00    -0.318 NA
ATOM     15  H1  UNL     1       9.914   1.103  24.592  0.00  0.00    +0.119 HD
ATOM     16  H2  UNL     1      10.872   0.081  25.330  0.00  0.00    +0.119 HD
ENDBRANCH  13  14
BRANCH  13  17
ATOM     17  C   UNL     1      10.000  -0.424  22.152  0.00  0.00    +0.322 C 
ATOM     18  OXT UNL     1       9.898   0.697  21.678  0.00  0.00    -0.249 OA
BRANCH  17  19
ATOM     19  O   UNL     1      10.135  -1.545  21.399  0.00  0.00    -0.480 OA
ATOM     20  H   UNL     1       9.736  -1.327  20.518  0.00  0.00    +0.295 HD
ENDBRANCH  17  19
ENDBRANCH  13  17
ENDBRANCH  12  13
ENDBRANCH   1  12
TORSDOF 6
ENDMDL
MODEL 4
REMARK VINA RESULT:      -5.6      2.033      2.332
REMARK  Name = 
REMARK  6 active torsions:
REMARK  status: ('A' for Active; 'I' for Inactive)
REMARK    1  A    between atoms: N_1  and  CA_2
REMARK    2  A    between atoms: CA_2  and  C_4
REMARK    3  A    between atoms: CA_2  and  C_14
REMARK    4  A    between atoms: C_4  and  C_5
REMARK    5  A    between atoms: C_9  and  O_10
REMARK    6  A    between atoms: C_14  and  O_15
REMARK                            x       y       z     vdW  Elec       q    Type
REMARK                         _______ _______ _______ _____ _____    ______ ____
ROOT
ATOM      1  C   UNL     1       9.155  -2.227  24.509  0.00  0.00    +0.003 C 
ATOM      2  C   UNL     1      10.076  -1.571  23.540  0.00  0.00    +0.186 C 
ATOM      3  O   UNL     1      10.644  -2.218  22.667  0.00  0.00    -0.287 OA
ATOM      4  C   UNL     1      10.210  -0.107  23.589  0.00  0.00    +0.098 C 
ATOM      5  C   UNL     1       9.591   0.602  24.531  0.00  0.00    +0.145 C 
ATOM      6  C   UNL     1       8.781  -0.052  25.589  0.00  0.00    +0.097 C 
ATOM      7  N   UNL     1       8.280   0.692  26.522  0.00  0.00    -0.296 NA
ATOM      8  H   UNL     1       7.736   0.125  27.185  0.00  0.00    +0.187 HD
ATOM      9  C   UNL     1       8.578  -1.509  25.485  0.00  0.00    +0.038 C 
ENDROOT
BRANCH   5  10
ATOM     10  O   UNL     1       9.663   1.980  24.565  0.00  0.00    -0.505 OA
ATOM     11  H   UNL     1      10.432   2.184  23.984  0.00  0.00    +0.292 HD
ENDBRANCH   5  10
BRANCH   1  12
ATOM     12  C   UNL     1       8.901  -3.706  24.316  0.00  0.00    +0.069 C 
BRANCH  12  13
ATOM     13  CA  UNL     1       9.178  -4.564  25.569  0.00  0.00    +0.165 C 
BRANCH  13  14
ATOM     14  N   UNL     1      10.277  -5.569  25.415  0.00  0.00    -0.318 NA
ATOM     15  H1  UNL     1      10.451  -6.025  26.319  0.00  0.00    +0.119 HD
ATOM     16  H2  UNL     1       9.895  -6.353  24.873  0.00  0.00    +0.119 HD
ENDBRANCH  13  14
BRANCH  13  17
ATOM     17  C   UNL     1       7.897  -5.295  26.006  0.00  0.00    +0.322 C 
ATOM     18  OXT UNL     1       6.857  -5.328  25.368  0.00  0.00    -0.249 OA
BRANCH  17  19
ATOM     19  O   UNL     1       8.071  -5.937  27.189  0.00  0.00    -0.480 OA
ATOM     20  H   UNL     1       7.221  -6.416  27.362  0.00  0.00    +0.295 HD
ENDBRANCH  17  19
ENDBRANCH  13  17
ENDBRANCH  12  13
ENDBRANCH   1  12
TORSDOF 6
ENDMDL
MODEL 5
REMARK VINA RESULT:      -5.3      2.464      2.893
REMARK  Name = 
REMARK  6 active torsions:
REMARK  status: ('A' for Active; 'I' for Inactive)
REMARK    1  A    between atoms: N_1  and  CA_2
REMARK    2  A    between atoms: CA_2  and  C_4
REMARK    3  A    between atoms: CA_2  and  C_14
REMARK    4  A    between atoms: C_4  and  C_5
REMARK    5  A    between atoms: C_9  and  O_10
REMARK    6  A    between atoms: C_14  and  O_15
REMARK                            x       y       z     vdW  Elec       q    Type
REMARK                         _______ _______ _______ _____ _____    ______ ____
ROOT
ATOM      1  C   UNL     1       7.973  -1.393  23.031  0.00  0.00    +0.003 C 
ATOM      2  C   UNL     1       9.454  -1.449  22.883  0.00  0.00    +0.186 C 
ATOM      3  O   UNL     1      10.077  -2.475  23.131  0.00  0.00    -0.287 OA
ATOM      4  C   UNL     1      10.144  -0.272  22.335  0.00  0.00    +0.098 C 
ATOM      5  C   UNL     1       9.472   0.844  22.058  0.00  0.00    +0.145 C 
ATOM      6  C   UNL     1       8.018   0.962  22.330  0.00  0.00    +0.097 C 
ATOM      7  N   UNL     1       7.447   2.104  22.119  0.00  0.00    -0.296 NA
ATOM      8  H   UNL     1       6.444   2.054  22.336  0.00  0.00    +0.187 HD
ATOM      9  C   UNL     1       7.314  -0.247  22.798  0.00  0.00    +0.038 C 
ENDROOT
BRANCH   5  10
ATOM     10  O   UNL     1      10.091   1.942  21.497  0.00  0.00    -0.505 OA
ATOM     11  H   UNL     1       9.375   2.618  21.464  0.00  0.00    +0.292 HD
ENDBRANCH   5  10
BRANCH   1  12
ATOM     12  C   UNL     1       7.276  -2.677  23.425  0.00  0.00    +0.069 C 
BRANCH  12  13
ATOM     13  CA  UNL     1       6.920  -3.594  22.236  0.00  0.00    +0.165 C 
BRANCH  13  14
ATOM     14  N   UNL     1       5.462  -3.655  21.902  0.00  0.00    -0.318 NA
ATOM     15  H1  UNL     1       4.925  -3.857  22.754  0.00  0.00    +0.119 HD
ATOM     16  H2  UNL     1       5.157  -2.694  21.705  0.00  0.00    +0.119 HD
ENDBRANCH  13  14
BRANCH  13  17
ATOM     17  C   UNL     1       7.428  -5.021  22.496  0.00  0.00    +0.322 C 
ATOM     18  OXT UNL     1       7.103  -6.009  21.856  0.00  0.00    -0.249 OA
BRANCH  17  19
ATOM     19  O   UNL     1       8.323  -5.052  23.517  0.00  0.00    -0.480 OA
ATOM     20  H   UNL     1       7.798  -4.872  24.339  0.00  0.00    +0.295 HD
ENDBRANCH  17  19
ENDBRANCH  13  17
ENDBRANCH  12  13
ENDBRANCH   1  12
TORSDOF 6
ENDMDL
MODEL 6
REMARK VINA RESULT:      -5.3      2.142      2.422
REMARK  Name = 
REMARK  6 active torsions:
REMARK  status: ('A' for Active; 'I' for Inactive)
REMARK    1  A    between atoms: N_1  and  CA_2
REMARK    2  A    between atoms: CA_2  and  C_4
REMARK    3  A    between atoms: CA_2  and  C_14
REMARK    4  A    between atoms: C_4  and  C_5
REMARK    5  A    between atoms: C_9  and  O_10
REMARK    6  A    between atoms: C_14  and  O_15
REMARK                            x       y       z     vdW  Elec       q    Type
REMARK                         _______ _______ _______ _____ _____    ______ ____
ROOT
ATOM      1  C   UNL     1       8.266  -1.630  22.675  0.00  0.00    +0.003 C 
ATOM      2  C   UNL     1       9.611  -1.126  22.281  0.00  0.00    +0.186 C 
ATOM      3  O   UNL     1      10.573  -1.882  22.202  0.00  0.00    -0.287 OA
ATOM      4  C   UNL     1       9.739   0.285  21.889  0.00  0.00    +0.098 C 
ATOM      5  C   UNL     1       8.696   1.111  21.967  0.00  0.00    +0.145 C 
ATOM      6  C   UNL     1       7.383   0.656  22.490  0.00  0.00    +0.097 C 
ATOM      7  N   UNL     1       6.440   1.533  22.620  0.00  0.00    -0.296 NA
ATOM      8  H   UNL     1       5.584   1.093  22.980  0.00  0.00    +0.187 HD
ATOM      9  C   UNL     1       7.236  -0.779  22.799  0.00  0.00    +0.038 C 
ENDROOT
BRANCH   5  10
ATOM     10  O   UNL     1       8.781   2.426  21.558  0.00  0.00    -0.505 OA
ATOM     11  H   UNL     1       8.812   2.359  20.576  0.00  0.00    +0.292 HD
ENDBRANCH   5  10
BRANCH   1  12
ATOM     12  C   UNL     1       8.132  -3.121  22.896  0.00  0.00    +0.069 C 
BRANCH  12  13
ATOM     13  CA  UNL     1       8.492  -3.582  24.325  0.00  0.00    +0.165 C 
BRANCH  13  14
ATOM     14  N   UNL     1       9.917  -4.000  24.512  0.00  0.00    -0.318 NA
ATOM     15  H1  UNL     1      10.004  -4.533  25.386  0.00  0.00    +0.119 HD
ATOM     16  H2  UNL     1      10.110  -4.734  23.819  0.00  0.00    +0.119 HD
ENDBRANCH  13  14
BRANCH  13  17
ATOM     17  C   UNL     1       7.576  -4.740  24.754  0.00  0.00    +0.322 C 
ATOM     18  OXT UNL     1       6.584  -5.112  24.147  0.00  0.00    -0.249 OA
BRANCH  17  19
ATOM     19  O   UNL     1       8.024  -5.332  25.891  0.00  0.00    -0.480 OA
ATOM     20  H   UNL     1       8.946  -5.636  25.690  0.00  0.00    +0.295 HD
ENDBRANCH  17  19
ENDBRANCH  13  17
ENDBRANCH  12  13
ENDBRANCH   1  12
TORSDOF 6
ENDMDL
MODEL 7
REMARK VINA RESULT:      -5.3      1.677      1.710
REMARK  Name = 
REMARK  6 active torsions:
REMARK  status: ('A' for Active; 'I' for Inactive)
REMARK    1  A    between atoms: N_1  and  CA_2
REMARK    2  A    between atoms: CA_2  and  C_4
REMARK    3  A    between atoms: CA_2  and  C_14
REMARK    4  A    between atoms: C_4  and  C_5
REMARK    5  A    between atoms: C_9  and  O_10
REMARK    6  A    between atoms: C_14  and  O_15
REMARK                            x       y       z     vdW  Elec       q    Type
REMARK                         _______ _______ _______ _____ _____    ______ ____
ROOT
ATOM      1  C   UNL     1       9.823  -1.343  23.668  0.00  0.00    +0.003 C 
ATOM      2  C   UNL     1       9.493  -1.361  22.216  0.00  0.00    +0.186 C 
ATOM      3  O   UNL     1       9.136  -2.393  21.660  0.00  0.00    -0.287 OA
ATOM      4  C   UNL     1       9.505  -0.086  21.484  0.00  0.00    +0.098 C 
ATOM      5  C   UNL     1       9.886   1.041  22.084  0.00  0.00    +0.145 C 
ATOM      6  C   UNL     1      10.351   1.051  23.493  0.00  0.00    +0.097 C 
ATOM      7  N   UNL     1      10.789   2.165  23.985  0.00  0.00    -0.296 NA
ATOM      8  H   UNL     1      11.072   2.043  24.966  0.00  0.00    +0.187 HD
ATOM      9  C   UNL     1      10.255  -0.213  24.249  0.00  0.00    +0.038 C 
ENDROOT
BRANCH   5  10
ATOM     10  O   UNL     1       9.858   2.256  21.430  0.00  0.00    -0.505 OA
ATOM     11  H   UNL     1       9.624   2.895  22.142  0.00  0.00    +0.292 HD
ENDBRANCH   5  10
BRANCH   1  12
ATOM     12  C   UNL     1       9.625  -2.635  24.430  0.00  0.00    +0.069 C 
BRANCH  12  13
ATOM     13  CA  UNL     1       8.194  -2.837  24.972  0.00  0.00    +0.165 C 
BRANCH  13  14
ATOM     14  N   UNL     1       8.067  -2.755  26.462  0.00  0.00    -0.318 NA
ATOM     15  H1  UNL     1       8.940  -2.388  26.859  0.00  0.00    +0.119 HD
ATOM     16  H2  UNL     1       7.422  -1.982  26.668  0.00  0.00    +0.119 HD
ENDBRANCH  13  14
BRANCH  13  17
ATOM     17  C   UNL     1       7.635  -4.190  24.502  0.00  0.00    +0.322 C 
ATOM     18  OXT UNL     1       6.607  -4.705  24.914  0.00  0.00    -0.249 OA
BRANCH  17  19
ATOM     19  O   UNL     1       8.412  -4.739  23.535  0.00  0.00    -0.480 OA
ATOM     20  H   UNL     1       8.935  -5.452  23.983  0.00  0.00    +0.295 HD
ENDBRANCH  17  19
ENDBRANCH  13  17
ENDBRANCH  12  13
ENDBRANCH   1  12
TORSDOF 6
ENDMDL
MODEL 8
REMARK VINA RESULT:      -5.2      4.130      5.848
REMARK  Name = 
REMARK  6 active torsions:
REMARK  status: ('A' for Active; 'I' for Inactive)
REMARK    1  A    between atoms: N_1  and  CA_2
REMARK    2  A    between atoms: CA_2  and  C_4
REMARK    3  A    between atoms: CA_2  and  C_14
REMARK    4  A    between atoms: C_4  and  C_5
REMARK    5  A    between atoms: C_9  and  O_10
REMARK    6  A    between atoms: C_14  and  O_15
REMARK                            x       y       z     vdW  Elec       q    Type
REMARK                         _______ _______ _______ _____ _____    ______ ____
ROOT
ATOM      1  C   UNL     1       6.530  -4.538  24.482  0.00  0.00    +0.003 C 
ATOM      2  C   UNL     1       7.856  -4.022  24.042  0.00  0.00    +0.186 C 
ATOM      3  O   UNL     1       7.990  -3.460  22.961  0.00  0.00    -0.287 OA
ATOM      4  C   UNL     1       8.984  -4.111  24.981  0.00  0.00    +0.098 C 
ATOM      5  C   UNL     1       8.843  -4.716  26.159  0.00  0.00    +0.145 C 
ATOM      6  C   UNL     1       7.565  -5.358  26.554  0.00  0.00    +0.097 C 
ATOM      7  N   UNL     1       7.526  -6.003  27.675  0.00  0.00    -0.296 NA
ATOM      8  H   UNL     1       6.588  -6.392  27.838  0.00  0.00    +0.187 HD
ATOM      9  C   UNL     1       6.413  -5.191  25.648  0.00  0.00    +0.038 C 
ENDROOT
BRANCH   5  10
ATOM     10  O   UNL     1       9.874  -4.767  27.075  0.00  0.00    -0.505 OA
ATOM     11  H   UNL     1       9.409  -4.838  27.940  0.00  0.00    +0.292 HD
ENDBRANCH   5  10
BRANCH   1  12
ATOM     12  C   UNL     1       5.354  -4.269  23.568  0.00  0.00    +0.069 C 
BRANCH  12  13
ATOM     13  CA  UNL     1       4.913  -5.486  22.729  0.00  0.00    +0.165 C 
BRANCH  13  14
ATOM     14  N   UNL     1       4.579  -6.711  23.523  0.00  0.00    -0.318 NA
ATOM     15  H1  UNL     1       5.041  -6.661  24.439  0.00  0.00    +0.119 HD
ATOM     16  H2  UNL     1       3.593  -6.632  23.799  0.00  0.00    +0.119 HD
ENDBRANCH  13  14
BRANCH  13  17
ATOM     17  C   UNL     1       6.000  -5.844  21.702  0.00  0.00    +0.322 C 
ATOM     18  OXT UNL     1       6.844  -6.715  21.848  0.00  0.00    -0.249 OA
BRANCH  17  19
ATOM     19  O   UNL     1       5.890  -5.088  20.580  0.00  0.00    -0.480 OA
ATOM     20  H   UNL     1       4.992  -5.283  20.211  0.00  0.00    +0.295 HD
ENDBRANCH  17  19
ENDBRANCH  13  17
ENDBRANCH  12  13
ENDBRANCH   1  12
TORSDOF 6
ENDMDL
MODEL 9
REMARK VINA RESULT:      -5.2      3.385      6.236
REMARK  Name = 
REMARK  6 active torsions:
REMARK  status: ('A' for Active; 'I' for Inactive)
REMARK    1  A    between atoms: N_1  and  CA_2
REMARK    2  A    between atoms: CA_2  and  C_4
REMARK    3  A    between atoms: CA_2  and  C_14
REMARK    4  A    between atoms: C_4  and  C_5
REMARK    5  A    between atoms: C_9  and  O_10
REMARK    6  A    between atoms: C_14  and  O_15
REMARK                            x       y       z     vdW  Elec       q    Type
REMARK                         _______ _______ _______ _____ _____    ______ ____
ROOT
ATOM      1  C   UNL     1       6.387  -3.726  23.788  0.00  0.00    +0.003 C 
ATOM      2  C   UNL     1       5.542  -4.197  22.655  0.00  0.00    +0.186 C 
ATOM      3  O   UNL     1       5.451  -3.548  21.619  0.00  0.00    -0.287 OA
ATOM      4  C   UNL     1       4.898  -5.513  22.768  0.00  0.00    +0.098 C 
ATOM      5  C   UNL     1       4.997  -6.227  23.889  0.00  0.00    +0.145 C 
ATOM      6  C   UNL     1       5.720  -5.709  25.077  0.00  0.00    +0.097 C 
ATOM      7  N   UNL     1       5.702  -6.417  26.160  0.00  0.00    -0.296 NA
ATOM      8  H   UNL     1       6.243  -5.957  26.903  0.00  0.00    +0.187 HD
ATOM      9  C   UNL     1       6.437  -4.428  24.930  0.00  0.00    +0.038 C 
ENDROOT
BRANCH   5  10
ATOM     10  O   UNL     1       4.443  -7.485  23.998  0.00  0.00    -0.505 OA
ATOM     11  H   UNL     1       3.760  -7.499  23.288  0.00  0.00    +0.292 HD
ENDBRANCH   5  10
BRANCH   1  12
ATOM     12  C   UNL     1       7.179  -2.455  23.568  0.00  0.00    +0.069 C 
BRANCH  12  13
ATOM     13  CA  UNL     1       8.571  -2.679  22.939  0.00  0.00    +0.165 C 
BRANCH  13  14
ATOM     14  N   UNL     1       9.645  -3.065  23.907  0.00  0.00    -0.318 NA
ATOM     15  H1  UNL     1       9.215  -3.428  24.767  0.00  0.00    +0.119 HD
ATOM     16  H2  UNL     1      10.090  -3.915  23.541  0.00  0.00    +0.119 HD
ENDBRANCH  13  14
BRANCH  13  17
ATOM     17  C   UNL     1       9.019  -1.418  22.180  0.00  0.00    +0.322 C 
ATOM     18  OXT UNL     1       8.435  -0.346  22.196  0.00  0.00    -0.249 OA
BRANCH  17  19
ATOM     19  O   UNL     1      10.177  -1.631  21.506  0.00  0.00    -0.480 OA
ATOM     20  H   UNL     1      10.420  -0.757  21.106  0.00  0.00    +0.295 HD
ENDBRANCH  17  19
ENDBRANCH  13  17
ENDBRANCH  12  13
ENDBRANCH   1  12
TORSDOF 6
ENDMDL
