MODEL 1
REMARK VINA RESULT:      -3.5      0.000      0.000
REMARK  Name = 
REMARK  10 active torsions:
REMARK  status: ('A' for Active; 'I' for Inactive)
REMARK    1  A    between atoms: C_1  and  C_2
REMARK    2  A    between atoms: C_2  and  C_3
REMARK    3  A    between atoms: C_3  and  C_4
REMARK    4  A    between atoms: C_4  and  C_5
REMARK    5  A    between atoms: C_5  and  C_6
REMARK    6  A    between atoms: C_6  and  C_7
REMARK    7  A    between atoms: C_7  and  C_8
REMARK    8  A    between atoms: C_8  and  C_9
REMARK    9  A    between atoms: C_9  and  C_10
REMARK   10  A    between atoms: C_10  and  S_11
REMARK                            x       y       z     vdW  Elec       q    Type
REMARK                         _______ _______ _______ _____ _____    ______ ____
ROOT
ATOM      1  C   UNL     1       9.217  -1.128  24.619  0.00  0.00    +0.000 C 
ENDROOT
BRANCH   1   2
ATOM      2  C   UNL     1       9.833   0.143  25.206  0.00  0.00    -0.000 C 
BRANCH   2   3
ATOM      3  C   UNL     1      10.901   0.725  24.280  0.00  0.00    -0.000 C 
BRANCH   3   4
ATOM      4  C   UNL     1      10.416   2.015  23.619  0.00  0.00    -0.000 C 
BRANCH   4   6
ATOM      5  C   UNL     1       8.602   1.758  21.891  0.00  0.00    +0.004 C 
ATOM      6  C   UNL     1      10.101   1.800  22.139  0.00  0.00    -0.003 C 
ENDBRANCH   4   6
ENDBRANCH   3   4
ENDBRANCH   2   3
ENDBRANCH   1   2
BRANCH   1   7
ATOM      7  C   UNL     1      10.103  -1.715  23.520  0.00  0.00    +0.000 C 
BRANCH   7   8
ATOM      8  C   UNL     1       9.332  -1.877  22.209  0.00  0.00    +0.001 C 
BRANCH   8   9
ATOM      9  C   UNL     1       7.822  -1.914  22.455  0.00  0.00    +0.010 C 
BRANCH   9  10
ATOM     10  C   UNL     1       7.282  -3.334  22.317  0.00  0.00    +0.065 C 
BRANCH  10  11
ATOM     11  S   UNL     1       5.490  -3.368  22.605  0.00  0.00    -0.178 S 
ATOM     12  H   UNL     1       5.125  -3.314  21.316  0.00  0.00    +0.102 HD
ENDBRANCH  10  11
ENDBRANCH   9  10
ENDBRANCH   8   9
ENDBRANCH   7   8
ENDBRANCH   1   7
TORSDOF 9
ENDMDL
MODEL 2
REMARK VINA RESULT:      -3.5      1.311      2.718
REMARK  Name = 
REMARK  10 active torsions:
REMARK  status: ('A' for Active; 'I' for Inactive)
REMARK    1  A    between atoms: C_1  and  C_2
REMARK    2  A    between atoms: C_2  and  C_3
REMARK    3  A    between atoms: C_3  and  C_4
REMARK    4  A    between atoms: C_4  and  C_5
REMARK    5  A    between atoms: C_5  and  C_6
REMARK    6  A    between atoms: C_6  and  C_7
REMARK    7  A    between atoms: C_7  and  C_8
REMARK    8  A    between atoms: C_8  and  C_9
REMARK    9  A    between atoms: C_9  and  C_10
REMARK   10  A    between atoms: C_10  and  S_11
REMARK                            x       y       z     vdW  Elec       q    Type
REMARK                         _______ _______ _______ _____ _____    ______ ____
ROOT
ATOM      1  C   UNL     1       8.966   0.922  21.616  0.00  0.00    +0.000 C 
ENDROOT
BRANCH   1   2
ATOM      2  C   UNL     1      10.099   1.832  22.093  0.00  0.00    -0.000 C 
BRANCH   2   3
ATOM      3  C   UNL     1      10.037   2.055  23.604  0.00  0.00    -0.000 C 
BRANCH   3   4
ATOM      4  C   UNL     1      10.891   1.028  24.350  0.00  0.00    -0.000 C 
BRANCH   4   6
ATOM      5  C   UNL     1       8.596   0.620  25.301  0.00  0.00    +0.004 C 
ATOM      6  C   UNL     1      10.075   0.286  25.407  0.00  0.00    -0.003 C 
ENDBRANCH   4   6
ENDBRANCH   3   4
ENDBRANCH   2   3
ENDBRANCH   1   2
BRANCH   1   7
ATOM      7  C   UNL     1       9.473  -0.496  21.345  0.00  0.00    +0.000 C 
BRANCH   7   8
ATOM      8  C   UNL     1       8.769  -1.518  22.238  0.00  0.00    +0.001 C 
BRANCH   8   9
ATOM      9  C   UNL     1       9.776  -2.308  23.078  0.00  0.00    +0.010 C 
BRANCH   9  10
ATOM     10  C   UNL     1       9.072  -3.085  24.186  0.00  0.00    +0.065 C 
BRANCH  10  11
ATOM     11  S   UNL     1       7.764  -4.139  23.497  0.00  0.00    -0.178 S 
ATOM     12  H   UNL     1       7.113  -4.353  24.650  0.00  0.00    +0.102 HD
ENDBRANCH  10  11
ENDBRANCH   9  10
ENDBRANCH   8   9
ENDBRANCH   7   8
ENDBRANCH   1   7
TORSDOF 9
ENDMDL
MODEL 3
REMARK VINA RESULT:      -3.4      1.462      2.466
REMARK  Name = 
REMARK  10 active torsions:
REMARK  status: ('A' for Active; 'I' for Inactive)
REMARK    1  A    between atoms: C_1  and  C_2
REMARK    2  A    between atoms: C_2  and  C_3
REMARK    3  A    between atoms: C_3  and  C_4
REMARK    4  A    between atoms: C_4  and  C_5
REMARK    5  A    between atoms: C_5  and  C_6
REMARK    6  A    between atoms: C_6  and  C_7
REMARK    7  A    between atoms: C_7  and  C_8
REMARK    8  A    between atoms: C_8  and  C_9
REMARK    9  A    between atoms: C_9  and  C_10
REMARK   10  A    between atoms: C_10  and  S_11
REMARK                            x       y       z     vdW  Elec       q    Type
REMARK                         _______ _______ _______ _____ _____    ______ ____
ROOT
ATOM      1  C   UNL     1       9.095  -1.347  21.801  0.00  0.00    +0.000 C 
ENDROOT
BRANCH   1   2
ATOM      2  C   UNL     1       9.290   0.026  21.156  0.00  0.00    -0.000 C 
BRANCH   2   3
ATOM      3  C   UNL     1       8.909   1.154  22.115  0.00  0.00    -0.000 C 
BRANCH   3   4
ATOM      4  C   UNL     1      10.116   2.036  22.438  0.00  0.00    -0.000 C 
BRANCH   4   6
ATOM      5  C   UNL     1       9.443   1.254  24.736  0.00  0.00    +0.004 C 
ATOM      6  C   UNL     1      10.544   1.882  23.897  0.00  0.00    -0.003 C 
ENDBRANCH   4   6
ENDBRANCH   3   4
ENDBRANCH   2   3
ENDBRANCH   1   2
BRANCH   1   7
ATOM      7  C   UNL     1      10.294  -1.724  22.673  0.00  0.00    +0.000 C 
BRANCH   7   8
ATOM      8  C   UNL     1       9.850  -2.420  23.960  0.00  0.00    +0.001 C 
BRANCH   8   9
ATOM      9  C   UNL     1       8.388  -2.863  23.874  0.00  0.00    +0.010 C 
BRANCH   9  10
ATOM     10  C   UNL     1       8.270  -4.380  23.983  0.00  0.00    +0.065 C 
BRANCH  10  11
ATOM     11  S   UNL     1       6.596  -4.858  24.499  0.00  0.00    -0.178 S 
ATOM     12  H   UNL     1       6.795  -4.719  25.818  0.00  0.00    +0.102 HD
ENDBRANCH  10  11
ENDBRANCH   9  10
ENDBRANCH   8   9
ENDBRANCH   7   8
ENDBRANCH   1   7
TORSDOF 9
ENDMDL
MODEL 4
REMARK VINA RESULT:      -3.4      2.595      4.278
REMARK  Name = 
REMARK  10 active torsions:
REMARK  status: ('A' for Active; 'I' for Inactive)
REMARK    1  A    between atoms: C_1  and  C_2
REMARK    2  A    between atoms: C_2  and  C_3
REMARK    3  A    between atoms: C_3  and  C_4
REMARK    4  A    between atoms: C_4  and  C_5
REMARK    5  A    between atoms: C_5  and  C_6
REMARK    6  A    between atoms: C_6  and  C_7
REMARK    7  A    between atoms: C_7  and  C_8
REMARK    8  A    between atoms: C_8  and  C_9
REMARK    9  A    between atoms: C_9  and  C_10
REMARK   10  A    between atoms: C_10  and  S_11
REMARK                            x       y       z     vdW  Elec       q    Type
REMARK                         _______ _______ _______ _____ _____    ______ ____
ROOT
ATOM      1  C   UNL     1      10.042   1.955  23.501  0.00  0.00    +0.000 C 
ENDROOT
BRANCH   1   2
ATOM      2  C   UNL     1      10.819   0.911  24.303  0.00  0.00    -0.000 C 
BRANCH   2   3
ATOM      3  C   UNL     1       9.879  -0.088  24.979  0.00  0.00    -0.000 C 
BRANCH   3   4
ATOM      4  C   UNL     1       9.859  -1.421  24.231  0.00  0.00    -0.000 C 
BRANCH   4   6
ATOM      5  C   UNL     1       8.434  -2.042  22.250  0.00  0.00    +0.004 C 
ATOM      6  C   UNL     1       8.452  -1.767  23.744  0.00  0.00    -0.003 C 
ENDBRANCH   4   6
ENDBRANCH   3   4
ENDBRANCH   2   3
ENDBRANCH   1   2
BRANCH   1   7
ATOM      7  C   UNL     1       9.983   1.582  22.019  0.00  0.00    +0.000 C 
BRANCH   7   8
ATOM      8  C   UNL     1       8.549   1.620  21.491  0.00  0.00    +0.001 C 
BRANCH   8   9
ATOM      9  C   UNL     1       7.537   1.675  22.637  0.00  0.00    +0.010 C 
BRANCH   9  10
ATOM     10  C   UNL     1       6.470   2.733  22.372  0.00  0.00    +0.065 C 
BRANCH  10  11
ATOM     11  S   UNL     1       7.201   4.395  22.371  0.00  0.00    -0.178 S 
ATOM     12  H   UNL     1       8.449   4.016  22.682  0.00  0.00    +0.102 HD
ENDBRANCH  10  11
ENDBRANCH   9  10
ENDBRANCH   8   9
ENDBRANCH   7   8
ENDBRANCH   1   7
TORSDOF 9
ENDMDL
MODEL 5
REMARK VINA RESULT:      -3.3      2.875      4.246
REMARK  Name = 
REMARK  10 active torsions:
REMARK  status: ('A' for Active; 'I' for Inactive)
REMARK    1  A    between atoms: C_1  and  C_2
REMARK    2  A    between atoms: C_2  and  C_3
REMARK    3  A    between atoms: C_3  and  C_4
REMARK    4  A    between atoms: C_4  and  C_5
REMARK    5  A    between atoms: C_5  and  C_6
REMARK    6  A    between atoms: C_6  and  C_7
REMARK    7  A    between atoms: C_7  and  C_8
REMARK    8  A    between atoms: C_8  and  C_9
REMARK    9  A    between atoms: C_9  and  C_10
REMARK   10  A    between atoms: C_10  and  S_11
REMARK                            x       y       z     vdW  Elec       q    Type
REMARK                         _______ _______ _______ _____ _____    ______ ____
ROOT
ATOM      1  C   UNL     1       9.291   2.597  24.303  0.00  0.00    +0.000 C 
ENDROOT
BRANCH   1   2
ATOM      2  C   UNL     1       9.022   3.932  23.607  0.00  0.00    -0.000 C 
BRANCH   2   3
ATOM      3  C   UNL     1       9.503   5.110  24.454  0.00  0.00    -0.000 C 
BRANCH   3   4
ATOM      4  C   UNL     1      10.394   6.049  23.641  0.00  0.00    -0.000 C 
BRANCH   4   6
ATOM      5  C   UNL     1      12.675   5.083  23.186  0.00  0.00    +0.004 C 
ATOM      6  C   UNL     1      11.850   5.973  24.101  0.00  0.00    -0.003 C 
ENDBRANCH   4   6
ENDBRANCH   3   4
ENDBRANCH   2   3
ENDBRANCH   1   2
BRANCH   1   7
ATOM      7  C   UNL     1      10.624   1.997  23.854  0.00  0.00    +0.000 C 
BRANCH   7   8
ATOM      8  C   UNL     1      10.919   0.686  24.584  0.00  0.00    +0.001 C 
BRANCH   8   9
ATOM      9  C   UNL     1       9.655  -0.163  24.730  0.00  0.00    +0.010 C 
BRANCH   9  10
ATOM     10  C   UNL     1       9.831  -1.524  24.062  0.00  0.00    +0.065 C 
BRANCH  10  11
ATOM     11  S   UNL     1       9.747  -1.366  22.255  0.00  0.00    -0.178 S 
ATOM     12  H   UNL     1       8.464  -1.734  22.127  0.00  0.00    +0.102 HD
ENDBRANCH  10  11
ENDBRANCH   9  10
ENDBRANCH   8   9
ENDBRANCH   7   8
ENDBRANCH   1   7
TORSDOF 9
ENDMDL
MODEL 6
REMARK VINA RESULT:      -3.3      1.551      4.152
REMARK  Name = 
REMARK  10 active torsions:
REMARK  status: ('A' for Active; 'I' for Inactive)
REMARK    1  A    between atoms: C_1  and  C_2
REMARK    2  A    between atoms: C_2  and  C_3
REMARK    3  A    between atoms: C_3  and  C_4
REMARK    4  A    between atoms: C_4  and  C_5
REMARK    5  A    between atoms: C_5  and  C_6
REMARK    6  A    between atoms: C_6  and  C_7
REMARK    7  A    between atoms: C_7  and  C_8
REMARK    8  A    between atoms: C_8  and  C_9
REMARK    9  A    between atoms: C_9  and  C_10
REMARK   10  A    between atoms: C_10  and  S_11
REMARK                            x       y       z     vdW  Elec       q    Type
REMARK                         _______ _______ _______ _____ _____    ______ ____
ROOT
ATOM      1  C   UNL     1       9.766   0.032  25.015  0.00  0.00    +0.000 C 
ENDROOT
BRANCH   1   2
ATOM      2  C   UNL     1       9.456  -1.408  24.605  0.00  0.00    -0.000 C 
BRANCH   2   3
ATOM      3  C   UNL     1      10.083  -1.750  23.253  0.00  0.00    -0.000 C 
BRANCH   3   4
ATOM      4  C   UNL     1       9.010  -1.956  22.182  0.00  0.00    -0.000 C 
BRANCH   4   6
ATOM      5  C   UNL     1       7.302  -3.800  22.323  0.00  0.00    +0.004 C 
ATOM      6  C   UNL     1       7.687  -2.409  22.799  0.00  0.00    -0.003 C 
ENDBRANCH   4   6
ENDBRANCH   3   4
ENDBRANCH   2   3
ENDBRANCH   1   2
BRANCH   1   7
ATOM      7  C   UNL     1      10.853   0.639  24.126  0.00  0.00    +0.000 C 
BRANCH   7   8
ATOM      8  C   UNL     1      10.392   1.957  23.504  0.00  0.00    +0.001 C 
BRANCH   8   9
ATOM      9  C   UNL     1       9.770   1.731  22.124  0.00  0.00    +0.010 C 
BRANCH   9  10
ATOM     10  C   UNL     1       8.415   2.426  22.016  0.00  0.00    +0.065 C 
BRANCH  10  11
ATOM     11  S   UNL     1       7.091   1.348  22.632  0.00  0.00    -0.178 S 
ATOM     12  H   UNL     1       6.364   2.313  23.214  0.00  0.00    +0.102 HD
ENDBRANCH  10  11
ENDBRANCH   9  10
ENDBRANCH   8   9
ENDBRANCH   7   8
ENDBRANCH   1   7
TORSDOF 9
ENDMDL
MODEL 7
REMARK VINA RESULT:      -3.3      1.645      2.420
REMARK  Name = 
REMARK  10 active torsions:
REMARK  status: ('A' for Active; 'I' for Inactive)
REMARK    1  A    between atoms: C_1  and  C_2
REMARK    2  A    between atoms: C_2  and  C_3
REMARK    3  A    between atoms: C_3  and  C_4
REMARK    4  A    between atoms: C_4  and  C_5
REMARK    5  A    between atoms: C_5  and  C_6
REMARK    6  A    between atoms: C_6  and  C_7
REMARK    7  A    between atoms: C_7  and  C_8
REMARK    8  A    between atoms: C_8  and  C_9
REMARK    9  A    between atoms: C_9  and  C_10
REMARK   10  A    between atoms: C_10  and  S_11
REMARK                            x       y       z     vdW  Elec       q    Type
REMARK                         _______ _______ _______ _____ _____    ______ ____
ROOT
ATOM      1  C   UNL     1      10.035  -2.225  23.491  0.00  0.00    +0.000 C 
ENDROOT
BRANCH   1   2
ATOM      2  C   UNL     1      10.433  -1.131  22.500  0.00  0.00    -0.000 C 
BRANCH   2   3
ATOM      3  C   UNL     1       9.293  -0.812  21.532  0.00  0.00    -0.000 C 
BRANCH   3   4
ATOM      4  C   UNL     1       9.040   0.693  21.453  0.00  0.00    -0.000 C 
BRANCH   4   6
ATOM      5  C   UNL     1       9.551   2.395  23.238  0.00  0.00    +0.004 C 
ATOM      6  C   UNL     1      10.134   1.482  22.172  0.00  0.00    -0.003 C 
ENDBRANCH   4   6
ENDBRANCH   3   4
ENDBRANCH   2   3
ENDBRANCH   1   2
BRANCH   1   7
ATOM      7  C   UNL     1       8.839  -1.793  24.341  0.00  0.00    +0.000 C 
BRANCH   7   8
ATOM      8  C   UNL     1       7.874  -2.955  24.578  0.00  0.00    +0.001 C 
BRANCH   8   9
ATOM      9  C   UNL     1       7.421  -3.577  23.255  0.00  0.00    +0.010 C 
BRANCH   9  10
ATOM     10  C   UNL     1       7.485  -5.100  23.319  0.00  0.00    +0.065 C 
BRANCH  10  11
ATOM     11  S   UNL     1       6.964  -5.830  21.740  0.00  0.00    -0.178 S 
ATOM     12  H   UNL     1       7.319  -4.794  20.966  0.00  0.00    +0.102 HD
ENDBRANCH  10  11
ENDBRANCH   9  10
ENDBRANCH   8   9
ENDBRANCH   7   8
ENDBRANCH   1   7
TORSDOF 9
ENDMDL
MODEL 8
REMARK VINA RESULT:      -3.2      2.660      5.176
REMARK  Name = 
REMARK  10 active torsions:
REMARK  status: ('A' for Active; 'I' for Inactive)
REMARK    1  A    between atoms: C_1  and  C_2
REMARK    2  A    between atoms: C_2  and  C_3
REMARK    3  A    between atoms: C_3  and  C_4
REMARK    4  A    between atoms: C_4  and  C_5
REMARK    5  A    between atoms: C_5  and  C_6
REMARK    6  A    between atoms: C_6  and  C_7
REMARK    7  A    between atoms: C_7  and  C_8
REMARK    8  A    between atoms: C_8  and  C_9
REMARK    9  A    between atoms: C_9  and  C_10
REMARK   10  A    between atoms: C_10  and  S_11
REMARK                            x       y       z     vdW  Elec       q    Type
REMARK                         _______ _______ _______ _____ _____    ______ ____
ROOT
ATOM      1  C   UNL     1       8.629  -1.834  23.418  0.00  0.00    +0.000 C 
ENDROOT
BRANCH   1   2
ATOM      2  C   UNL     1       9.727  -2.727  23.996  0.00  0.00    -0.000 C 
BRANCH   2   3
ATOM      3  C   UNL     1       9.141  -3.963  24.678  0.00  0.00    -0.000 C 
BRANCH   3   4
ATOM      4  C   UNL     1       7.718  -4.239  24.194  0.00  0.00    -0.000 C 
BRANCH   4   6
ATOM      5  C   UNL     1       7.038  -5.046  21.907  0.00  0.00    +0.004 C 
ATOM      6  C   UNL     1       7.676  -5.427  23.233  0.00  0.00    -0.003 C 
ENDBRANCH   4   6
ENDBRANCH   3   4
ENDBRANCH   2   3
ENDBRANCH   1   2
BRANCH   1   7
ATOM      7  C   UNL     1       8.817  -1.628  21.915  0.00  0.00    +0.000 C 
BRANCH   7   8
ATOM      8  C   UNL     1       9.826  -0.516  21.627  0.00  0.00    +0.001 C 
BRANCH   8   9
ATOM      9  C   UNL     1       9.151   0.857  21.620  0.00  0.00    +0.010 C 
BRANCH   9  10
ATOM     10  C   UNL     1      10.072   1.921  22.210  0.00  0.00    +0.065 C 
BRANCH  10  11
ATOM     11  S   UNL     1      10.379   1.597  23.970  0.00  0.00    -0.178 S 
ATOM     12  H   UNL     1      11.023   0.433  23.803  0.00  0.00    +0.102 HD
ENDBRANCH  10  11
ENDBRANCH   9  10
ENDBRANCH   8   9
ENDBRANCH   7   8
ENDBRANCH   1   7
TORSDOF 9
ENDMDL
MODEL 9
REMARK VINA RESULT:      -3.2      1.569      2.747
REMARK  Name = 
REMARK  10 active torsions:
REMARK  status: ('A' for Active; 'I' for Inactive)
REMARK    1  A    between atoms: C_1  and  C_2
REMARK    2  A    between atoms: C_2  and  C_3
REMARK    3  A    between atoms: C_3  and  C_4
REMARK    4  A    between atoms: C_4  and  C_5
REMARK    5  A    between atoms: C_5  and  C_6
REMARK    6  A    between atoms: C_6  and  C_7
REMARK    7  A    between atoms: C_7  and  C_8
REMARK    8  A    between atoms: C_8  and  C_9
REMARK    9  A    between atoms: C_9  and  C_10
REMARK   10  A    between atoms: C_10  and  S_11
REMARK                            x       y       z     vdW  Elec       q    Type
REMARK                         _______ _______ _______ _____ _____    ______ ____
ROOT
ATOM      1  C   UNL     1       7.068   0.027  23.024  0.00  0.00    +0.000 C 
ENDROOT
BRANCH   1   2
ATOM      2  C   UNL     1       7.695   1.418  22.928  0.00  0.00    -0.000 C 
BRANCH   2   3
ATOM      3  C   UNL     1       8.592   1.543  21.696  0.00  0.00    -0.000 C 
BRANCH   3   4
ATOM      4  C   UNL     1      10.070   1.468  22.079  0.00  0.00    -0.000 C 
BRANCH   4   6
ATOM      5  C   UNL     1      11.067   0.941  24.331  0.00  0.00    +0.004 C 
ATOM      6  C   UNL     1      10.302   1.964  23.506  0.00  0.00    -0.003 C 
ENDBRANCH   4   6
ENDBRANCH   3   4
ENDBRANCH   2   3
ENDBRANCH   1   2
BRANCH   1   7
ATOM      7  C   UNL     1       7.899  -0.892  23.922  0.00  0.00    +0.000 C 
BRANCH   7   8
ATOM      8  C   UNL     1       8.634  -1.955  23.104  0.00  0.00    +0.001 C 
BRANCH   8   9
ATOM      9  C   UNL     1       9.789  -2.565  23.900  0.00  0.00    +0.010 C 
BRANCH   9  10
ATOM     10  C   UNL     1       9.312  -3.756  24.728  0.00  0.00    +0.065 C 
BRANCH  10  11
ATOM     11  S   UNL     1       8.000  -4.658  23.855  0.00  0.00    -0.178 S 
ATOM     12  H   UNL     1       7.299  -3.581  23.474  0.00  0.00    +0.102 HD
ENDBRANCH  10  11
ENDBRANCH   9  10
ENDBRANCH   8   9
ENDBRANCH   7   8
ENDBRANCH   1   7
TORSDOF 9
ENDMDL
