MODEL 1
REMARK VINA RESULT:      -7.3      0.000      0.000
REMARK  Name = 
REMARK  5 active torsions:
REMARK  status: ('A' for Active; 'I' for Inactive)
REMARK    1  A    between atoms: C_2  and  O_3
REMARK    2  A    between atoms: C_5  and  N_17
REMARK    3  A    between atoms: C_8  and  C_10
REMARK    4  A    between atoms: C_10  and  N_11
REMARK    5  A    between atoms: C_19  and  C_20
REMARK                            x       y       z     vdW  Elec       q    Type
REMARK                         _______ _______ _______ _____ _____    ______ ____
ROOT
ATOM      1  C   UNL     1       6.383  -3.073  22.823  0.00  0.00    +0.149 C 
ATOM      2  C   UNL     1       7.885  -2.791  22.776  0.00  0.00    +0.163 C 
ATOM      3  O   UNL     1       8.551  -4.038  23.079  0.00  0.00    -0.349 OA
ATOM      4  C   UNL     1       7.554  -5.061  23.275  0.00  0.00    +0.226 C 
ATOM      5  C   UNL     1       6.339  -4.548  22.510  0.00  0.00    +0.088 C 
ENDROOT
BRANCH   4   6
ATOM      6  N   UNL     1       7.342  -5.294  24.712  0.00  0.00    -0.274 N 
ATOM      7  C   UNL     1       8.467  -5.414  25.521  0.00  0.00    +0.331 A 
ATOM      8  O   UNL     1       9.624  -5.342  25.111  0.00  0.00    -0.246 OA
ATOM      9  N   UNL     1       8.225  -5.624  26.852  0.00  0.00    -0.275 N 
ATOM     10  H   UNL     1       9.031  -5.696  27.452  0.00  0.00    +0.173 HD
ATOM     11  C   UNL     1       7.005  -5.606  27.466  0.00  0.00    +0.257 A 
ATOM     12  O   UNL     1       6.883  -5.691  28.682  0.00  0.00    -0.267 OA
ATOM     13  C   UNL     1       5.839  -5.448  26.571  0.00  0.00    +0.030 A 
ATOM     14  C   UNL     1       4.474  -5.498  27.171  0.00  0.00    +0.051 C 
ATOM     15  C   UNL     1       6.074  -5.273  25.266  0.00  0.00    +0.101 A 
ENDBRANCH   4   6
BRANCH   1  16
ATOM     16  O   UNL     1       5.644  -2.294  21.897  0.00  0.00    -0.389 OA
ATOM     17  H   UNL     1       4.693  -2.422  22.067  0.00  0.00    +0.210 HD
ENDBRANCH   1  16
BRANCH   2  18
ATOM     18  C   UNL     1       8.277  -1.673  23.769  0.00  0.00    +0.118 C 
BRANCH  18  19
ATOM     19  N   UNL     1       9.719  -1.347  23.781  0.00  0.00    -0.300 NA
ATOM     20  C   UNL     1      10.027  -0.242  24.704  0.00  0.00    +0.084 C 
ATOM     21  C   UNL     1       9.536   1.123  24.219  0.00  0.00    +0.015 C 
ATOM     22  C   UNL     1      10.022   1.426  22.804  0.00  0.00    +0.002 C 
ATOM     23  C   UNL     1       9.745   0.260  21.858  0.00  0.00    +0.015 C 
ATOM     24  C   UNL     1      10.264  -1.053  22.447  0.00  0.00    +0.084 C 
ENDBRANCH  18  19
ENDBRANCH   2  18
TORSDOF 4
ENDMDL
MODEL 2
REMARK VINA RESULT:      -6.8      1.943      3.676
REMARK  Name = 
REMARK  5 active torsions:
REMARK  status: ('A' for Active; 'I' for Inactive)
REMARK    1  A    between atoms: C_2  and  O_3
REMARK    2  A    between atoms: C_5  and  N_17
REMARK    3  A    between atoms: C_8  and  C_10
REMARK    4  A    between atoms: C_10  and  N_11
REMARK    5  A    between atoms: C_19  and  C_20
REMARK                            x       y       z     vdW  Elec       q    Type
REMARK                         _______ _______ _______ _____ _____    ______ ____
ROOT
ATOM      1  C   UNL     1       9.115  -4.676  25.077  0.00  0.00    +0.149 C 
ATOM      2  C   UNL     1       8.900  -3.206  25.440  0.00  0.00    +0.163 C 
ATOM      3  O   UNL     1       7.685  -3.145  26.221  0.00  0.00    -0.349 OA
ATOM      4  C   UNL     1       7.168  -4.482  26.380  0.00  0.00    +0.226 C 
ATOM      5  C   UNL     1       8.388  -5.377  26.197  0.00  0.00    +0.088 C 
ENDROOT
BRANCH   4   6
ATOM      6  N   UNL     1       6.067  -4.715  25.433  0.00  0.00    -0.274 N 
ATOM      7  C   UNL     1       4.786  -4.340  25.824  0.00  0.00    +0.331 A 
ATOM      8  O   UNL     1       4.517  -3.831  26.910  0.00  0.00    -0.246 OA
ATOM      9  N   UNL     1       3.792  -4.570  24.910  0.00  0.00    -0.275 N 
ATOM     10  H   UNL     1       2.862  -4.287  25.174  0.00  0.00    +0.173 HD
ATOM     11  C   UNL     1       3.956  -5.013  23.630  0.00  0.00    +0.257 A 
ATOM     12  O   UNL     1       3.024  -5.084  22.837  0.00  0.00    -0.267 OA
ATOM     13  C   UNL     1       5.338  -5.373  23.248  0.00  0.00    +0.030 A 
ATOM     14  C   UNL     1       5.573  -5.937  21.886  0.00  0.00    +0.051 C 
ATOM     15  C   UNL     1       6.306  -5.177  24.150  0.00  0.00    +0.101 A 
ENDBRANCH   4   6
BRANCH   1  16
ATOM     16  O   UNL     1      10.485  -5.033  25.003  0.00  0.00    -0.389 OA
ATOM     17  H   UNL     1      10.959  -4.615  25.744  0.00  0.00    +0.210 HD
ENDBRANCH   1  16
BRANCH   2  18
ATOM     18  C   UNL     1       8.816  -2.322  24.175  0.00  0.00    +0.118 C 
BRANCH  18  19
ATOM     19  N   UNL     1      10.076  -1.629  23.832  0.00  0.00    -0.300 NA
ATOM     20  C   UNL     1      10.143  -0.282  24.421  0.00  0.00    +0.084 C 
ATOM     21  C   UNL     1       9.197   0.727  23.766  0.00  0.00    +0.015 C 
ATOM     22  C   UNL     1       9.382   0.771  22.252  0.00  0.00    +0.002 C 
ATOM     23  C   UNL     1       9.360  -0.630  21.647  0.00  0.00    +0.015 C 
ATOM     24  C   UNL     1      10.330  -1.556  22.385  0.00  0.00    +0.084 C 
ENDBRANCH  18  19
ENDBRANCH   2  18
TORSDOF 4
ENDMDL
MODEL 3
REMARK VINA RESULT:      -6.8      2.882      6.764
REMARK  Name = 
REMARK  5 active torsions:
REMARK  status: ('A' for Active; 'I' for Inactive)
REMARK    1  A    between atoms: C_2  and  O_3
REMARK    2  A    between atoms: C_5  and  N_17
REMARK    3  A    between atoms: C_8  and  C_10
REMARK    4  A    between atoms: C_10  and  N_11
REMARK    5  A    between atoms: C_19  and  C_20
REMARK                            x       y       z     vdW  Elec       q    Type
REMARK                         _______ _______ _______ _____ _____    ______ ____
ROOT
ATOM      1  C   UNL     1       8.765  -1.493  25.104  0.00  0.00    +0.149 C 
ATOM      2  C   UNL     1       9.415  -2.016  23.823  0.00  0.00    +0.163 C 
ATOM      3  O   UNL     1      10.143  -0.908  23.245  0.00  0.00    -0.349 OA
ATOM      4  C   UNL     1      10.002   0.240  24.107  0.00  0.00    +0.226 C 
ATOM      5  C   UNL     1       9.686  -0.357  25.473  0.00  0.00    +0.088 C 
ENDROOT
BRANCH   4   6
ATOM      6  N   UNL     1       8.984   1.155  23.567  0.00  0.00    -0.274 N 
ATOM      7  C   UNL     1       9.319   1.908  22.447  0.00  0.00    +0.331 A 
ATOM      8  O   UNL     1      10.410   1.859  21.883  0.00  0.00    -0.246 OA
ATOM      9  N   UNL     1       8.340   2.742  21.975  0.00  0.00    -0.275 N 
ATOM     10  H   UNL     1       8.564   3.280  21.153  0.00  0.00    +0.173 HD
ATOM     11  C   UNL     1       7.052   2.813  22.420  0.00  0.00    +0.257 A 
ATOM     12  O   UNL     1       6.206   3.506  21.869  0.00  0.00    -0.267 OA
ATOM     13  C   UNL     1       6.733   1.975  23.596  0.00  0.00    +0.030 A 
ATOM     14  C   UNL     1       5.363   2.065  24.179  0.00  0.00    +0.051 C 
ATOM     15  C   UNL     1       7.697   1.181  24.077  0.00  0.00    +0.101 A 
ENDBRANCH   4   6
BRANCH   1  16
ATOM     16  O   UNL     1       8.673  -2.477  26.120  0.00  0.00    -0.389 OA
ATOM     17  H   UNL     1       8.209  -3.255  25.762  0.00  0.00    +0.210 HD
ENDBRANCH   1  16
BRANCH   2  18
ATOM     18  C   UNL     1       8.359  -2.581  22.847  0.00  0.00    +0.118 C 
BRANCH  18  19
ATOM     19  N   UNL     1       7.237  -3.286  23.504  0.00  0.00    -0.300 NA
ATOM     20  C   UNL     1       7.494  -4.729  23.638  0.00  0.00    +0.084 C 
ATOM     21  C   UNL     1       7.436  -5.492  22.313  0.00  0.00    +0.015 C 
ATOM     22  C   UNL     1       6.132  -5.224  21.566  0.00  0.00    +0.002 C 
ATOM     23  C   UNL     1       5.841  -3.729  21.471  0.00  0.00    +0.015 C 
ATOM     24  C   UNL     1       5.941  -3.065  22.846  0.00  0.00    +0.084 C 
ENDBRANCH  18  19
ENDBRANCH   2  18
TORSDOF 4
ENDMDL
MODEL 4
REMARK VINA RESULT:      -6.7      2.136      3.645
REMARK  Name = 
REMARK  5 active torsions:
REMARK  status: ('A' for Active; 'I' for Inactive)
REMARK    1  A    between atoms: C_2  and  O_3
REMARK    2  A    between atoms: C_5  and  N_17
REMARK    3  A    between atoms: C_8  and  C_10
REMARK    4  A    between atoms: C_10  and  N_11
REMARK    5  A    between atoms: C_19  and  C_20
REMARK                            x       y       z     vdW  Elec       q    Type
REMARK                         _______ _______ _______ _____ _____    ______ ____
ROOT
ATOM      1  C   UNL     1       9.306  -2.943  23.768  0.00  0.00    +0.149 C 
ATOM      2  C   UNL     1       8.622  -1.794  24.510  0.00  0.00    +0.163 C 
ATOM      3  O   UNL     1       7.760  -2.397  25.503  0.00  0.00    -0.349 OA
ATOM      4  C   UNL     1       7.901  -3.830  25.430  0.00  0.00    +0.226 C 
ATOM      5  C   UNL     1       9.274  -4.039  24.803  0.00  0.00    +0.088 C 
ENDROOT
BRANCH   4   6
ATOM      6  N   UNL     1       6.773  -4.412  24.686  0.00  0.00    -0.274 N 
ATOM      7  C   UNL     1       5.524  -4.409  25.297  0.00  0.00    +0.331 A 
ATOM      8  O   UNL     1       5.304  -3.956  26.418  0.00  0.00    -0.246 OA
ATOM      9  N   UNL     1       4.501  -4.955  24.567  0.00  0.00    -0.275 N 
ATOM     10  H   UNL     1       3.588  -4.944  24.991  0.00  0.00    +0.173 HD
ATOM     11  C   UNL     1       4.569  -5.383  23.272  0.00  0.00    +0.257 A 
ATOM     12  O   UNL     1       3.580  -5.755  22.653  0.00  0.00    -0.267 OA
ATOM     13  C   UNL     1       5.911  -5.343  22.653  0.00  0.00    +0.030 A 
ATOM     14  C   UNL     1       6.067  -5.870  21.266  0.00  0.00    +0.051 C 
ATOM     15  C   UNL     1       6.917  -4.837  23.376  0.00  0.00    +0.101 A 
ENDBRANCH   4   6
BRANCH   1  16
ATOM     16  O   UNL     1      10.622  -2.624  23.346  0.00  0.00    -0.389 OA
ATOM     17  H   UNL     1      10.576  -2.191  22.475  0.00  0.00    +0.210 HD
ENDBRANCH   1  16
BRANCH   2  18
ATOM     18  C   UNL     1       7.835  -0.887  23.538  0.00  0.00    +0.118 C 
BRANCH  18  19
ATOM     19  N   UNL     1       7.930   0.557  23.841  0.00  0.00    -0.300 NA
ATOM     20  C   UNL     1       7.535   1.389  22.692  0.00  0.00    +0.084 C 
ATOM     21  C   UNL     1       8.546   1.377  21.544  0.00  0.00    +0.015 C 
ATOM     22  C   UNL     1       9.951   1.725  22.028  0.00  0.00    +0.002 C 
ATOM     23  C   UNL     1      10.341   0.896  23.249  0.00  0.00    +0.015 C 
ATOM     24  C   UNL     1       9.256   0.968  24.325  0.00  0.00    +0.084 C 
ENDBRANCH  18  19
ENDBRANCH   2  18
TORSDOF 4
ENDMDL
MODEL 5
REMARK VINA RESULT:      -6.6      2.290      5.895
REMARK  Name = 
REMARK  5 active torsions:
REMARK  status: ('A' for Active; 'I' for Inactive)
REMARK    1  A    between atoms: C_2  and  O_3
REMARK    2  A    between atoms: C_5  and  N_17
REMARK    3  A    between atoms: C_8  and  C_10
REMARK    4  A    between atoms: C_10  and  N_11
REMARK    5  A    between atoms: C_19  and  C_20
REMARK                            x       y       z     vdW  Elec       q    Type
REMARK                         _______ _______ _______ _____ _____    ______ ____
ROOT
ATOM      1  C   UNL     1       6.329  -2.659  26.041  0.00  0.00    +0.149 C 
ATOM      2  C   UNL     1       7.159  -3.941  25.990  0.00  0.00    +0.163 C 
ATOM      3  O   UNL     1       8.547  -3.536  25.948  0.00  0.00    -0.349 OA
ATOM      4  C   UNL     1       8.611  -2.096  26.001  0.00  0.00    +0.226 C 
ATOM      5  C   UNL     1       7.301  -1.689  26.665  0.00  0.00    +0.088 C 
ENDROOT
BRANCH   4   6
ATOM      6  N   UNL     1       8.831  -1.549  24.653  0.00  0.00    -0.274 N 
ATOM      7  C   UNL     1       9.703  -2.232  23.812  0.00  0.00    +0.331 A 
ATOM      8  O   UNL     1      10.302  -3.258  24.124  0.00  0.00    -0.246 OA
ATOM      9  N   UNL     1       9.874  -1.691  22.565  0.00  0.00    -0.275 N 
ATOM     10  H   UNL     1      10.490  -2.186  21.940  0.00  0.00    +0.173 HD
ATOM     11  C   UNL     1       9.189  -0.633  22.040  0.00  0.00    +0.257 A 
ATOM     12  O   UNL     1       9.322  -0.282  20.873  0.00  0.00    -0.267 OA
ATOM     13  C   UNL     1       8.253   0.045  22.961  0.00  0.00    +0.030 A 
ATOM     14  C   UNL     1       7.531   1.256  22.472  0.00  0.00    +0.051 C 
ATOM     15  C   UNL     1       8.107  -0.464  24.189  0.00  0.00    +0.101 A 
ENDBRANCH   4   6
BRANCH   1  16
ATOM     16  O   UNL     1       5.136  -2.801  26.794  0.00  0.00    -0.389 OA
ATOM     17  H   UNL     1       4.647  -1.959  26.770  0.00  0.00    +0.210 HD
ENDBRANCH   1  16
BRANCH   2  18
ATOM     18  C   UNL     1       6.776  -4.810  24.771  0.00  0.00    +0.118 C 
BRANCH  18  19
ATOM     19  N   UNL     1       6.308  -4.042  23.598  0.00  0.00    -0.300 NA
ATOM     20  C   UNL     1       4.947  -4.430  23.192  0.00  0.00    +0.084 C 
ATOM     21  C   UNL     1       4.867  -5.815  22.545  0.00  0.00    +0.015 C 
ATOM     22  C   UNL     1       5.856  -5.955  21.391  0.00  0.00    +0.002 C 
ATOM     23  C   UNL     1       7.256  -5.507  21.799  0.00  0.00    +0.015 C 
ATOM     24  C   UNL     1       7.218  -4.120  22.445  0.00  0.00    +0.084 C 
ENDBRANCH  18  19
ENDBRANCH   2  18
TORSDOF 4
ENDMDL
MODEL 6
REMARK VINA RESULT:      -6.6      2.432      3.788
REMARK  Name = 
REMARK  5 active torsions:
REMARK  status: ('A' for Active; 'I' for Inactive)
REMARK    1  A    between atoms: C_2  and  O_3
REMARK    2  A    between atoms: C_5  and  N_17
REMARK    3  A    between atoms: C_8  and  C_10
REMARK    4  A    between atoms: C_10  and  N_11
REMARK    5  A    between atoms: C_19  and  C_20
REMARK                            x       y       z     vdW  Elec       q    Type
REMARK                         _______ _______ _______ _____ _____    ______ ____
ROOT
ATOM      1  C   UNL     1       9.653  -2.194  23.177  0.00  0.00    +0.149 C 
ATOM      2  C   UNL     1       9.096  -1.036  24.006  0.00  0.00    +0.163 C 
ATOM      3  O   UNL     1       8.351  -1.627  25.095  0.00  0.00    -0.349 OA
ATOM      4  C   UNL     1       8.447  -3.062  24.998  0.00  0.00    +0.226 C 
ATOM      5  C   UNL     1       9.726  -3.297  24.203  0.00  0.00    +0.088 C 
ENDROOT
BRANCH   4   6
ATOM      6  N   UNL     1       7.221  -3.612  24.398  0.00  0.00    -0.274 N 
ATOM      7  C   UNL     1       6.014  -3.352  25.038  0.00  0.00    +0.331 A 
ATOM      8  O   UNL     1       5.908  -2.697  26.073  0.00  0.00    -0.246 OA
ATOM      9  N   UNL     1       4.898  -3.878  24.443  0.00  0.00    -0.275 N 
ATOM     10  H   UNL     1       4.016  -3.682  24.887  0.00  0.00    +0.173 HD
ATOM     11  C   UNL     1       4.848  -4.518  23.238  0.00  0.00    +0.257 A 
ATOM     12  O   UNL     1       3.791  -4.859  22.721  0.00  0.00    -0.267 OA
ATOM     13  C   UNL     1       6.152  -4.748  22.580  0.00  0.00    +0.030 A 
ATOM     14  C   UNL     1       6.173  -5.510  21.297  0.00  0.00    +0.051 C 
ATOM     15  C   UNL     1       7.246  -4.261  23.175  0.00  0.00    +0.101 A 
ENDBRANCH   4   6
BRANCH   1  16
ATOM     16  O   UNL     1      10.913  -1.902  22.595  0.00  0.00    -0.389 OA
ATOM     17  H   UNL     1      11.062  -0.941  22.635  0.00  0.00    +0.210 HD
ENDBRANCH   1  16
BRANCH   2  18
ATOM     18  C   UNL     1       8.215  -0.103  23.145  0.00  0.00    +0.118 C 
BRANCH  18  19
ATOM     19  N   UNL     1       8.973   0.792  22.244  0.00  0.00    -0.300 NA
ATOM     20  C   UNL     1      10.039   1.515  22.955  0.00  0.00    +0.084 C 
ATOM     21  C   UNL     1       9.525   2.603  23.900  0.00  0.00    +0.015 C 
ATOM     22  C   UNL     1       8.577   3.564  23.188  0.00  0.00    +0.002 C 
ATOM     23  C   UNL     1       7.499   2.812  22.411  0.00  0.00    +0.015 C 
ATOM     24  C   UNL     1       8.123   1.743  21.512  0.00  0.00    +0.084 C 
ENDBRANCH  18  19
ENDBRANCH   2  18
TORSDOF 4
ENDMDL
MODEL 7
REMARK VINA RESULT:      -6.6      2.404      6.101
REMARK  Name = 
REMARK  5 active torsions:
REMARK  status: ('A' for Active; 'I' for Inactive)
REMARK    1  A    between atoms: C_2  and  O_3
REMARK    2  A    between atoms: C_5  and  N_17
REMARK    3  A    between atoms: C_8  and  C_10
REMARK    4  A    between atoms: C_10  and  N_11
REMARK    5  A    between atoms: C_19  and  C_20
REMARK                            x       y       z     vdW  Elec       q    Type
REMARK                         _______ _______ _______ _____ _____    ______ ____
ROOT
ATOM      1  C   UNL     1       8.122  -4.993  26.146  0.00  0.00    +0.149 C 
ATOM      2  C   UNL     1       7.654  -5.243  24.712  0.00  0.00    +0.163 C 
ATOM      3  O   UNL     1       8.611  -4.593  23.844  0.00  0.00    -0.349 OA
ATOM      4  C   UNL     1       9.641  -3.994  24.656  0.00  0.00    +0.226 C 
ATOM      5  C   UNL     1       9.604  -4.793  25.954  0.00  0.00    +0.088 C 
ENDROOT
BRANCH   4   6
ATOM      6  N   UNL     1       9.400  -2.550  24.797  0.00  0.00    -0.274 N 
ATOM      7  C   UNL     1       9.830  -1.718  23.769  0.00  0.00    +0.331 A 
ATOM      8  O   UNL     1      10.400  -2.112  22.754  0.00  0.00    -0.246 OA
ATOM      9  N   UNL     1       9.579  -0.382  23.938  0.00  0.00    -0.275 N 
ATOM     10  H   UNL     1       9.870   0.229  23.193  0.00  0.00    +0.173 HD
ATOM     11  C   UNL     1       8.854   0.184  24.946  0.00  0.00    +0.257 A 
ATOM     12  O   UNL     1       8.579   1.378  24.964  0.00  0.00    -0.267 OA
ATOM     13  C   UNL     1       8.393  -0.741  26.003  0.00  0.00    +0.030 A 
ATOM     14  C   UNL     1       7.661  -0.173  27.173  0.00  0.00    +0.051 C 
ATOM     15  C   UNL     1       8.663  -2.043  25.854  0.00  0.00    +0.101 A 
ENDBRANCH   4   6
BRANCH   1  16
ATOM     16  O   UNL     1       7.822  -6.067  27.021  0.00  0.00    -0.389 OA
ATOM     17  H   UNL     1       7.980  -6.906  26.554  0.00  0.00    +0.210 HD
ENDBRANCH   1  16
BRANCH   2  18
ATOM     18  C   UNL     1       6.220  -4.710  24.488  0.00  0.00    +0.118 C 
BRANCH  18  19
ATOM     19  N   UNL     1       5.169  -5.478  25.189  0.00  0.00    -0.300 NA
ATOM     20  C   UNL     1       4.575  -6.513  24.328  0.00  0.00    +0.084 C 
ATOM     21  C   UNL     1       3.682  -5.955  23.218  0.00  0.00    +0.015 C 
ATOM     22  C   UNL     1       2.618  -5.011  23.772  0.00  0.00    +0.002 C 
ATOM     23  C   UNL     1       3.229  -3.968  24.703  0.00  0.00    +0.015 C 
ATOM     24  C   UNL     1       4.111  -4.633  25.762  0.00  0.00    +0.084 C 
ENDBRANCH  18  19
ENDBRANCH   2  18
TORSDOF 4
ENDMDL
MODEL 8
REMARK VINA RESULT:      -6.6      2.711      6.445
REMARK  Name = 
REMARK  5 active torsions:
REMARK  status: ('A' for Active; 'I' for Inactive)
REMARK    1  A    between atoms: C_2  and  O_3
REMARK    2  A    between atoms: C_5  and  N_17
REMARK    3  A    between atoms: C_8  and  C_10
REMARK    4  A    between atoms: C_10  and  N_11
REMARK    5  A    between atoms: C_19  and  C_20
REMARK                            x       y       z     vdW  Elec       q    Type
REMARK                         _______ _______ _______ _____ _____    ______ ____
ROOT
ATOM      1  C   UNL     1       9.381  -2.714  23.910  0.00  0.00    +0.149 C 
ATOM      2  C   UNL     1       8.432  -2.773  22.713  0.00  0.00    +0.163 C 
ATOM      3  O   UNL     1       8.657  -1.569  21.945  0.00  0.00    -0.349 OA
ATOM      4  C   UNL     1       9.698  -0.801  22.582  0.00  0.00    +0.226 C 
ATOM      5  C   UNL     1      10.485  -1.832  23.383  0.00  0.00    +0.088 C 
ENDROOT
BRANCH   4   6
ATOM      6  N   UNL     1       9.111   0.295  23.368  0.00  0.00    -0.274 N 
ATOM      7  C   UNL     1       9.951   1.002  24.222  0.00  0.00    +0.331 A 
ATOM      8  O   UNL     1      11.149   0.766  24.363  0.00  0.00    -0.246 OA
ATOM      9  N   UNL     1       9.365   2.017  24.930  0.00  0.00    -0.275 N 
ATOM     10  H   UNL     1       9.966   2.548  25.539  0.00  0.00    +0.173 HD
ATOM     11  C   UNL     1       8.084   2.468  24.788  0.00  0.00    +0.257 A 
ATOM     12  O   UNL     1       7.670   3.458  25.381  0.00  0.00    -0.267 OA
ATOM     13  C   UNL     1       7.235   1.705  23.850  0.00  0.00    +0.030 A 
ATOM     14  C   UNL     1       5.803   2.100  23.708  0.00  0.00    +0.051 C 
ATOM     15  C   UNL     1       7.799   0.694  23.179  0.00  0.00    +0.101 A 
ENDBRANCH   4   6
BRANCH   1  16
ATOM     16  O   UNL     1       9.844  -3.992  24.313  0.00  0.00    -0.389 OA
ATOM     17  H   UNL     1      10.366  -3.893  25.130  0.00  0.00    +0.210 HD
ENDBRANCH   1  16
BRANCH   2  18
ATOM     18  C   UNL     1       6.960  -2.900  23.168  0.00  0.00    +0.118 C 
BRANCH  18  19
ATOM     19  N   UNL     1       6.702  -4.028  24.087  0.00  0.00    -0.300 NA
ATOM     20  C   UNL     1       6.649  -5.317  23.378  0.00  0.00    +0.084 C 
ATOM     21  C   UNL     1       5.399  -5.497  22.514  0.00  0.00    +0.015 C 
ATOM     22  C   UNL     1       4.123  -5.247  23.313  0.00  0.00    +0.002 C 
ATOM     23  C   UNL     1       4.197  -3.933  24.087  0.00  0.00    +0.015 C 
ATOM     24  C   UNL     1       5.490  -3.854  24.902  0.00  0.00    +0.084 C 
ENDBRANCH  18  19
ENDBRANCH   2  18
TORSDOF 4
ENDMDL
MODEL 9
REMARK VINA RESULT:      -6.5      2.819      6.111
REMARK  Name = 
REMARK  5 active torsions:
REMARK  status: ('A' for Active; 'I' for Inactive)
REMARK    1  A    between atoms: C_2  and  O_3
REMARK    2  A    between atoms: C_5  and  N_17
REMARK    3  A    between atoms: C_8  and  C_10
REMARK    4  A    between atoms: C_10  and  N_11
REMARK    5  A    between atoms: C_19  and  C_20
REMARK                            x       y       z     vdW  Elec       q    Type
REMARK                         _______ _______ _______ _____ _____    ______ ____
ROOT
ATOM      1  C   UNL     1       9.266  -2.271  23.790  0.00  0.00    +0.149 C 
ATOM      2  C   UNL     1       8.784  -2.320  22.340  0.00  0.00    +0.163 C 
ATOM      3  O   UNL     1       8.585  -0.949  21.922  0.00  0.00    -0.349 OA
ATOM      4  C   UNL     1       8.944  -0.076  23.012  0.00  0.00    +0.226 C 
ATOM      5  C   UNL     1       9.906  -0.907  23.854  0.00  0.00    +0.088 C 
ENDROOT
BRANCH   4   6
ATOM      6  N   UNL     1       7.735   0.388  23.709  0.00  0.00    -0.274 N 
ATOM      7  C   UNL     1       6.902   1.277  23.038  0.00  0.00    +0.331 A 
ATOM      8  O   UNL     1       7.114   1.701  21.904  0.00  0.00    -0.246 OA
ATOM      9  N   UNL     1       5.784   1.678  23.721  0.00  0.00    -0.275 N 
ATOM     10  H   UNL     1       5.163   2.308  23.240  0.00  0.00    +0.173 HD
ATOM     11  C   UNL     1       5.358   1.202  24.928  0.00  0.00    +0.257 A 
ATOM     12  O   UNL     1       4.286   1.532  25.420  0.00  0.00    -0.267 OA
ATOM     13  C   UNL     1       6.261   0.238  25.592  0.00  0.00    +0.030 A 
ATOM     14  C   UNL     1       5.891  -0.260  26.949  0.00  0.00    +0.051 C 
ATOM     15  C   UNL     1       7.368  -0.132  24.939  0.00  0.00    +0.101 A 
ENDBRANCH   4   6
BRANCH   1  16
ATOM     16  O   UNL     1      10.169  -3.316  24.109  0.00  0.00    -0.389 OA
ATOM     17  H   UNL     1      11.027  -3.129  23.688  0.00  0.00    +0.210 HD
ENDBRANCH   1  16
BRANCH   2  18
ATOM     18  C   UNL     1       7.490  -3.155  22.206  0.00  0.00    +0.118 C 
BRANCH  18  19
ATOM     19  N   UNL     1       7.350  -4.226  23.215  0.00  0.00    -0.300 NA
ATOM     20  C   UNL     1       7.433  -5.567  22.613  0.00  0.00    +0.084 C 
ATOM     21  C   UNL     1       6.209  -5.945  21.776  0.00  0.00    +0.015 C 
ATOM     22  C   UNL     1       4.913  -5.765  22.562  0.00  0.00    +0.002 C 
ATOM     23  C   UNL     1       4.849  -4.392  23.226  0.00  0.00    +0.015 C 
ATOM     24  C   UNL     1       6.125  -4.113  24.022  0.00  0.00    +0.084 C 
ENDBRANCH  18  19
ENDBRANCH   2  18
TORSDOF 4
ENDMDL
