MODEL 1
REMARK VINA RESULT:      -7.1      0.000      0.000
REMARK  Name = 
REMARK  12 active torsions:
REMARK  status: ('A' for Active; 'I' for Inactive)
REMARK    1  A    between atoms: CB_2  and  CG2_3
REMARK    2  A    between atoms: CB_2  and  CG1_4
REMARK    3  A    between atoms: CB_2  and  CA_6
REMARK    4  A    between atoms: CG1_4  and  CD1_5
REMARK    5  A    between atoms: CA_6  and  N_8
REMARK    6  A    between atoms: CA_6  and  C_26
REMARK    7  A    between atoms: C_9  and  C_11
REMARK    8  A    between atoms: C_14  and  C_16
REMARK    9  A    between atoms: N_18  and  C_19
REMARK   10  A    between atoms: C_19  and  C_20
REMARK   11  A    between atoms: CA_32  and  C_34
REMARK   12  A    between atoms: C_34  and  O_35
REMARK                            x       y       z     vdW  Elec       q    Type
REMARK                         _______ _______ _______ _____ _____    ______ ____
ROOT
ATOM      1  N   PRO A   1       7.982  -1.536  25.023  0.00  0.00    -0.302 N 
ATOM      2  H   PRO A   1       7.431  -0.842  25.520  0.00  0.00    +0.150 HD
ATOM      3  C   UNK A   0       9.125  -1.143  24.369  0.00  0.00    +0.246 C 
ATOM      4  O   UNK A   0       9.807  -1.897  23.688  0.00  0.00    -0.273 OA
ENDROOT
BRANCH   3   5
ATOM      5  C   UNK A   0       9.532   0.270  24.532  0.00  0.00    +0.242 C 
ATOM      6  C   UNK A   0       8.986   1.288  23.560  0.00  0.00    +0.242 C 
ATOM      7  O   UNK A   0      10.359   0.853  23.507  0.00  0.00    -0.349 OA
BRANCH   6   8
ATOM      8  C   UNK A   0       8.727   2.665  24.040  0.00  0.00    +0.245 C 
ATOM      9  N   UNK A   0       8.971   3.657  23.127  0.00  0.00    -0.309 N 
ATOM     10  H   UNK A   0       9.315   3.399  22.210  0.00  0.00    +0.149 HD
ATOM     11  O   UNK A   0       8.306   2.845  25.173  0.00  0.00    -0.273 OA
BRANCH   9  12
ATOM     12  C   UNK A   0       8.757   5.053  23.423  0.00  0.00    +0.139 C 
BRANCH  12  13
ATOM     13  C   UNK A   0       9.980   5.661  24.064  0.00  0.00    -0.030 A 
ATOM     14  C   UNK A   0      11.259   5.419  23.543  0.00  0.00    +0.005 A 
ATOM     15  C   UNK A   0      12.383   6.010  24.124  0.00  0.00    +0.000 A 
ATOM     16  C   UNK A   0      12.240   6.850  25.226  0.00  0.00    +0.000 A 
ATOM     17  C   UNK A   0      10.973   7.100  25.751  0.00  0.00    +0.000 A 
ATOM     18  C   UNK A   0       9.848   6.511  25.171  0.00  0.00    +0.005 A 
ENDBRANCH  12  13
ENDBRANCH   9  12
ENDBRANCH   6   8
ENDBRANCH   3   5
BRANCH   1  19
ATOM     19  CA  PRO A   1       7.514  -2.928  25.012  0.00  0.00    +0.162 C 
BRANCH  19  20
ATOM     20  C   PRO A   1       6.046  -2.897  24.519  0.00  0.00    +0.237 C 
ATOM     21  N   PRO A   1       5.480  -4.071  24.051  0.00  0.00    -0.286 N 
ATOM     22  CA  PRO A   1       6.127  -5.381  23.859  0.00  0.00    +0.184 C 
ATOM     23  CB  PRO A   1       5.011  -6.407  24.091  0.00  0.00    +0.035 C 
ATOM     24  CG  PRO A   1       3.747  -5.597  24.382  0.00  0.00    +0.021 C 
ATOM     25  CD  PRO A   1       4.043  -4.201  23.864  0.00  0.00    +0.109 C 
ATOM     26  O   PRO A   1       5.389  -1.851  24.562  0.00  0.00    -0.274 OA
BRANCH  22  27
ATOM     27  C   PRO A   1       6.716  -5.540  22.450  0.00  0.00    +0.325 C 
ATOM     28  OXT PRO A   1       7.374  -4.676  21.892  0.00  0.00    -0.249 OA
BRANCH  27  29
ATOM     29  O   PRO A   1       6.450  -6.735  21.872  0.00  0.00    -0.479 OA
ATOM     30  H   PRO A   1       6.758  -7.479  22.430  0.00  0.00    +0.295 HD
ENDBRANCH  27  29
ENDBRANCH  22  27
ENDBRANCH  19  20
BRANCH  19  31
ATOM     31  CB  PRO A   1       7.651  -3.565  26.427  0.00  0.00    +0.015 C 
ATOM     32  CG2 PRO A   1       6.306  -3.787  27.133  0.00  0.00    +0.010 C 
BRANCH  31  33
ATOM     33  CG1 PRO A   1       8.433  -4.898  26.342  0.00  0.00    +0.002 C 
ATOM     34  CD1 PRO A   1       9.475  -4.939  25.232  0.00  0.00    +0.004 C 
ENDBRANCH  31  33
ENDBRANCH  19  31
ENDBRANCH   1  19
TORSDOF 10
ENDMDL
MODEL 2
REMARK VINA RESULT:      -7.0      2.188      9.569
REMARK  Name = 
REMARK  12 active torsions:
REMARK  status: ('A' for Active; 'I' for Inactive)
REMARK    1  A    between atoms: CB_2  and  CG2_3
REMARK    2  A    between atoms: CB_2  and  CG1_4
REMARK    3  A    between atoms: CB_2  and  CA_6
REMARK    4  A    between atoms: CG1_4  and  CD1_5
REMARK    5  A    between atoms: CA_6  and  N_8
REMARK    6  A    between atoms: CA_6  and  C_26
REMARK    7  A    between atoms: C_9  and  C_11
REMARK    8  A    between atoms: C_14  and  C_16
REMARK    9  A    between atoms: N_18  and  C_19
REMARK   10  A    between atoms: C_19  and  C_20
REMARK   11  A    between atoms: CA_32  and  C_34
REMARK   12  A    between atoms: C_34  and  O_35
REMARK                            x       y       z     vdW  Elec       q    Type
REMARK                         _______ _______ _______ _____ _____    ______ ____
ROOT
ATOM      1  N   PRO A   1       8.283   1.565  23.004  0.00  0.00    -0.302 N 
ATOM      2  H   PRO A   1       7.615   1.031  23.554  0.00  0.00    +0.150 HD
ATOM      3  C   UNK A   0       9.306   0.906  22.366  0.00  0.00    +0.246 C 
ATOM      4  O   UNK A   0      10.193   1.475  21.745  0.00  0.00    -0.273 OA
ENDROOT
BRANCH   3   5
ATOM      5  C   UNK A   0       9.296  -0.571  22.442  0.00  0.00    +0.242 C 
ATOM      6  C   UNK A   0      10.037  -1.235  23.577  0.00  0.00    +0.242 C 
ATOM      7  O   UNK A   0      10.540  -1.264  22.227  0.00  0.00    -0.349 OA
BRANCH   6   8
ATOM      8  C   UNK A   0       9.507  -2.501  24.133  0.00  0.00    +0.245 C 
ATOM      9  N   UNK A   0       8.197  -2.460  24.534  0.00  0.00    -0.309 N 
ATOM     10  H   UNK A   0       7.689  -1.589  24.441  0.00  0.00    +0.149 HD
ATOM     11  O   UNK A   0      10.224  -3.489  24.188  0.00  0.00    -0.273 OA
BRANCH   9  12
ATOM     12  C   UNK A   0       7.518  -3.608  25.083  0.00  0.00    +0.139 C 
BRANCH  12  13
ATOM     13  C   UNK A   0       6.813  -4.386  24.000  0.00  0.00    -0.030 A 
ATOM     14  C   UNK A   0       7.532  -5.215  23.127  0.00  0.00    +0.005 A 
ATOM     15  C   UNK A   0       6.868  -5.955  22.146  0.00  0.00    +0.000 A 
ATOM     16  C   UNK A   0       5.482  -5.877  22.031  0.00  0.00    +0.000 A 
ATOM     17  C   UNK A   0       4.756  -5.058  22.894  0.00  0.00    +0.000 A 
ATOM     18  C   UNK A   0       5.418  -4.319  23.876  0.00  0.00    +0.005 A 
ENDBRANCH  12  13
ENDBRANCH   9  12
ENDBRANCH   6   8
ENDBRANCH   3   5
BRANCH   1  19
ATOM     19  CA  PRO A   1       8.130   3.024  22.937  0.00  0.00    +0.162 C 
BRANCH  19  20
ATOM     20  C   PRO A   1       8.177   3.541  24.395  0.00  0.00    +0.237 C 
ATOM     21  N   PRO A   1       8.819   4.742  24.652  0.00  0.00    -0.286 N 
ATOM     22  CA  PRO A   1       9.576   5.588  23.712  0.00  0.00    +0.184 C 
ATOM     23  CB  PRO A   1       9.387   7.017  24.234  0.00  0.00    +0.035 C 
ATOM     24  CG  PRO A   1       8.531   6.897  25.496  0.00  0.00    +0.021 C 
ATOM     25  CD  PRO A   1       8.646   5.442  25.914  0.00  0.00    +0.109 C 
ATOM     26  O   PRO A   1       7.635   2.907  25.307  0.00  0.00    -0.274 OA
BRANCH  22  27
ATOM     27  C   PRO A   1      11.068   5.226  23.673  0.00  0.00    +0.325 C 
ATOM     28  OXT PRO A   1      11.945   5.924  24.156  0.00  0.00    -0.249 OA
BRANCH  27  29
ATOM     29  O   PRO A   1      11.334   4.048  23.060  0.00  0.00    -0.479 OA
ATOM     30  H   PRO A   1      11.524   4.175  22.107  0.00  0.00    +0.295 HD
ENDBRANCH  27  29
ENDBRANCH  22  27
ENDBRANCH  19  20
BRANCH  19  31
ATOM     31  CB  PRO A   1       6.803   3.404  22.214  0.00  0.00    +0.015 C 
ATOM     32  CG2 PRO A   1       5.563   2.723  22.812  0.00  0.00    +0.010 C 
BRANCH  31  33
ATOM     33  CG1 PRO A   1       6.615   4.940  22.211  0.00  0.00    +0.002 C 
ATOM     34  CD1 PRO A   1       5.402   5.421  22.999  0.00  0.00    +0.004 C 
ENDBRANCH  31  33
ENDBRANCH  19  31
ENDBRANCH   1  19
TORSDOF 10
ENDMDL
MODEL 3
REMARK VINA RESULT:      -7.0      1.222      1.312
REMARK  Name = 
REMARK  12 active torsions:
REMARK  status: ('A' for Active; 'I' for Inactive)
REMARK    1  A    between atoms: CB_2  and  CG2_3
REMARK    2  A    between atoms: CB_2  and  CG1_4
REMARK    3  A    between atoms: CB_2  and  CA_6
REMARK    4  A    between atoms: CG1_4  and  CD1_5
REMARK    5  A    between atoms: CA_6  and  N_8
REMARK    6  A    between atoms: CA_6  and  C_26
REMARK    7  A    between atoms: C_9  and  C_11
REMARK    8  A    between atoms: C_14  and  C_16
REMARK    9  A    between atoms: N_18  and  C_19
REMARK   10  A    between atoms: C_19  and  C_20
REMARK   11  A    between atoms: CA_32  and  C_34
REMARK   12  A    between atoms: C_34  and  O_35
REMARK                            x       y       z     vdW  Elec       q    Type
REMARK                         _______ _______ _______ _____ _____    ______ ____
ROOT
ATOM      1  N   PRO A   1       7.692  -1.018  24.042  0.00  0.00    -0.302 N 
ATOM      2  H   PRO A   1       7.304  -0.369  24.722  0.00  0.00    +0.150 HD
ATOM      3  C   UNK A   0       8.448  -0.529  23.004  0.00  0.00    +0.246 C 
ATOM      4  O   UNK A   0       8.892  -1.228  22.104  0.00  0.00    -0.273 OA
ENDROOT
BRANCH   3   5
ATOM      5  C   UNK A   0       8.735   0.922  23.016  0.00  0.00    +0.242 C 
ATOM      6  C   UNK A   0       7.988   1.808  22.050  0.00  0.00    +0.242 C 
ATOM      7  O   UNK A   0       9.380   1.489  21.860  0.00  0.00    -0.349 OA
BRANCH   6   8
ATOM      8  C   UNK A   0       7.656   3.192  22.460  0.00  0.00    +0.245 C 
ATOM      9  N   UNK A   0       8.731   3.977  22.786  0.00  0.00    -0.309 N 
ATOM     10  H   UNK A   0       9.658   3.573  22.742  0.00  0.00    +0.149 HD
ATOM     11  O   UNK A   0       6.492   3.562  22.468  0.00  0.00    -0.273 OA
BRANCH   9  12
ATOM     12  C   UNK A   0       8.589   5.355  23.191  0.00  0.00    +0.139 C 
BRANCH  12  13
ATOM     13  C   UNK A   0       9.826   5.834  23.911  0.00  0.00    -0.030 A 
ATOM     14  C   UNK A   0      11.104   5.518  23.431  0.00  0.00    +0.005 A 
ATOM     15  C   UNK A   0      12.243   5.991  24.086  0.00  0.00    +0.000 A 
ATOM     16  C   UNK A   0      12.116   6.786  25.223  0.00  0.00    +0.000 A 
ATOM     17  C   UNK A   0      10.850   7.108  25.709  0.00  0.00    +0.000 A 
ATOM     18  C   UNK A   0       9.710   6.637  25.055  0.00  0.00    +0.005 A 
ENDBRANCH  12  13
ENDBRANCH   9  12
ENDBRANCH   6   8
ENDBRANCH   3   5
BRANCH   1  19
ATOM     19  CA  PRO A   1       7.403  -2.450  24.194  0.00  0.00    +0.162 C 
BRANCH  19  20
ATOM     20  C   PRO A   1       5.863  -2.586  24.258  0.00  0.00    +0.237 C 
ATOM     21  N   PRO A   1       5.278  -3.737  23.754  0.00  0.00    -0.286 N 
ATOM     22  CA  PRO A   1       5.930  -4.856  23.050  0.00  0.00    +0.184 C 
ATOM     23  CB  PRO A   1       5.086  -6.086  23.406  0.00  0.00    +0.035 C 
ATOM     24  CG  PRO A   1       3.951  -5.576  24.295  0.00  0.00    +0.021 C 
ATOM     25  CD  PRO A   1       3.896  -4.080  24.048  0.00  0.00    +0.109 C 
ATOM     26  O   PRO A   1       5.172  -1.698  24.768  0.00  0.00    -0.274 OA
BRANCH  22  27
ATOM     27  C   PRO A   1       5.961  -4.649  21.529  0.00  0.00    +0.325 C 
ATOM     28  OXT PRO A   1       5.706  -3.586  20.986  0.00  0.00    -0.249 OA
BRANCH  27  29
ATOM     29  O   PRO A   1       6.308  -5.755  20.829  0.00  0.00    -0.479 OA
ATOM     30  H   PRO A   1       5.524  -6.296  20.601  0.00  0.00    +0.295 HD
ENDBRANCH  27  29
ENDBRANCH  22  27
ENDBRANCH  19  20
BRANCH  19  31
ATOM     31  CB  PRO A   1       8.104  -3.019  25.464  0.00  0.00    +0.015 C 
ATOM     32  CG2 PRO A   1       7.169  -3.836  26.366  0.00  0.00    +0.010 C 
BRANCH  31  33
ATOM     33  CG1 PRO A   1       9.332  -3.872  25.063  0.00  0.00    +0.002 C 
ATOM     34  CD1 PRO A   1       9.063  -5.370  25.022  0.00  0.00    +0.004 C 
ENDBRANCH  31  33
ENDBRANCH  19  31
ENDBRANCH   1  19
TORSDOF 10
ENDMDL
MODEL 4
REMARK VINA RESULT:      -6.9      2.444      8.943
REMARK  Name = 
REMARK  12 active torsions:
REMARK  status: ('A' for Active; 'I' for Inactive)
REMARK    1  A    between atoms: CB_2  and  CG2_3
REMARK    2  A    between atoms: CB_2  and  CG1_4
REMARK    3  A    between atoms: CB_2  and  CA_6
REMARK    4  A    between atoms: CG1_4  and  CD1_5
REMARK    5  A    between atoms: CA_6  and  N_8
REMARK    6  A    between atoms: CA_6  and  C_26
REMARK    7  A    between atoms: C_9  and  C_11
REMARK    8  A    between atoms: C_14  and  C_16
REMARK    9  A    between atoms: N_18  and  C_19
REMARK   10  A    between atoms: C_19  and  C_20
REMARK   11  A    between atoms: CA_32  and  C_34
REMARK   12  A    between atoms: C_34  and  O_35
REMARK                            x       y       z     vdW  Elec       q    Type
REMARK                         _______ _______ _______ _____ _____    ______ ____
ROOT
ATOM      1  N   PRO A   1       8.732   3.486  22.978  0.00  0.00    -0.302 N 
ATOM      2  H   PRO A   1       8.886   3.460  21.973  0.00  0.00    +0.150 HD
ATOM      3  C   UNK A   0       8.695   2.308  23.682  0.00  0.00    +0.246 C 
ATOM      4  O   UNK A   0       8.445   2.243  24.878  0.00  0.00    -0.273 OA
ENDROOT
BRANCH   3   5
ATOM      5  C   UNK A   0       8.996   1.072  22.927  0.00  0.00    +0.242 C 
ATOM      6  C   UNK A   0      10.205   0.264  23.330  0.00  0.00    +0.242 C 
ATOM      7  O   UNK A   0      10.190   1.049  22.122  0.00  0.00    -0.349 OA
BRANCH   6   8
ATOM      8  C   UNK A   0      10.161  -1.210  23.183  0.00  0.00    +0.245 C 
ATOM      9  N   UNK A   0       9.476  -1.874  24.167  0.00  0.00    -0.309 N 
ATOM     10  H   UNK A   0       9.064  -1.337  24.919  0.00  0.00    +0.149 HD
ATOM     11  O   UNK A   0      10.697  -1.741  22.222  0.00  0.00    -0.273 OA
BRANCH   9  12
ATOM     12  C   UNK A   0       9.321  -3.309  24.169  0.00  0.00    +0.139 C 
BRANCH  12  13
ATOM     13  C   UNK A   0       7.993  -3.708  23.578  0.00  0.00    -0.030 A 
ATOM     14  C   UNK A   0       7.070  -2.738  23.162  0.00  0.00    +0.005 A 
ATOM     15  C   UNK A   0       5.855  -3.116  22.587  0.00  0.00    +0.000 A 
ATOM     16  C   UNK A   0       5.551  -4.466  22.420  0.00  0.00    +0.000 A 
ATOM     17  C   UNK A   0       6.461  -5.440  22.828  0.00  0.00    +0.000 A 
ATOM     18  C   UNK A   0       7.677  -5.064  23.401  0.00  0.00    +0.005 A 
ENDBRANCH  12  13
ENDBRANCH   9  12
ENDBRANCH   6   8
ENDBRANCH   3   5
BRANCH   1  19
ATOM     19  CA  PRO A   1       8.534   4.791  23.623  0.00  0.00    +0.162 C 
BRANCH  19  20
ATOM     20  C   PRO A   1       7.446   5.528  22.805  0.00  0.00    +0.237 C 
ATOM     21  N   PRO A   1       6.115   5.273  23.094  0.00  0.00    -0.286 N 
ATOM     22  CA  PRO A   1       5.562   4.291  24.043  0.00  0.00    +0.184 C 
ATOM     23  CB  PRO A   1       4.248   4.915  24.530  0.00  0.00    +0.035 C 
ATOM     24  CG  PRO A   1       4.111   6.244  23.787  0.00  0.00    +0.021 C 
ATOM     25  CD  PRO A   1       5.051   6.133  22.600  0.00  0.00    +0.109 C 
ATOM     26  O   PRO A   1       7.758   6.342  21.930  0.00  0.00    -0.274 OA
BRANCH  22  27
ATOM     27  C   PRO A   1       5.295   2.930  23.384  0.00  0.00    +0.325 C 
ATOM     28  OXT PRO A   1       5.770   2.594  22.311  0.00  0.00    -0.249 OA
BRANCH  27  29
ATOM     29  O   PRO A   1       4.486   2.117  24.104  0.00  0.00    -0.479 OA
ATOM     30  H   PRO A   1       4.544   2.310  25.062  0.00  0.00    +0.295 HD
ENDBRANCH  27  29
ENDBRANCH  22  27
ENDBRANCH  19  20
BRANCH  19  31
ATOM     31  CB  PRO A   1       9.875   5.584  23.679  0.00  0.00    +0.015 C 
ATOM     32  CG2 PRO A   1       9.997   6.497  24.907  0.00  0.00    +0.010 C 
BRANCH  31  33
ATOM     33  CG1 PRO A   1      11.076   4.610  23.621  0.00  0.00    +0.002 C 
ATOM     34  CD1 PRO A   1      12.394   5.269  23.234  0.00  0.00    +0.004 C 
ENDBRANCH  31  33
ENDBRANCH  19  31
ENDBRANCH   1  19
TORSDOF 10
ENDMDL
MODEL 5
REMARK VINA RESULT:      -6.8      1.753      2.431
REMARK  Name = 
REMARK  12 active torsions:
REMARK  status: ('A' for Active; 'I' for Inactive)
REMARK    1  A    between atoms: CB_2  and  CG2_3
REMARK    2  A    between atoms: CB_2  and  CG1_4
REMARK    3  A    between atoms: CB_2  and  CA_6
REMARK    4  A    between atoms: CG1_4  and  CD1_5
REMARK    5  A    between atoms: CA_6  and  N_8
REMARK    6  A    between atoms: CA_6  and  C_26
REMARK    7  A    between atoms: C_9  and  C_11
REMARK    8  A    between atoms: C_14  and  C_16
REMARK    9  A    between atoms: N_18  and  C_19
REMARK   10  A    between atoms: C_19  and  C_20
REMARK   11  A    between atoms: CA_32  and  C_34
REMARK   12  A    between atoms: C_34  and  O_35
REMARK                            x       y       z     vdW  Elec       q    Type
REMARK                         _______ _______ _______ _____ _____    ______ ____
ROOT
ATOM      1  N   PRO A   1       8.219  -2.405  24.476  0.00  0.00    -0.302 N 
ATOM      2  H   PRO A   1       8.486  -1.672  25.128  0.00  0.00    +0.150 HD
ATOM      3  C   UNK A   0       8.587  -2.299  23.157  0.00  0.00    +0.246 C 
ATOM      4  O   UNK A   0       8.247  -3.096  22.294  0.00  0.00    -0.273 OA
ENDROOT
BRANCH   3   5
ATOM      5  C   UNK A   0       9.454  -1.155  22.799  0.00  0.00    +0.242 C 
ATOM      6  C   UNK A   0       8.802   0.098  22.267  0.00  0.00    +0.242 C 
ATOM      7  O   UNK A   0       9.545  -0.790  21.409  0.00  0.00    -0.349 OA
BRANCH   6   8
ATOM      8  C   UNK A   0       9.415   1.410  22.581  0.00  0.00    +0.245 C 
ATOM      9  N   UNK A   0       8.955   2.010  23.723  0.00  0.00    -0.309 N 
ATOM     10  H   UNK A   0       8.237   1.542  24.262  0.00  0.00    +0.149 HD
ATOM     11  O   UNK A   0      10.279   1.868  21.848  0.00  0.00    -0.273 OA
BRANCH   9  12
ATOM     12  C   UNK A   0       9.455   3.283  24.185  0.00  0.00    +0.139 C 
BRANCH  12  13
ATOM     13  C   UNK A   0       8.663   4.420  23.590  0.00  0.00    -0.030 A 
ATOM     14  C   UNK A   0       9.152   5.734  23.628  0.00  0.00    +0.005 A 
ATOM     15  C   UNK A   0       8.426   6.776  23.048  0.00  0.00    +0.000 A 
ATOM     16  C   UNK A   0       7.208   6.517  22.423  0.00  0.00    +0.000 A 
ATOM     17  C   UNK A   0       6.713   5.215  22.377  0.00  0.00    +0.000 A 
ATOM     18  C   UNK A   0       7.438   4.171  22.954  0.00  0.00    +0.005 A 
ENDBRANCH  12  13
ENDBRANCH   9  12
ENDBRANCH   6   8
ENDBRANCH   3   5
BRANCH   1  19
ATOM     19  CA  PRO A   1       7.429  -3.537  24.979  0.00  0.00    +0.162 C 
BRANCH  19  20
ATOM     20  C   PRO A   1       5.941  -3.122  24.870  0.00  0.00    +0.237 C 
ATOM     21  N   PRO A   1       5.045  -4.015  24.304  0.00  0.00    -0.286 N 
ATOM     22  CA  PRO A   1       5.330  -5.319  23.682  0.00  0.00    +0.184 C 
ATOM     23  CB  PRO A   1       4.074  -6.159  23.942  0.00  0.00    +0.035 C 
ATOM     24  CG  PRO A   1       3.105  -5.248  24.696  0.00  0.00    +0.021 C 
ATOM     25  CD  PRO A   1       3.608  -3.839  24.441  0.00  0.00    +0.109 C 
ATOM     26  O   PRO A   1       5.559  -2.027  25.297  0.00  0.00    -0.274 OA
BRANCH  22  27
ATOM     27  C   PRO A   1       5.592  -5.201  22.174  0.00  0.00    +0.325 C 
ATOM     28  OXT PRO A   1       5.839  -6.156  21.454  0.00  0.00    -0.249 OA
BRANCH  27  29
ATOM     29  O   PRO A   1       5.515  -3.936  21.697  0.00  0.00    -0.479 OA
ATOM     30  H   PRO A   1       4.912  -3.385  22.238  0.00  0.00    +0.295 HD
ENDBRANCH  27  29
ENDBRANCH  22  27
ENDBRANCH  19  20
BRANCH  19  31
ATOM     31  CB  PRO A   1       7.842  -3.887  26.441  0.00  0.00    +0.015 C 
ATOM     32  CG2 PRO A   1       6.843  -4.807  27.157  0.00  0.00    +0.010 C 
BRANCH  31  33
ATOM     33  CG1 PRO A   1       9.254  -4.520  26.462  0.00  0.00    +0.002 C 
ATOM     34  CD1 PRO A   1       9.508  -5.515  25.337  0.00  0.00    +0.004 C 
ENDBRANCH  31  33
ENDBRANCH  19  31
ENDBRANCH   1  19
TORSDOF 10
ENDMDL
MODEL 6
REMARK VINA RESULT:      -6.8      2.855      4.628
REMARK  Name = 
REMARK  12 active torsions:
REMARK  status: ('A' for Active; 'I' for Inactive)
REMARK    1  A    between atoms: CB_2  and  CG2_3
REMARK    2  A    between atoms: CB_2  and  CG1_4
REMARK    3  A    between atoms: CB_2  and  CA_6
REMARK    4  A    between atoms: CG1_4  and  CD1_5
REMARK    5  A    between atoms: CA_6  and  N_8
REMARK    6  A    between atoms: CA_6  and  C_26
REMARK    7  A    between atoms: C_9  and  C_11
REMARK    8  A    between atoms: C_14  and  C_16
REMARK    9  A    between atoms: N_18  and  C_19
REMARK   10  A    between atoms: C_19  and  C_20
REMARK   11  A    between atoms: CA_32  and  C_34
REMARK   12  A    between atoms: C_34  and  O_35
REMARK                            x       y       z     vdW  Elec       q    Type
REMARK                         _______ _______ _______ _____ _____    ______ ____
ROOT
ATOM      1  N   PRO A   1       6.601  -2.854  25.429  0.00  0.00    -0.302 N 
ATOM      2  H   PRO A   1       6.504  -2.220  24.640  0.00  0.00    +0.150 HD
ATOM      3  C   UNK A   0       7.848  -3.322  25.764  0.00  0.00    +0.246 C 
ATOM      4  O   UNK A   0       8.048  -4.141  26.650  0.00  0.00    -0.273 OA
ENDROOT
BRANCH   3   5
ATOM      5  C   UNK A   0       8.991  -2.774  25.001  0.00  0.00    +0.242 C 
ATOM      6  C   UNK A   0       8.991  -2.930  23.500  0.00  0.00    +0.242 C 
ATOM      7  O   UNK A   0       9.867  -3.706  24.340  0.00  0.00    -0.349 OA
BRANCH   6   8
ATOM      8  C   UNK A   0       9.608  -1.867  22.672  0.00  0.00    +0.245 C 
ATOM      9  N   UNK A   0       8.739  -0.922  22.193  0.00  0.00    -0.309 N 
ATOM     10  H   UNK A   0       7.756  -1.010  22.415  0.00  0.00    +0.149 HD
ATOM     11  O   UNK A   0      10.814  -1.871  22.479  0.00  0.00    -0.273 OA
BRANCH   9  12
ATOM     12  C   UNK A   0       9.174   0.190  21.383  0.00  0.00    +0.139 C 
BRANCH  12  13
ATOM     13  C   UNK A   0       9.001   1.494  22.122  0.00  0.00    -0.030 A 
ATOM     14  C   UNK A   0       9.977   1.946  23.021  0.00  0.00    +0.005 A 
ATOM     15  C   UNK A   0       9.823   3.168  23.678  0.00  0.00    +0.000 A 
ATOM     16  C   UNK A   0       8.695   3.952  23.441  0.00  0.00    +0.000 A 
ATOM     17  C   UNK A   0       7.719   3.514  22.548  0.00  0.00    +0.000 A 
ATOM     18  C   UNK A   0       7.872   2.293  21.889  0.00  0.00    +0.005 A 
ENDBRANCH  12  13
ENDBRANCH   9  12
ENDBRANCH   6   8
ENDBRANCH   3   5
BRANCH   1  19
ATOM     19  CA  PRO A   1       5.392  -3.254  26.162  0.00  0.00    +0.162 C 
BRANCH  19  20
ATOM     20  C   PRO A   1       4.889  -4.562  25.503  0.00  0.00    +0.237 C 
ATOM     21  N   PRO A   1       4.405  -5.571  26.320  0.00  0.00    -0.286 N 
ATOM     22  CA  PRO A   1       4.385  -5.618  27.792  0.00  0.00    +0.184 C 
ATOM     23  CB  PRO A   1       3.149  -6.458  28.139  0.00  0.00    +0.035 C 
ATOM     24  CG  PRO A   1       2.534  -6.877  26.803  0.00  0.00    +0.021 C 
ATOM     25  CD  PRO A   1       3.640  -6.684  25.781  0.00  0.00    +0.109 C 
ATOM     26  O   PRO A   1       4.899  -4.693  24.274  0.00  0.00    -0.274 OA
BRANCH  22  27
ATOM     27  C   PRO A   1       5.651  -6.265  28.372  0.00  0.00    +0.325 C 
ATOM     28  OXT PRO A   1       5.794  -7.471  28.503  0.00  0.00    -0.249 OA
BRANCH  27  29
ATOM     29  O   PRO A   1       6.613  -5.379  28.722  0.00  0.00    -0.479 OA
ATOM     30  H   PRO A   1       7.369  -5.824  29.158  0.00  0.00    +0.295 HD
ENDBRANCH  27  29
ENDBRANCH  22  27
ENDBRANCH  19  20
BRANCH  19  31
ATOM     31  CB  PRO A   1       4.325  -2.119  26.121  0.00  0.00    +0.015 C 
ATOM     32  CG2 PRO A   1       2.889  -2.621  26.321  0.00  0.00    +0.010 C 
BRANCH  31  33
ATOM     33  CG1 PRO A   1       4.659  -1.032  27.171  0.00  0.00    +0.002 C 
ATOM     34  CD1 PRO A   1       4.631   0.390  26.626  0.00  0.00    +0.004 C 
ENDBRANCH  31  33
ENDBRANCH  19  31
ENDBRANCH   1  19
TORSDOF 10
ENDMDL
MODEL 7
REMARK VINA RESULT:      -6.7      1.337      1.886
REMARK  Name = 
REMARK  12 active torsions:
REMARK  status: ('A' for Active; 'I' for Inactive)
REMARK    1  A    between atoms: CB_2  and  CG2_3
REMARK    2  A    between atoms: CB_2  and  CG1_4
REMARK    3  A    between atoms: CB_2  and  CA_6
REMARK    4  A    between atoms: CG1_4  and  CD1_5
REMARK    5  A    between atoms: CA_6  and  N_8
REMARK    6  A    between atoms: CA_6  and  C_26
REMARK    7  A    between atoms: C_9  and  C_11
REMARK    8  A    between atoms: C_14  and  C_16
REMARK    9  A    between atoms: N_18  and  C_19
REMARK   10  A    between atoms: C_19  and  C_20
REMARK   11  A    between atoms: CA_32  and  C_34
REMARK   12  A    between atoms: C_34  and  O_35
REMARK                            x       y       z     vdW  Elec       q    Type
REMARK                         _______ _______ _______ _____ _____    ______ ____
ROOT
ATOM      1  N   PRO A   1       7.105  -1.923  24.990  0.00  0.00    -0.302 N 
ATOM      2  H   PRO A   1       6.963  -1.284  25.768  0.00  0.00    +0.150 HD
ATOM      3  C   UNK A   0       7.678  -1.455  23.833  0.00  0.00    +0.246 C 
ATOM      4  O   UNK A   0       7.820  -2.134  22.826  0.00  0.00    -0.273 OA
ENDROOT
BRANCH   3   5
ATOM      5  C   UNK A   0       8.154  -0.054  23.846  0.00  0.00    +0.242 C 
ATOM      6  C   UNK A   0       9.639   0.198  23.757  0.00  0.00    +0.242 C 
ATOM      7  O   UNK A   0       8.913   0.387  24.987  0.00  0.00    -0.349 OA
BRANCH   6   8
ATOM      8  C   UNK A   0      10.117   1.412  23.056  0.00  0.00    +0.245 C 
ATOM      9  N   UNK A   0      10.536   2.431  23.871  0.00  0.00    -0.309 N 
ATOM     10  H   UNK A   0      10.485   2.303  24.873  0.00  0.00    +0.149 HD
ATOM     11  O   UNK A   0      10.134   1.442  21.834  0.00  0.00    -0.273 OA
BRANCH   9  12
ATOM     12  C   UNK A   0      11.046   3.678  23.353  0.00  0.00    +0.139 C 
BRANCH  12  13
ATOM     13  C   UNK A   0      10.164   4.831  23.762  0.00  0.00    -0.030 A 
ATOM     14  C   UNK A   0       8.770   4.747  23.643  0.00  0.00    +0.005 A 
ATOM     15  C   UNK A   0       7.959   5.807  24.052  0.00  0.00    +0.000 A 
ATOM     16  C   UNK A   0       8.532   6.960  24.585  0.00  0.00    +0.000 A 
ATOM     17  C   UNK A   0       9.917   7.055  24.710  0.00  0.00    +0.000 A 
ATOM     18  C   UNK A   0      10.729   5.995  24.304  0.00  0.00    +0.005 A 
ENDBRANCH  12  13
ENDBRANCH   9  12
ENDBRANCH   6   8
ENDBRANCH   3   5
BRANCH   1  19
ATOM     19  CA  PRO A   1       6.666  -3.317  25.138  0.00  0.00    +0.162 C 
BRANCH  19  20
ATOM     20  C   PRO A   1       5.140  -3.330  24.879  0.00  0.00    +0.237 C 
ATOM     21  N   PRO A   1       4.565  -4.485  24.372  0.00  0.00    -0.286 N 
ATOM     22  CA  PRO A   1       5.237  -5.721  23.938  0.00  0.00    +0.184 C 
ATOM     23  CB  PRO A   1       4.222  -6.837  24.218  0.00  0.00    +0.035 C 
ATOM     24  CG  PRO A   1       2.982  -6.146  24.786  0.00  0.00    +0.021 C 
ATOM     25  CD  PRO A   1       3.125  -4.688  24.391  0.00  0.00    +0.109 C 
ATOM     26  O   PRO A   1       4.448  -2.341  25.140  0.00  0.00    -0.274 OA
BRANCH  22  27
ATOM     27  C   PRO A   1       5.603  -5.694  22.447  0.00  0.00    +0.325 C 
ATOM     28  OXT PRO A   1       5.414  -4.729  21.723  0.00  0.00    -0.249 OA
BRANCH  27  29
ATOM     29  O   PRO A   1       6.170  -6.838  21.996  0.00  0.00    -0.479 OA
ATOM     30  H   PRO A   1       7.037  -6.667  21.574  0.00  0.00    +0.295 HD
ENDBRANCH  27  29
ENDBRANCH  22  27
ENDBRANCH  19  20
BRANCH  19  31
ATOM     31  CB  PRO A   1       7.034  -3.861  26.551  0.00  0.00    +0.015 C 
ATOM     32  CG2 PRO A   1       5.812  -4.174  27.425  0.00  0.00    +0.010 C 
BRANCH  31  33
ATOM     33  CG1 PRO A   1       7.932  -5.116  26.426  0.00  0.00    +0.002 C 
ATOM     34  CD1 PRO A   1       9.309  -4.839  25.836  0.00  0.00    +0.004 C 
ENDBRANCH  31  33
ENDBRANCH  19  31
ENDBRANCH   1  19
TORSDOF 10
ENDMDL
MODEL 8
REMARK VINA RESULT:      -6.6      2.797      9.367
REMARK  Name = 
REMARK  12 active torsions:
REMARK  status: ('A' for Active; 'I' for Inactive)
REMARK    1  A    between atoms: CB_2  and  CG2_3
REMARK    2  A    between atoms: CB_2  and  CG1_4
REMARK    3  A    between atoms: CB_2  and  CA_6
REMARK    4  A    between atoms: CG1_4  and  CD1_5
REMARK    5  A    between atoms: CA_6  and  N_8
REMARK    6  A    between atoms: CA_6  and  C_26
REMARK    7  A    between atoms: C_9  and  C_11
REMARK    8  A    between atoms: C_14  and  C_16
REMARK    9  A    between atoms: N_18  and  C_19
REMARK   10  A    between atoms: C_19  and  C_20
REMARK   11  A    between atoms: CA_32  and  C_34
REMARK   12  A    between atoms: C_34  and  O_35
REMARK                            x       y       z     vdW  Elec       q    Type
REMARK                         _______ _______ _______ _____ _____    ______ ____
ROOT
ATOM      1  N   PRO A   1       8.412   1.124  25.336  0.00  0.00    -0.302 N 
ATOM      2  H   PRO A   1       8.639   0.225  24.918  0.00  0.00    +0.150 HD
ATOM      3  C   UNK A   0       7.645   1.161  26.474  0.00  0.00    +0.246 C 
ATOM      4  O   UNK A   0       7.267   2.199  27.000  0.00  0.00    -0.273 OA
ENDROOT
BRANCH   3   5
ATOM      5  C   UNK A   0       7.289  -0.140  27.079  0.00  0.00    +0.242 C 
ATOM      6  C   UNK A   0       6.173  -0.940  26.452  0.00  0.00    +0.242 C 
ATOM      7  O   UNK A   0       5.999  -0.258  27.709  0.00  0.00    -0.349 OA
BRANCH   6   8
ATOM      8  C   UNK A   0       6.248  -2.419  26.485  0.00  0.00    +0.245 C 
ATOM      9  N   UNK A   0       7.167  -2.976  25.635  0.00  0.00    -0.309 N 
ATOM     10  H   UNK A   0       7.715  -2.364  25.044  0.00  0.00    +0.149 HD
ATOM     11  O   UNK A   0       5.532  -3.047  27.250  0.00  0.00    -0.273 OA
BRANCH   9  12
ATOM     12  C   UNK A   0       7.382  -4.400  25.552  0.00  0.00    +0.139 C 
BRANCH  12  13
ATOM     13  C   UNK A   0       6.849  -4.950  24.251  0.00  0.00    -0.030 A 
ATOM     14  C   UNK A   0       5.485  -5.234  24.097  0.00  0.00    +0.005 A 
ATOM     15  C   UNK A   0       4.994  -5.714  22.881  0.00  0.00    +0.000 A 
ATOM     16  C   UNK A   0       5.861  -5.910  21.807  0.00  0.00    +0.000 A 
ATOM     17  C   UNK A   0       7.218  -5.629  21.948  0.00  0.00    +0.000 A 
ATOM     18  C   UNK A   0       7.710  -5.148  23.162  0.00  0.00    +0.005 A 
ENDBRANCH  12  13
ENDBRANCH   9  12
ENDBRANCH   6   8
ENDBRANCH   3   5
BRANCH   1  19
ATOM     19  CA  PRO A   1       8.904   2.344  24.682  0.00  0.00    +0.162 C 
BRANCH  19  20
ATOM     20  C   PRO A   1       7.752   2.860  23.785  0.00  0.00    +0.237 C 
ATOM     21  N   PRO A   1       7.619   4.226  23.598  0.00  0.00    -0.286 N 
ATOM     22  CA  PRO A   1       8.390   5.310  24.232  0.00  0.00    +0.184 C 
ATOM     23  CB  PRO A   1       8.411   6.436  23.190  0.00  0.00    +0.035 C 
ATOM     24  CG  PRO A   1       7.601   5.922  21.998  0.00  0.00    +0.021 C 
ATOM     25  CD  PRO A   1       6.777   4.772  22.546  0.00  0.00    +0.109 C 
ATOM     26  O   PRO A   1       6.983   2.068  23.230  0.00  0.00    -0.274 OA
BRANCH  22  27
ATOM     27  C   PRO A   1       7.744   5.800  25.536  0.00  0.00    +0.325 C 
ATOM     28  OXT PRO A   1       6.960   6.734  25.591  0.00  0.00    -0.249 OA
BRANCH  27  29
ATOM     29  O   PRO A   1       8.112   5.097  26.633  0.00  0.00    -0.479 OA
ATOM     30  H   PRO A   1       8.989   5.380  26.964  0.00  0.00    +0.295 HD
ENDBRANCH  27  29
ENDBRANCH  22  27
ENDBRANCH  19  20
BRANCH  19  31
ATOM     31  CB  PRO A   1      10.202   2.048  23.872  0.00  0.00    +0.015 C 
ATOM     32  CG2 PRO A   1      10.957   0.804  24.358  0.00  0.00    +0.010 C 
BRANCH  31  33
ATOM     33  CG1 PRO A   1       9.874   1.914  22.365  0.00  0.00    +0.002 C 
ATOM     34  CD1 PRO A   1       9.830   0.477  21.863  0.00  0.00    +0.004 C 
ENDBRANCH  31  33
ENDBRANCH  19  31
ENDBRANCH   1  19
TORSDOF 10
ENDMDL
MODEL 9
REMARK VINA RESULT:      -6.6      1.939      2.969
REMARK  Name = 
REMARK  12 active torsions:
REMARK  status: ('A' for Active; 'I' for Inactive)
REMARK    1  A    between atoms: CB_2  and  CG2_3
REMARK    2  A    between atoms: CB_2  and  CG1_4
REMARK    3  A    between atoms: CB_2  and  CA_6
REMARK    4  A    between atoms: CG1_4  and  CD1_5
REMARK    5  A    between atoms: CA_6  and  N_8
REMARK    6  A    between atoms: CA_6  and  C_26
REMARK    7  A    between atoms: C_9  and  C_11
REMARK    8  A    between atoms: C_14  and  C_16
REMARK    9  A    between atoms: N_18  and  C_19
REMARK   10  A    between atoms: C_19  and  C_20
REMARK   11  A    between atoms: CA_32  and  C_34
REMARK   12  A    between atoms: C_34  and  O_35
REMARK                            x       y       z     vdW  Elec       q    Type
REMARK                         _______ _______ _______ _____ _____    ______ ____
ROOT
ATOM      1  N   PRO A   1       6.490  -2.927  26.196  0.00  0.00    -0.302 N 
ATOM      2  H   PRO A   1       5.786  -2.203  26.076  0.00  0.00    +0.150 HD
ATOM      3  C   UNK A   0       7.788  -2.564  26.455  0.00  0.00    +0.246 C 
ATOM      4  O   UNK A   0       8.710  -3.364  26.543  0.00  0.00    -0.273 OA
ENDROOT
BRANCH   3   5
ATOM      5  C   UNK A   0       8.050  -1.120  26.649  0.00  0.00    +0.242 C 
ATOM      6  C   UNK A   0       8.413  -0.291  25.442  0.00  0.00    +0.242 C 
ATOM      7  O   UNK A   0       9.393  -0.646  26.437  0.00  0.00    -0.349 OA
BRANCH   6   8
ATOM      8  C   UNK A   0       7.978   1.125  25.391  0.00  0.00    +0.245 C 
ATOM      9  N   UNK A   0       8.596   1.891  24.438  0.00  0.00    -0.309 N 
ATOM     10  H   UNK A   0       9.301   1.462  23.852  0.00  0.00    +0.149 HD
ATOM     11  O   UNK A   0       7.111   1.522  26.155  0.00  0.00    -0.273 OA
BRANCH   9  12
ATOM     12  C   UNK A   0       8.280   3.286  24.242  0.00  0.00    +0.139 C 
BRANCH  12  13
ATOM     13  C   UNK A   0       9.534   4.095  24.018  0.00  0.00    -0.030 A 
ATOM     14  C   UNK A   0       9.594   5.444  24.393  0.00  0.00    +0.005 A 
ATOM     15  C   UNK A   0      10.768   6.178  24.210  0.00  0.00    +0.000 A 
ATOM     16  C   UNK A   0      11.892   5.571  23.654  0.00  0.00    +0.000 A 
ATOM     17  C   UNK A   0      11.844   4.230  23.278  0.00  0.00    +0.000 A 
ATOM     18  C   UNK A   0      10.673   3.494  23.462  0.00  0.00    +0.005 A 
ENDBRANCH  12  13
ENDBRANCH   9  12
ENDBRANCH   6   8
ENDBRANCH   3   5
BRANCH   1  19
ATOM     19  CA  PRO A   1       6.081  -4.332  26.065  0.00  0.00    +0.162 C 
BRANCH  19  20
ATOM     20  C   PRO A   1       5.283  -4.439  24.743  0.00  0.00    +0.237 C 
ATOM     21  N   PRO A   1       5.973  -4.714  23.574  0.00  0.00    -0.286 N 
ATOM     22  CA  PRO A   1       7.429  -4.833  23.383  0.00  0.00    +0.184 C 
ATOM     23  CB  PRO A   1       7.593  -5.840  22.238  0.00  0.00    +0.035 C 
ATOM     24  CG  PRO A   1       6.176  -6.226  21.811  0.00  0.00    +0.021 C 
ATOM     25  CD  PRO A   1       5.283  -5.131  22.364  0.00  0.00    +0.109 C 
ATOM     26  O   PRO A   1       4.055  -4.303  24.735  0.00  0.00    -0.274 OA
BRANCH  22  27
ATOM     27  C   PRO A   1       8.080  -3.492  23.014  0.00  0.00    +0.325 C 
ATOM     28  OXT PRO A   1       7.537  -2.645  22.322  0.00  0.00    -0.249 OA
BRANCH  27  29
ATOM     29  O   PRO A   1       9.319  -3.318  23.532  0.00  0.00    -0.479 OA
ATOM     30  H   PRO A   1       9.741  -4.175  23.749  0.00  0.00    +0.295 HD
ENDBRANCH  27  29
ENDBRANCH  22  27
ENDBRANCH  19  20
BRANCH  19  31
ATOM     31  CB  PRO A   1       5.244  -4.777  27.302  0.00  0.00    +0.015 C 
ATOM     32  CG2 PRO A   1       6.022  -5.667  28.281  0.00  0.00    +0.010 C 
BRANCH  31  33
ATOM     33  CG1 PRO A   1       4.682  -3.539  28.043  0.00  0.00    +0.002 C 
ATOM     34  CD1 PRO A   1       3.162  -3.505  28.134  0.00  0.00    +0.004 C 
ENDBRANCH  31  33
ENDBRANCH  19  31
ENDBRANCH   1  19
TORSDOF 10
ENDMDL
