MODEL 1
REMARK VINA RESULT:      -6.3      0.000      0.000
REMARK  Name = 
REMARK  4 active torsions:
REMARK  status: ('A' for Active; 'I' for Inactive)
REMARK    1  A    between atoms: C_1  and  C_2
REMARK    2  A    between atoms: C_2  and  C_3
REMARK    3  A    between atoms: C_3  and  C_11
REMARK    4  A    between atoms: C_14  and  N_15
REMARK                            x       y       z     vdW  Elec       q    Type
REMARK                         _______ _______ _______ _____ _____    ______ ____
ROOT
ATOM      1  C   UNL     1       7.804  -3.127  23.616  0.00  0.00    +0.072 C 
ATOM      2  C   UNL     1       8.991  -3.808  24.344  0.00  0.00    +0.230 C 
ATOM      3  O   UNL     1      10.177  -3.563  24.135  0.00  0.00    -0.274 OA
ATOM      4  N   UNL     1       8.677  -4.808  25.241  0.00  0.00    -0.256 N 
ATOM      5  H   UNL     1       9.475  -5.246  25.680  0.00  0.00    +0.157 HD
ATOM      6  C   UNL     1       7.489  -5.006  25.891  0.00  0.00    +0.219 C 
ATOM      7  O   UNL     1       7.416  -5.736  26.876  0.00  0.00    -0.275 OA
ATOM      8  C   UNL     1       6.285  -4.306  25.323  0.00  0.00    +0.097 C 
ATOM      9  C   UNL     1       6.680  -2.986  24.683  0.00  0.00    +0.030 C 
ENDROOT
BRANCH   1  10
ATOM     10  C   UNL     1       8.196  -1.752  23.016  0.00  0.00    -0.032 A 
ATOM     11  C   UNL     1       7.771  -0.556  23.625  0.00  0.00    +0.006 A 
ATOM     12  C   UNL     1       8.203   0.696  23.164  0.00  0.00    +0.023 A 
ATOM     13  C   UNL     1       9.107   0.796  22.109  0.00  0.00    +0.025 A 
ATOM     14  C   UNL     1       9.450  -0.369  21.431  0.00  0.00    +0.023 A 
ATOM     15  C   UNL     1       9.020  -1.622  21.885  0.00  0.00    +0.006 A 
BRANCH  13  16
ATOM     16  N   UNL     1       9.479   2.045  21.601  0.00  0.00    -0.358 N 
ATOM     17  H   UNL     1       8.762   2.475  21.023  0.00  0.00    +0.142 HD
ATOM     18  H   UNL     1       9.827   2.682  22.311  0.00  0.00    +0.142 HD
ENDBRANCH  13  16
ENDBRANCH   1  10
BRANCH   1  20
ATOM     19  C   UNL     1       6.094  -3.731  21.738  0.00  0.00    +0.005 C 
ATOM     20  C   UNL     1       7.384  -4.098  22.464  0.00  0.00    +0.017 C 
ENDBRANCH   1  20
TORSDOF 3
ENDMDL
MODEL 2
REMARK VINA RESULT:      -6.1      1.436      1.832
REMARK  Name = 
REMARK  4 active torsions:
REMARK  status: ('A' for Active; 'I' for Inactive)
REMARK    1  A    between atoms: C_1  and  C_2
REMARK    2  A    between atoms: C_2  and  C_3
REMARK    3  A    between atoms: C_3  and  C_11
REMARK    4  A    between atoms: C_14  and  N_15
REMARK                            x       y       z     vdW  Elec       q    Type
REMARK                         _______ _______ _______ _____ _____    ______ ____
ROOT
ATOM      1  C   UNL     1       7.730  -3.798  24.815  0.00  0.00    +0.072 C 
ATOM      2  C   UNL     1       8.752  -4.854  25.309  0.00  0.00    +0.230 C 
ATOM      3  O   UNL     1       9.873  -5.024  24.833  0.00  0.00    -0.274 OA
ATOM      4  N   UNL     1       8.331  -5.701  26.313  0.00  0.00    -0.256 N 
ATOM      5  H   UNL     1       9.013  -6.391  26.595  0.00  0.00    +0.157 HD
ATOM      6  C   UNL     1       7.325  -5.492  27.216  0.00  0.00    +0.219 C 
ATOM      7  O   UNL     1       7.234  -6.170  28.237  0.00  0.00    -0.275 OA
ATOM      8  C   UNL     1       6.330  -4.416  26.880  0.00  0.00    +0.097 C 
ATOM      9  C   UNL     1       6.989  -3.299  26.088  0.00  0.00    +0.030 C 
ENDROOT
BRANCH   1  10
ATOM     10  C   UNL     1       8.415  -2.629  24.060  0.00  0.00    -0.032 A 
ATOM     11  C   UNL     1       8.494  -2.631  22.655  0.00  0.00    +0.006 A 
ATOM     12  C   UNL     1       9.011  -1.536  21.947  0.00  0.00    +0.023 A 
ATOM     13  C   UNL     1       9.424  -0.385  22.614  0.00  0.00    +0.025 A 
ATOM     14  C   UNL     1       9.452  -0.411  24.004  0.00  0.00    +0.023 A 
ATOM     15  C   UNL     1       8.940  -1.502  24.716  0.00  0.00    +0.006 A 
BRANCH  13  16
ATOM     16  N   UNL     1      10.009   0.676  21.915  0.00  0.00    -0.358 N 
ATOM     17  H   UNL     1       9.937   1.566  22.399  0.00  0.00    +0.142 HD
ATOM     18  H   UNL     1      10.958   0.485  21.610  0.00  0.00    +0.142 HD
ENDBRANCH  13  16
ENDBRANCH   1  10
BRANCH   1  20
ATOM     19  C   UNL     1       5.453  -3.829  23.540  0.00  0.00    +0.005 C 
ATOM     20  C   UNL     1       6.762  -4.550  23.843  0.00  0.00    +0.017 C 
ENDBRANCH   1  20
TORSDOF 3
ENDMDL
MODEL 3
REMARK VINA RESULT:      -6.0      2.633      3.511
REMARK  Name = 
REMARK  4 active torsions:
REMARK  status: ('A' for Active; 'I' for Inactive)
REMARK    1  A    between atoms: C_1  and  C_2
REMARK    2  A    between atoms: C_2  and  C_3
REMARK    3  A    between atoms: C_3  and  C_11
REMARK    4  A    between atoms: C_14  and  N_15
REMARK                            x       y       z     vdW  Elec       q    Type
REMARK                         _______ _______ _______ _____ _____    ______ ____
ROOT
ATOM      1  C   UNL     1       8.031  -1.493  23.459  0.00  0.00    +0.072 C 
ATOM      2  C   UNL     1       6.536  -1.166  23.709  0.00  0.00    +0.230 C 
ATOM      3  O   UNL     1       6.116  -0.110  24.177  0.00  0.00    -0.274 OA
ATOM      4  N   UNL     1       5.630  -2.171  23.443  0.00  0.00    -0.256 N 
ATOM      5  H   UNL     1       4.667  -1.933  23.637  0.00  0.00    +0.157 HD
ATOM      6  C   UNL     1       5.793  -3.247  22.612  0.00  0.00    +0.219 C 
ATOM      7  O   UNL     1       4.831  -3.905  22.225  0.00  0.00    -0.275 OA
ATOM      8  C   UNL     1       7.205  -3.591  22.226  0.00  0.00    +0.097 C 
ATOM      9  C   UNL     1       8.066  -2.342  22.156  0.00  0.00    +0.030 C 
ENDROOT
BRANCH   1  10
ATOM     10  C   UNL     1       8.897  -0.212  23.329  0.00  0.00    -0.032 A 
ATOM     11  C   UNL     1       9.115   0.381  22.072  0.00  0.00    +0.006 A 
ATOM     12  C   UNL     1       9.801   1.596  21.943  0.00  0.00    +0.023 A 
ATOM     13  C   UNL     1      10.254   2.284  23.066  0.00  0.00    +0.025 A 
ATOM     14  C   UNL     1      10.141   1.658  24.303  0.00  0.00    +0.023 A 
ATOM     15  C   UNL     1       9.459   0.443  24.438  0.00  0.00    +0.006 A 
BRANCH  13  16
ATOM     16  N   UNL     1      11.004   3.457  22.934  0.00  0.00    -0.358 N 
ATOM     17  H   UNL     1      10.809   3.966  22.076  0.00  0.00    +0.142 HD
ATOM     18  H   UNL     1      10.961   4.059  23.751  0.00  0.00    +0.142 HD
ENDBRANCH  13  16
ENDBRANCH   1  10
BRANCH   1  20
ATOM     19  C   UNL     1       9.713  -3.224  24.454  0.00  0.00    +0.005 C 
ATOM     20  C   UNL     1       8.509  -2.321  24.698  0.00  0.00    +0.017 C 
ENDBRANCH   1  20
TORSDOF 3
ENDMDL
MODEL 4
REMARK VINA RESULT:      -5.9      2.654      5.900
REMARK  Name = 
REMARK  4 active torsions:
REMARK  status: ('A' for Active; 'I' for Inactive)
REMARK    1  A    between atoms: C_1  and  C_2
REMARK    2  A    between atoms: C_2  and  C_3
REMARK    3  A    between atoms: C_3  and  C_11
REMARK    4  A    between atoms: C_14  and  N_15
REMARK                            x       y       z     vdW  Elec       q    Type
REMARK                         _______ _______ _______ _____ _____    ______ ____
ROOT
ATOM      1  C   UNL     1       9.490  -0.834  24.047  0.00  0.00    +0.072 C 
ATOM      2  C   UNL     1       8.262   0.004  23.607  0.00  0.00    +0.230 C 
ATOM      3  O   UNL     1       7.128  -0.443  23.443  0.00  0.00    -0.274 OA
ATOM      4  N   UNL     1       8.490   1.333  23.317  0.00  0.00    -0.256 N 
ATOM      5  H   UNL     1       7.673   1.844  23.012  0.00  0.00    +0.157 HD
ATOM      6  C   UNL     1       9.524   2.118  23.750  0.00  0.00    +0.219 C 
ATOM      7  O   UNL     1       9.469   3.343  23.676  0.00  0.00    -0.275 OA
ATOM      8  C   UNL     1      10.731   1.403  24.292  0.00  0.00    +0.097 C 
ATOM      9  C   UNL     1      10.332   0.100  24.963  0.00  0.00    +0.030 C 
ENDROOT
BRANCH   1  10
ATOM     10  C   UNL     1       9.077  -2.134  24.785  0.00  0.00    -0.032 A 
ATOM     11  C   UNL     1       9.464  -3.393  24.290  0.00  0.00    +0.006 A 
ATOM     12  C   UNL     1       9.196  -4.574  24.997  0.00  0.00    +0.023 A 
ATOM     13  C   UNL     1       8.573  -4.535  26.243  0.00  0.00    +0.025 A 
ATOM     14  C   UNL     1       8.090  -3.311  26.692  0.00  0.00    +0.023 A 
ATOM     15  C   UNL     1       8.352  -2.129  25.990  0.00  0.00    +0.006 A 
BRANCH  13  16
ATOM     16  N   UNL     1       8.238  -5.717  26.913  0.00  0.00    -0.358 N 
ATOM     17  H   UNL     1       7.269  -5.993  26.782  0.00  0.00    +0.142 HD
ATOM     18  H   UNL     1       8.880  -6.481  26.728  0.00  0.00    +0.142 HD
ENDBRANCH  13  16
ENDBRANCH   1  10
BRANCH   1  20
ATOM     19  C   UNL     1       9.449  -1.083  21.449  0.00  0.00    +0.005 C 
ATOM     20  C   UNL     1      10.260  -1.200  22.735  0.00  0.00    +0.017 C 
ENDBRANCH   1  20
TORSDOF 3
ENDMDL
MODEL 5
REMARK VINA RESULT:      -5.9      1.638      2.137
REMARK  Name = 
REMARK  4 active torsions:
REMARK  status: ('A' for Active; 'I' for Inactive)
REMARK    1  A    between atoms: C_1  and  C_2
REMARK    2  A    between atoms: C_2  and  C_3
REMARK    3  A    between atoms: C_3  and  C_11
REMARK    4  A    between atoms: C_14  and  N_15
REMARK                            x       y       z     vdW  Elec       q    Type
REMARK                         _______ _______ _______ _____ _____    ______ ____
ROOT
ATOM      1  C   UNL     1       8.479  -1.795  24.542  0.00  0.00    +0.072 C 
ATOM      2  C   UNL     1       9.408  -3.034  24.474  0.00  0.00    +0.230 C 
ATOM      3  O   UNL     1      10.375  -3.148  23.723  0.00  0.00    -0.274 OA
ATOM      4  N   UNL     1       9.070  -4.106  25.273  0.00  0.00    -0.256 N 
ATOM      5  H   UNL     1       9.683  -4.906  25.188  0.00  0.00    +0.157 HD
ATOM      6  C   UNL     1       8.303  -4.096  26.407  0.00  0.00    +0.219 C 
ATOM      7  O   UNL     1       8.314  -5.041  27.192  0.00  0.00    -0.275 OA
ATOM      8  C   UNL     1       7.434  -2.888  26.621  0.00  0.00    +0.097 C 
ATOM      9  C   UNL     1       8.085  -1.644  26.039  0.00  0.00    +0.030 C 
ENDROOT
BRANCH   1  10
ATOM     10  C   UNL     1       9.169  -0.515  24.003  0.00  0.00    -0.032 A 
ATOM     11  C   UNL     1       9.079  -0.171  22.641  0.00  0.00    +0.006 A 
ATOM     12  C   UNL     1       9.603   1.035  22.153  0.00  0.00    +0.023 A 
ATOM     13  C   UNL     1      10.193   1.958  23.013  0.00  0.00    +0.025 A 
ATOM     14  C   UNL     1      10.385   1.584  24.339  0.00  0.00    +0.023 A 
ATOM     15  C   UNL     1       9.867   0.380  24.832  0.00  0.00    +0.006 A 
BRANCH  13  16
ATOM     16  N   UNL     1      10.782   3.125  22.515  0.00  0.00    -0.358 N 
ATOM     17  H   UNL     1      10.343   3.467  21.665  0.00  0.00    +0.142 HD
ATOM     18  H   UNL     1      10.881   3.856  23.213  0.00  0.00    +0.142 HD
ENDBRANCH  13  16
ENDBRANCH   1  10
BRANCH   1  20
ATOM     19  C   UNL     1       5.973  -1.342  23.971  0.00  0.00    +0.005 C 
ATOM     20  C   UNL     1       7.237  -2.132  23.652  0.00  0.00    +0.017 C 
ENDBRANCH   1  20
TORSDOF 3
ENDMDL
MODEL 6
REMARK VINA RESULT:      -5.8      2.538      5.011
REMARK  Name = 
REMARK  4 active torsions:
REMARK  status: ('A' for Active; 'I' for Inactive)
REMARK    1  A    between atoms: C_1  and  C_2
REMARK    2  A    between atoms: C_2  and  C_3
REMARK    3  A    between atoms: C_3  and  C_11
REMARK    4  A    between atoms: C_14  and  N_15
REMARK                            x       y       z     vdW  Elec       q    Type
REMARK                         _______ _______ _______ _____ _____    ______ ____
ROOT
ATOM      1  C   UNL     1       8.359  -1.871  24.192  0.00  0.00    +0.072 C 
ATOM      2  C   UNL     1       9.808  -1.658  23.684  0.00  0.00    +0.230 C 
ATOM      3  O   UNL     1      10.483  -2.509  23.108  0.00  0.00    -0.274 OA
ATOM      4  N   UNL     1      10.391  -0.440  23.966  0.00  0.00    -0.256 N 
ATOM      5  H   UNL     1      11.343  -0.343  23.641  0.00  0.00    +0.157 HD
ATOM      6  C   UNL     1       9.763   0.742  24.250  0.00  0.00    +0.219 C 
ATOM      7  O   UNL     1      10.364   1.812  24.192  0.00  0.00    -0.275 OA
ATOM      8  C   UNL     1       8.319   0.656  24.660  0.00  0.00    +0.097 C 
ATOM      9  C   UNL     1       7.632  -0.513  23.975  0.00  0.00    +0.030 C 
ENDROOT
BRANCH   1  10
ATOM     10  C   UNL     1       7.642  -3.027  23.447  0.00  0.00    -0.032 A 
ATOM     11  C   UNL     1       6.658  -2.755  22.478  0.00  0.00    +0.006 A 
ATOM     12  C   UNL     1       6.075  -3.777  21.717  0.00  0.00    +0.023 A 
ATOM     13  C   UNL     1       6.485  -5.101  21.865  0.00  0.00    +0.025 A 
ATOM     14  C   UNL     1       7.376  -5.397  22.891  0.00  0.00    +0.023 A 
ATOM     15  C   UNL     1       7.959  -4.380  23.656  0.00  0.00    +0.006 A 
BRANCH  13  16
ATOM     16  N   UNL     1       5.851  -6.129  21.160  0.00  0.00    -0.358 N 
ATOM     17  H   UNL     1       5.518  -6.881  21.757  0.00  0.00    +0.142 HD
ATOM     18  H   UNL     1       5.130  -5.799  20.526  0.00  0.00    +0.142 HD
ENDBRANCH  13  16
ENDBRANCH   1  10
BRANCH   1  20
ATOM     19  C   UNL     1       7.158  -2.283  26.473  0.00  0.00    +0.005 C 
ATOM     20  C   UNL     1       8.478  -2.224  25.711  0.00  0.00    +0.017 C 
ENDBRANCH   1  20
TORSDOF 3
ENDMDL
MODEL 7
REMARK VINA RESULT:      -5.7      2.724      6.134
REMARK  Name = 
REMARK  4 active torsions:
REMARK  status: ('A' for Active; 'I' for Inactive)
REMARK    1  A    between atoms: C_1  and  C_2
REMARK    2  A    between atoms: C_2  and  C_3
REMARK    3  A    between atoms: C_3  and  C_11
REMARK    4  A    between atoms: C_14  and  N_15
REMARK                            x       y       z     vdW  Elec       q    Type
REMARK                         _______ _______ _______ _____ _____    ______ ____
ROOT
ATOM      1  C   UNL     1       6.518  -3.909  23.897  0.00  0.00    +0.072 C 
ATOM      2  C   UNL     1       5.668  -2.616  23.996  0.00  0.00    +0.230 C 
ATOM      3  O   UNL     1       4.601  -2.521  24.600  0.00  0.00    -0.274 OA
ATOM      4  N   UNL     1       6.122  -1.520  23.293  0.00  0.00    -0.256 N 
ATOM      5  H   UNL     1       5.533  -0.701  23.361  0.00  0.00    +0.157 HD
ATOM      6  C   UNL     1       7.399  -1.268  22.870  0.00  0.00    +0.219 C 
ATOM      7  O   UNL     1       7.744  -0.142  22.521  0.00  0.00    -0.275 OA
ATOM      8  C   UNL     1       8.339  -2.441  22.830  0.00  0.00    +0.097 C 
ATOM      9  C   UNL     1       8.001  -3.441  23.923  0.00  0.00    +0.030 C 
ENDROOT
BRANCH   1  10
ATOM     10  C   UNL     1       6.213  -4.900  25.049  0.00  0.00    -0.032 A 
ATOM     11  C   UNL     1       6.928  -4.836  26.259  0.00  0.00    +0.006 A 
ATOM     12  C   UNL     1       6.597  -5.650  27.352  0.00  0.00    +0.023 A 
ATOM     13  C   UNL     1       5.512  -6.522  27.291  0.00  0.00    +0.025 A 
ATOM     14  C   UNL     1       4.865  -6.673  26.069  0.00  0.00    +0.023 A 
ATOM     15  C   UNL     1       5.194  -5.866  24.973  0.00  0.00    +0.006 A 
BRANCH  13  16
ATOM     16  N   UNL     1       5.228  -7.387  28.353  0.00  0.00    -0.358 N 
ATOM     17  H   UNL     1       6.011  -7.519  28.986  0.00  0.00    +0.142 HD
ATOM     18  H   UNL     1       4.374  -7.149  28.849  0.00  0.00    +0.142 HD
ENDBRANCH  13  16
ENDBRANCH   1  10
BRANCH   1  20
ATOM     19  C   UNL     1       7.100  -5.660  22.051  0.00  0.00    +0.005 C 
ATOM     20  C   UNL     1       6.147  -4.569  22.528  0.00  0.00    +0.017 C 
ENDBRANCH   1  20
TORSDOF 3
ENDMDL
MODEL 8
REMARK VINA RESULT:      -5.6      2.206      5.713
REMARK  Name = 
REMARK  4 active torsions:
REMARK  status: ('A' for Active; 'I' for Inactive)
REMARK    1  A    between atoms: C_1  and  C_2
REMARK    2  A    between atoms: C_2  and  C_3
REMARK    3  A    between atoms: C_3  and  C_11
REMARK    4  A    between atoms: C_14  and  N_15
REMARK                            x       y       z     vdW  Elec       q    Type
REMARK                         _______ _______ _______ _____ _____    ______ ____
ROOT
ATOM      1  C   UNL     1       8.276  -2.415  24.745  0.00  0.00    +0.072 C 
ATOM      2  C   UNL     1       9.590  -2.793  24.015  0.00  0.00    +0.230 C 
ATOM      3  O   UNL     1      10.241  -3.815  24.221  0.00  0.00    -0.274 OA
ATOM      4  N   UNL     1      10.087  -1.871  23.117  0.00  0.00    -0.256 N 
ATOM      5  H   UNL     1      10.956  -2.138  22.676  0.00  0.00    +0.157 HD
ATOM      6  C   UNL     1       9.400  -0.880  22.469  0.00  0.00    +0.219 C 
ATOM      7  O   UNL     1       9.872  -0.318  21.484  0.00  0.00    -0.275 OA
ATOM      8  C   UNL     1       8.061  -0.503  23.041  0.00  0.00    +0.097 C 
ATOM      9  C   UNL     1       7.390  -1.706  23.681  0.00  0.00    +0.030 C 
ENDROOT
BRANCH   1  10
ATOM     10  C   UNL     1       7.563  -3.655  25.346  0.00  0.00    -0.032 A 
ATOM     11  C   UNL     1       7.996  -4.212  26.563  0.00  0.00    +0.006 A 
ATOM     12  C   UNL     1       7.302  -5.263  27.178  0.00  0.00    +0.023 A 
ATOM     13  C   UNL     1       6.126  -5.764  26.623  0.00  0.00    +0.025 A 
ATOM     14  C   UNL     1       5.746  -5.297  25.369  0.00  0.00    +0.023 A 
ATOM     15  C   UNL     1       6.438  -4.249  24.749  0.00  0.00    +0.006 A 
BRANCH  13  16
ATOM     16  N   UNL     1       5.474  -6.861  27.196  0.00  0.00    -0.358 N 
ATOM     17  H   UNL     1       5.301  -7.616  26.537  0.00  0.00    +0.142 HD
ATOM     18  H   UNL     1       5.916  -7.193  28.047  0.00  0.00    +0.142 HD
ENDBRANCH  13  16
ENDBRANCH   1  10
BRANCH   1  20
ATOM     19  C   UNL     1       7.526  -0.723  26.585  0.00  0.00    +0.005 C 
ATOM     20  C   UNL     1       8.683  -1.439  25.898  0.00  0.00    +0.017 C 
ENDBRANCH   1  20
TORSDOF 3
ENDMDL
MODEL 9
REMARK VINA RESULT:      -5.5      2.308      5.711
REMARK  Name = 
REMARK  4 active torsions:
REMARK  status: ('A' for Active; 'I' for Inactive)
REMARK    1  A    between atoms: C_1  and  C_2
REMARK    2  A    between atoms: C_2  and  C_3
REMARK    3  A    between atoms: C_3  and  C_11
REMARK    4  A    between atoms: C_14  and  N_15
REMARK                            x       y       z     vdW  Elec       q    Type
REMARK                         _______ _______ _______ _____ _____    ______ ____
ROOT
ATOM      1  C   UNL     1       8.326  -1.152  23.530  0.00  0.00    +0.072 C 
ATOM      2  C   UNL     1       8.971   0.002  24.340  0.00  0.00    +0.230 C 
ATOM      3  O   UNL     1       9.033   0.051  25.566  0.00  0.00    -0.274 OA
ATOM      4  N   UNL     1       9.446   1.076  23.616  0.00  0.00    -0.256 N 
ATOM      5  H   UNL     1       9.839   1.821  24.176  0.00  0.00    +0.157 HD
ATOM      6  C   UNL     1       9.812   1.101  22.298  0.00  0.00    +0.219 C 
ATOM      7  O   UNL     1      10.491   2.018  21.842  0.00  0.00    -0.275 OA
ATOM      8  C   UNL     1       9.319  -0.032  21.440  0.00  0.00    +0.097 C 
ATOM      9  C   UNL     1       9.199  -1.311  22.252  0.00  0.00    +0.030 C 
ENDROOT
BRANCH   1  10
ATOM     10  C   UNL     1       8.261  -2.472  24.342  0.00  0.00    -0.032 A 
ATOM     11  C   UNL     1       9.389  -3.305  24.449  0.00  0.00    +0.006 A 
ATOM     12  C   UNL     1       9.386  -4.445  25.265  0.00  0.00    +0.023 A 
ATOM     13  C   UNL     1       8.272  -4.767  26.038  0.00  0.00    +0.025 A 
ATOM     14  C   UNL     1       7.116  -4.015  25.860  0.00  0.00    +0.023 A 
ATOM     15  C   UNL     1       7.112  -2.878  25.044  0.00  0.00    +0.006 A 
BRANCH  13  16
ATOM     16  N   UNL     1       8.241  -5.944  26.794  0.00  0.00    -0.358 N 
ATOM     17  H   UNL     1       8.612  -5.830  27.732  0.00  0.00    +0.142 HD
ATOM     18  H   UNL     1       7.333  -6.398  26.796  0.00  0.00    +0.142 HD
ENDBRANCH  13  16
ENDBRANCH   1  10
BRANCH   1  20
ATOM     19  C   UNL     1       6.306   0.404  24.088  0.00  0.00    +0.005 C 
ATOM     20  C   UNL     1       6.876  -0.682  23.181  0.00  0.00    +0.017 C 
ENDBRANCH   1  20
TORSDOF 3
ENDMDL
