MODEL 1
REMARK VINA RESULT:      -7.3      0.000      0.000
REMARK  Name = 
REMARK  9 active torsions:
REMARK  status: ('A' for Active; 'I' for Inactive)
REMARK    1  A    between atoms: C_1  and  N_2
REMARK    2  A    between atoms: N_2  and  C_3
REMARK    3  A    between atoms: N_2  and  C_4
REMARK    4  A    between atoms: C_4  and  C_5
REMARK    5  A    between atoms: C_6  and  C_7
REMARK    6  A    between atoms: N_9  and  C_10
REMARK    7  A    between atoms: C_11  and  O_12
REMARK    8  A    between atoms: O_12  and  C_13
REMARK    9  A    between atoms: N_25  and  C_26
REMARK                            x       y       z     vdW  Elec       q    Type
REMARK                         _______ _______ _______ _____ _____    ______ ____
ROOT
ATOM      1  C   UNL     1       8.039  -2.318  22.894  0.00  0.00    +0.077 A 
ATOM      2  C   UNL     1       7.752  -0.978  22.610  0.00  0.00    +0.040 A 
ATOM      3  C   UNL     1       8.522   0.071  23.187  0.00  0.00    +0.042 A 
ATOM      4  C   UNL     1       9.572  -0.250  24.056  0.00  0.00    +0.080 A 
ATOM      5  N   UNL     1      10.332   0.669  24.658  0.00  0.00    -0.235 NA
ATOM      6  C   UNL     1      10.046   1.947  24.404  0.00  0.00    +0.223 A 
ATOM      7  N   UNL     1       9.071   2.385  23.608  0.00  0.00    -0.220 NA
ATOM      8  C   UNL     1       9.849  -1.583  24.305  0.00  0.00    +0.076 A 
ATOM      9  C   UNL     1       8.305   1.451  23.011  0.00  0.00    +0.134 A 
ATOM     10  N   UNL     1       7.262   1.899  22.161  0.00  0.00    -0.299 N 
ATOM     11  H   UNL     1       7.501   1.689  21.198  0.00  0.00    +0.154 HD
ATOM     12  C   UNL     1       9.133  -2.625  23.709  0.00  0.00    +0.144 A 
ENDROOT
BRANCH  10  13
ATOM     13  C   UNL     1       6.547   3.111  22.308  0.00  0.00    +0.034 A 
ATOM     14  C   UNL     1       5.214   3.091  22.748  0.00  0.00    +0.026 A 
ATOM     15  C   UNL     1       4.530   4.283  23.008  0.00  0.00    +0.041 A 
ATOM     16  C   UNL     1       5.181   5.503  22.852  0.00  0.00    +0.142 A 
ATOM     17  F   UNL     1       4.513   6.632  23.132  0.00  0.00    -0.204 F 
ATOM     18  C   UNL     1       6.505   5.545  22.433  0.00  0.00    +0.078 A 
ATOM     19 CL   UNL     1       7.329   7.046  22.261  0.00  0.00    -0.081 Cl
ATOM     20  C   UNL     1       7.185   4.356  22.171  0.00  0.00    +0.046 A 
ENDBRANCH  10  13
BRANCH   1  22
ATOM     21  C   UNL     1       5.932  -3.608  22.705  0.00  0.00    +0.241 C 
ATOM     22  N   UNL     1       7.226  -3.322  22.345  0.00  0.00    -0.279 N 
ATOM     23  H   UNL     1       7.348  -3.520  21.357  0.00  0.00    +0.155 HD
ATOM     24  O   UNL     1       5.255  -4.336  21.981  0.00  0.00    -0.271 OA
BRANCH  21  26
ATOM     25  C   UNL     1       4.744  -3.734  24.854  0.00  0.00    -0.007 C 
ATOM     26  C   UNL     1       5.371  -2.980  23.933  0.00  0.00    +0.064 C 
BRANCH  25  27
ATOM     27  C   UNL     1       3.954  -3.206  26.025  0.00  0.00    +0.111 C 
BRANCH  27  29
ATOM     28  C   UNL     1       1.742  -3.713  25.153  0.00  0.00    +0.104 C 
ATOM     29  N   UNL     1       2.626  -2.667  25.686  0.00  0.00    -0.305 NA
ATOM     30  C   UNL     1       2.006  -2.091  26.884  0.00  0.00    +0.104 C 
ENDBRANCH  27  29
ENDBRANCH  25  27
ENDBRANCH  21  26
ENDBRANCH   1  22
BRANCH  12  31
ATOM     31  O   UNL     1       9.601  -3.863  24.046  0.00  0.00    -0.485 OA
BRANCH  31  32
ATOM     32  C   UNL     1       9.178  -4.437  25.276  0.00  0.00    +0.201 C 
ATOM     33  C   UNL     1       8.227  -5.601  24.996  0.00  0.00    +0.204 C 
ATOM     34  O   UNL     1       7.400  -5.762  26.161  0.00  0.00    -0.376 OA
ATOM     35  C   UNL     1       7.650  -4.645  27.025  0.00  0.00    +0.163 C 
ATOM     36  C   UNL     1       8.284  -3.582  26.156  0.00  0.00    +0.075 C 
ENDBRANCH  31  32
ENDBRANCH  12  31
TORSDOF 7
ENDMDL
MODEL 2
REMARK VINA RESULT:      -7.2      2.668      3.452
REMARK  Name = 
REMARK  9 active torsions:
REMARK  status: ('A' for Active; 'I' for Inactive)
REMARK    1  A    between atoms: C_1  and  N_2
REMARK    2  A    between atoms: N_2  and  C_3
REMARK    3  A    between atoms: N_2  and  C_4
REMARK    4  A    between atoms: C_4  and  C_5
REMARK    5  A    between atoms: C_6  and  C_7
REMARK    6  A    between atoms: N_9  and  C_10
REMARK    7  A    between atoms: C_11  and  O_12
REMARK    8  A    between atoms: O_12  and  C_13
REMARK    9  A    between atoms: N_25  and  C_26
REMARK                            x       y       z     vdW  Elec       q    Type
REMARK                         _______ _______ _______ _____ _____    ______ ____
ROOT
ATOM      1  C   UNL     1       7.556  -3.965  24.451  0.00  0.00    +0.077 A 
ATOM      2  C   UNL     1       7.855  -2.624  24.184  0.00  0.00    +0.040 A 
ATOM      3  C   UNL     1       7.629  -1.618  25.165  0.00  0.00    +0.042 A 
ATOM      4  C   UNL     1       7.092  -1.981  26.406  0.00  0.00    +0.080 A 
ATOM      5  N   UNL     1       6.827  -1.101  27.376  0.00  0.00    -0.235 NA
ATOM      6  C   UNL     1       7.092   0.179  27.117  0.00  0.00    +0.223 A 
ATOM      7  N   UNL     1       7.593   0.657  25.977  0.00  0.00    -0.220 NA
ATOM      8  C   UNL     1       6.824  -3.316  26.653  0.00  0.00    +0.076 A 
ATOM      9  C   UNL     1       7.850  -0.237  25.002  0.00  0.00    +0.134 A 
ATOM     10  N   UNL     1       8.382   0.254  23.782  0.00  0.00    -0.299 N 
ATOM     11  H   UNL     1       9.350  -0.036  23.699  0.00  0.00    +0.154 HD
ATOM     12  C   UNL     1       7.085  -4.322  25.718  0.00  0.00    +0.144 A 
ENDROOT
BRANCH  10  13
ATOM     13  C   UNL     1       8.130   1.533  23.233  0.00  0.00    +0.034 A 
ATOM     14  C   UNL     1       7.034   1.728  22.380  0.00  0.00    +0.026 A 
ATOM     15  C   UNL     1       6.706   3.008  21.920  0.00  0.00    +0.041 A 
ATOM     16  C   UNL     1       7.458   4.105  22.328  0.00  0.00    +0.142 A 
ATOM     17  F   UNL     1       7.109   5.325  21.895  0.00  0.00    -0.204 F 
ATOM     18  C   UNL     1       8.539   3.936  23.185  0.00  0.00    +0.078 A 
ATOM     19 CL   UNL     1       9.463   5.287  23.718  0.00  0.00    -0.081 Cl
ATOM     20  C   UNL     1       8.867   2.659  23.640  0.00  0.00    +0.046 A 
ENDBRANCH  10  13
BRANCH   1  22
ATOM     21  C   UNL     1       6.830  -5.292  22.489  0.00  0.00    +0.241 C 
ATOM     22  N   UNL     1       7.747  -4.921  23.440  0.00  0.00    -0.279 N 
ATOM     23  H   UNL     1       8.681  -4.992  23.050  0.00  0.00    +0.155 HD
ATOM     24  O   UNL     1       7.205  -5.948  21.518  0.00  0.00    -0.271 OA
BRANCH  21  26
ATOM     25  C   UNL     1       4.535  -5.582  23.322  0.00  0.00    -0.007 C 
ATOM     26  C   UNL     1       5.420  -4.838  22.633  0.00  0.00    +0.064 C 
BRANCH  25  27
ATOM     27  C   UNL     1       3.046  -5.350  23.366  0.00  0.00    +0.111 C 
BRANCH  27  29
ATOM     28  C   UNL     1       2.196  -7.591  23.776  0.00  0.00    +0.104 C 
ATOM     29  N   UNL     1       2.229  -6.458  22.842  0.00  0.00    -0.305 NA
ATOM     30  C   UNL     1       0.856  -5.994  22.613  0.00  0.00    +0.104 C 
ENDBRANCH  27  29
ENDBRANCH  25  27
ENDBRANCH  21  26
ENDBRANCH   1  22
BRANCH  12  31
ATOM     31  O   UNL     1       6.799  -5.575  26.180  0.00  0.00    -0.485 OA
BRANCH  31  32
ATOM     32  C   UNL     1       5.835  -5.712  27.215  0.00  0.00    +0.201 C 
ATOM     33  C   UNL     1       6.479  -6.384  28.428  0.00  0.00    +0.204 C 
ATOM     34  O   UNL     1       5.423  -7.016  29.172  0.00  0.00    -0.376 OA
ATOM     35  C   UNL     1       4.232  -6.945  28.377  0.00  0.00    +0.163 C 
ATOM     36  C   UNL     1       4.694  -6.681  26.962  0.00  0.00    +0.075 C 
ENDBRANCH  31  32
ENDBRANCH  12  31
TORSDOF 7
ENDMDL
MODEL 3
REMARK VINA RESULT:      -7.2      1.210      1.542
REMARK  Name = 
REMARK  9 active torsions:
REMARK  status: ('A' for Active; 'I' for Inactive)
REMARK    1  A    between atoms: C_1  and  N_2
REMARK    2  A    between atoms: N_2  and  C_3
REMARK    3  A    between atoms: N_2  and  C_4
REMARK    4  A    between atoms: C_4  and  C_5
REMARK    5  A    between atoms: C_6  and  C_7
REMARK    6  A    between atoms: N_9  and  C_10
REMARK    7  A    between atoms: C_11  and  O_12
REMARK    8  A    between atoms: O_12  and  C_13
REMARK    9  A    between atoms: N_25  and  C_26
REMARK                            x       y       z     vdW  Elec       q    Type
REMARK                         _______ _______ _______ _____ _____    ______ ____
ROOT
ATOM      1  C   UNL     1       8.153  -1.897  22.747  0.00  0.00    +0.077 A 
ATOM      2  C   UNL     1       7.854  -0.547  22.523  0.00  0.00    +0.040 A 
ATOM      3  C   UNL     1       8.660   0.481  23.088  0.00  0.00    +0.042 A 
ATOM      4  C   UNL     1       9.758   0.131  23.883  0.00  0.00    +0.080 A 
ATOM      5  N   UNL     1      10.554   1.029  24.468  0.00  0.00    -0.235 NA
ATOM      6  C   UNL     1      10.259   2.315  24.273  0.00  0.00    +0.223 A 
ATOM      7  N   UNL     1       9.240   2.779  23.551  0.00  0.00    -0.220 NA
ATOM      8  C   UNL     1      10.045  -1.210  24.072  0.00  0.00    +0.076 A 
ATOM      9  C   UNL     1       8.437   1.866  22.970  0.00  0.00    +0.134 A 
ATOM     10  N   UNL     1       7.347   2.343  22.197  0.00  0.00    -0.299 N 
ATOM     11  H   UNL     1       7.528   2.164  21.216  0.00  0.00    +0.154 HD
ATOM     12  C   UNL     1       9.292  -2.231  23.486  0.00  0.00    +0.144 A 
ENDROOT
BRANCH  10  13
ATOM     13  C   UNL     1       6.645   3.550  22.426  0.00  0.00    +0.034 A 
ATOM     14  C   UNL     1       7.266   4.782  22.171  0.00  0.00    +0.026 A 
ATOM     15  C   UNL     1       6.550   5.979  22.283  0.00  0.00    +0.041 A 
ATOM     16  C   UNL     1       5.202   5.950  22.627  0.00  0.00    +0.142 A 
ATOM     17  F   UNL     1       4.530   7.108  22.703  0.00  0.00    -0.204 F 
ATOM     18  C   UNL     1       4.564   4.739  22.868  0.00  0.00    +0.078 A 
ATOM     19 CL   UNL     1       2.891   4.688  23.270  0.00  0.00    -0.081 Cl
ATOM     20  C   UNL     1       5.280   3.548  22.760  0.00  0.00    +0.046 A 
ENDBRANCH  10  13
BRANCH   1  22
ATOM     21  C   UNL     1       6.047  -3.199  22.661  0.00  0.00    +0.241 C 
ATOM     22  N   UNL     1       7.306  -2.881  22.214  0.00  0.00    -0.279 N 
ATOM     23  H   UNL     1       7.351  -3.029  21.212  0.00  0.00    +0.155 HD
ATOM     24  O   UNL     1       5.320  -3.898  21.957  0.00  0.00    -0.271 OA
BRANCH  21  26
ATOM     25  C   UNL     1       4.781  -3.363  24.763  0.00  0.00    -0.007 C 
ATOM     26  C   UNL     1       5.581  -2.639  23.959  0.00  0.00    +0.064 C 
BRANCH  25  27
ATOM     27  C   UNL     1       4.073  -2.845  25.989  0.00  0.00    +0.111 C 
BRANCH  27  29
ATOM     28  C   UNL     1       4.126  -5.211  26.545  0.00  0.00    +0.104 C 
ATOM     29  N   UNL     1       3.777  -3.862  27.012  0.00  0.00    -0.305 NA
ATOM     30  C   UNL     1       4.539  -3.573  28.232  0.00  0.00    +0.104 C 
ENDBRANCH  27  29
ENDBRANCH  25  27
ENDBRANCH  21  26
ENDBRANCH   1  22
BRANCH  12  31
ATOM     31  O   UNL     1       9.776  -3.480  23.754  0.00  0.00    -0.485 OA
BRANCH  31  32
ATOM     32  C   UNL     1       9.384  -4.112  24.966  0.00  0.00    +0.201 C 
ATOM     33  C   UNL     1       8.409  -5.248  24.657  0.00  0.00    +0.204 C 
ATOM     34  O   UNL     1       7.618  -5.460  25.840  0.00  0.00    -0.376 OA
ATOM     35  C   UNL     1       7.912  -4.393  26.752  0.00  0.00    +0.163 C 
ATOM     36  C   UNL     1       8.531  -3.294  25.919  0.00  0.00    +0.075 C 
ENDBRANCH  31  32
ENDBRANCH  12  31
TORSDOF 7
ENDMDL
MODEL 4
REMARK VINA RESULT:      -7.2      2.669      4.473
REMARK  Name = 
REMARK  9 active torsions:
REMARK  status: ('A' for Active; 'I' for Inactive)
REMARK    1  A    between atoms: C_1  and  N_2
REMARK    2  A    between atoms: N_2  and  C_3
REMARK    3  A    between atoms: N_2  and  C_4
REMARK    4  A    between atoms: C_4  and  C_5
REMARK    5  A    between atoms: C_6  and  C_7
REMARK    6  A    between atoms: N_9  and  C_10
REMARK    7  A    between atoms: C_11  and  O_12
REMARK    8  A    between atoms: O_12  and  C_13
REMARK    9  A    between atoms: N_25  and  C_26
REMARK                            x       y       z     vdW  Elec       q    Type
REMARK                         _______ _______ _______ _____ _____    ______ ____
ROOT
ATOM      1  C   UNL     1       5.493  -2.646  23.522  0.00  0.00    +0.077 A 
ATOM      2  C   UNL     1       6.467  -1.659  23.712  0.00  0.00    +0.040 A 
ATOM      3  C   UNL     1       6.557  -0.952  24.944  0.00  0.00    +0.042 A 
ATOM      4  C   UNL     1       5.650  -1.247  25.970  0.00  0.00    +0.080 A 
ATOM      5  N   UNL     1       5.648  -0.619  27.149  0.00  0.00    -0.235 NA
ATOM      6  C   UNL     1       6.562   0.336  27.325  0.00  0.00    +0.223 A 
ATOM      7  N   UNL     1       7.471   0.719  26.429  0.00  0.00    -0.220 NA
ATOM      8  C   UNL     1       4.709  -2.242  25.765  0.00  0.00    +0.076 A 
ATOM      9  C   UNL     1       7.461   0.086  25.240  0.00  0.00    +0.134 A 
ATOM     10  N   UNL     1       8.422   0.482  24.274  0.00  0.00    -0.299 N 
ATOM     11  H   UNL     1       9.110  -0.254  24.165  0.00  0.00    +0.154 HD
ATOM     12  C   UNL     1       4.639  -2.977  24.578  0.00  0.00    +0.144 A 
ENDROOT
BRANCH  10  13
ATOM     13  C   UNL     1       8.965   1.781  24.142  0.00  0.00    +0.034 A 
ATOM     14  C   UNL     1      10.343   1.948  23.935  0.00  0.00    +0.026 A 
ATOM     15  C   UNL     1      10.879   3.217  23.688  0.00  0.00    +0.041 A 
ATOM     16  C   UNL     1      10.038   4.324  23.626  0.00  0.00    +0.142 A 
ATOM     17  F   UNL     1      10.571   5.526  23.364  0.00  0.00    -0.204 F 
ATOM     18  C   UNL     1       8.669   4.179  23.814  0.00  0.00    +0.078 A 
ATOM     19 CL   UNL     1       7.615   5.536  23.714  0.00  0.00    -0.081 Cl
ATOM     20  C   UNL     1       8.136   2.914  24.062  0.00  0.00    +0.046 A 
ENDBRANCH  10  13
BRANCH   1  22
ATOM     21  C   UNL     1       6.268  -4.235  21.786  0.00  0.00    +0.241 C 
ATOM     22  N   UNL     1       5.405  -3.286  22.275  0.00  0.00    -0.279 N 
ATOM     23  H   UNL     1       4.472  -3.469  21.920  0.00  0.00    +0.155 HD
ATOM     24  O   UNL     1       5.940  -4.892  20.799  0.00  0.00    -0.271 OA
BRANCH  21  26
ATOM     25  C   UNL     1       7.575  -5.245  23.608  0.00  0.00    -0.007 C 
ATOM     26  C   UNL     1       7.550  -4.479  22.501  0.00  0.00    +0.064 C 
BRANCH  25  27
ATOM     27  C   UNL     1       8.751  -5.398  24.538  0.00  0.00    +0.111 C 
BRANCH  27  29
ATOM     28  C   UNL     1       8.614  -3.606  26.175  0.00  0.00    +0.104 C 
ATOM     29  N   UNL     1       8.481  -5.051  25.944  0.00  0.00    -0.305 NA
ATOM     30  C   UNL     1       7.120  -5.464  26.303  0.00  0.00    +0.104 C 
ENDBRANCH  27  29
ENDBRANCH  25  27
ENDBRANCH  21  26
ENDBRANCH   1  22
BRANCH  12  31
ATOM     31  O   UNL     1       3.676  -3.946  24.601  0.00  0.00    -0.485 OA
BRANCH  31  32
ATOM     32  C   UNL     1       4.044  -5.256  25.012  0.00  0.00    +0.201 C 
ATOM     33  C   UNL     1       3.926  -6.216  23.827  0.00  0.00    +0.204 C 
ATOM     34  O   UNL     1       3.728  -7.534  24.368  0.00  0.00    -0.376 OA
ATOM     35  C   UNL     1       3.511  -7.393  25.779  0.00  0.00    +0.163 C 
ATOM     36  C   UNL     1       3.119  -5.949  25.995  0.00  0.00    +0.075 C 
ENDBRANCH  31  32
ENDBRANCH  12  31
TORSDOF 7
ENDMDL
MODEL 5
REMARK VINA RESULT:      -7.1      2.719      3.671
REMARK  Name = 
REMARK  9 active torsions:
REMARK  status: ('A' for Active; 'I' for Inactive)
REMARK    1  A    between atoms: C_1  and  N_2
REMARK    2  A    between atoms: N_2  and  C_3
REMARK    3  A    between atoms: N_2  and  C_4
REMARK    4  A    between atoms: C_4  and  C_5
REMARK    5  A    between atoms: C_6  and  C_7
REMARK    6  A    between atoms: N_9  and  C_10
REMARK    7  A    between atoms: C_11  and  O_12
REMARK    8  A    between atoms: O_12  and  C_13
REMARK    9  A    between atoms: N_25  and  C_26
REMARK                            x       y       z     vdW  Elec       q    Type
REMARK                         _______ _______ _______ _____ _____    ______ ____
ROOT
ATOM      1  C   UNL     1       5.948  -2.204  23.994  0.00  0.00    +0.077 A 
ATOM      2  C   UNL     1       6.250  -0.876  23.670  0.00  0.00    +0.040 A 
ATOM      3  C   UNL     1       7.395  -0.558  22.888  0.00  0.00    +0.042 A 
ATOM      4  C   UNL     1       8.232  -1.592  22.450  0.00  0.00    +0.080 A 
ATOM      5  N   UNL     1       9.339  -1.384  21.731  0.00  0.00    -0.235 NA
ATOM      6  C   UNL     1       9.638  -0.118  21.439  0.00  0.00    +0.223 A 
ATOM      7  N   UNL     1       8.934   0.954  21.803  0.00  0.00    -0.220 NA
ATOM      8  C   UNL     1       7.902  -2.899  22.765  0.00  0.00    +0.076 A 
ATOM      9  C   UNL     1       7.824   0.735  22.534  0.00  0.00    +0.134 A 
ATOM     10  N   UNL     1       7.063   1.865  22.932  0.00  0.00    -0.299 N 
ATOM     11  H   UNL     1       6.191   1.879  22.416  0.00  0.00    +0.154 HD
ATOM     12  C   UNL     1       6.755  -3.230  23.492  0.00  0.00    +0.144 A 
ENDROOT
BRANCH  10  13
ATOM     13  C   UNL     1       7.583   3.155  23.189  0.00  0.00    +0.034 A 
ATOM     14  C   UNL     1       8.696   3.309  24.029  0.00  0.00    +0.026 A 
ATOM     15  C   UNL     1       9.291   4.564  24.202  0.00  0.00    +0.041 A 
ATOM     16  C   UNL     1       8.792   5.668  23.519  0.00  0.00    +0.142 A 
ATOM     17  F   UNL     1       9.394   6.855  23.681  0.00  0.00    -0.204 F 
ATOM     18  C   UNL     1       7.699   5.534  22.669  0.00  0.00    +0.078 A 
ATOM     19 CL   UNL     1       7.088   6.887  21.798  0.00  0.00    -0.081 Cl
ATOM     20  C   UNL     1       7.105   4.284  22.500  0.00  0.00    +0.046 A 
ENDBRANCH  10  13
BRANCH   1  22
ATOM     21  C   UNL     1       4.686  -2.109  26.124  0.00  0.00    +0.241 C 
ATOM     22  N   UNL     1       4.837  -2.473  24.808  0.00  0.00    -0.279 N 
ATOM     23  H   UNL     1       3.929  -2.474  24.357  0.00  0.00    +0.155 HD
ATOM     24  O   UNL     1       3.573  -2.184  26.643  0.00  0.00    -0.271 OA
BRANCH  21  26
ATOM     25  C   UNL     1       5.852  -0.327  27.352  0.00  0.00    -0.007 C 
ATOM     26  C   UNL     1       5.864  -1.581  26.864  0.00  0.00    +0.064 C 
BRANCH  25  27
ATOM     27  C   UNL     1       7.042   0.398  27.929  0.00  0.00    +0.111 C 
BRANCH  27  29
ATOM     28  C   UNL     1       7.577   1.662  29.936  0.00  0.00    +0.104 C 
ATOM     29  N   UNL     1       6.713   1.576  28.750  0.00  0.00    -0.305 NA
ATOM     30  C   UNL     1       6.882   2.796  27.953  0.00  0.00    +0.104 C 
ENDBRANCH  27  29
ENDBRANCH  25  27
ENDBRANCH  21  26
ENDBRANCH   1  22
BRANCH  12  31
ATOM     31  O   UNL     1       6.585  -4.577  23.647  0.00  0.00    -0.485 OA
BRANCH  31  32
ATOM     32  C   UNL     1       7.185  -5.210  24.770  0.00  0.00    +0.201 C 
ATOM     33  C   UNL     1       6.094  -5.767  25.685  0.00  0.00    +0.204 C 
ATOM     34  O   UNL     1       6.655  -5.856  27.006  0.00  0.00    -0.376 OA
ATOM     35  C   UNL     1       7.928  -5.196  26.980  0.00  0.00    +0.163 C 
ATOM     36  C   UNL     1       7.911  -4.311  25.754  0.00  0.00    +0.075 C 
ENDBRANCH  31  32
ENDBRANCH  12  31
TORSDOF 7
ENDMDL
MODEL 6
REMARK VINA RESULT:      -7.1      3.790      6.215
REMARK  Name = 
REMARK  9 active torsions:
REMARK  status: ('A' for Active; 'I' for Inactive)
REMARK    1  A    between atoms: C_1  and  N_2
REMARK    2  A    between atoms: N_2  and  C_3
REMARK    3  A    between atoms: N_2  and  C_4
REMARK    4  A    between atoms: C_4  and  C_5
REMARK    5  A    between atoms: C_6  and  C_7
REMARK    6  A    between atoms: N_9  and  C_10
REMARK    7  A    between atoms: C_11  and  O_12
REMARK    8  A    between atoms: O_12  and  C_13
REMARK    9  A    between atoms: N_25  and  C_26
REMARK                            x       y       z     vdW  Elec       q    Type
REMARK                         _______ _______ _______ _____ _____    ______ ____
ROOT
ATOM      1  C   UNL     1       5.267  -6.100  25.708  0.00  0.00    +0.077 A 
ATOM      2  C   UNL     1       5.843  -4.832  25.564  0.00  0.00    +0.040 A 
ATOM      3  C   UNL     1       5.805  -4.152  24.314  0.00  0.00    +0.042 A 
ATOM      4  C   UNL     1       5.191  -4.770  23.218  0.00  0.00    +0.080 A 
ATOM      5  N   UNL     1       5.127  -4.216  22.004  0.00  0.00    -0.235 NA
ATOM      6  C   UNL     1       5.693  -3.017  21.860  0.00  0.00    +0.223 A 
ATOM      7  N   UNL     1       6.316  -2.328  22.816  0.00  0.00    -0.220 NA
ATOM      8  C   UNL     1       4.611  -6.015  23.391  0.00  0.00    +0.076 A 
ATOM      9  C   UNL     1       6.381  -2.898  24.034  0.00  0.00    +0.134 A 
ATOM     10  N   UNL     1       7.041  -2.180  25.064  0.00  0.00    -0.299 N 
ATOM     11  H   UNL     1       6.357  -1.853  25.736  0.00  0.00    +0.154 HD
ATOM     12  C   UNL     1       4.599  -6.674  24.624  0.00  0.00    +0.144 A 
ENDROOT
BRANCH  10  13
ATOM     13  C   UNL     1       8.117  -1.279  24.877  0.00  0.00    +0.034 A 
ATOM     14  C   UNL     1       9.353  -1.750  24.410  0.00  0.00    +0.026 A 
ATOM     15  C   UNL     1      10.389  -0.858  24.111  0.00  0.00    +0.041 A 
ATOM     16  C   UNL     1      10.188   0.511  24.256  0.00  0.00    +0.142 A 
ATOM     17  F   UNL     1      11.187   1.348  23.939  0.00  0.00    -0.204 F 
ATOM     18  C   UNL     1       8.966   0.999  24.702  0.00  0.00    +0.078 A 
ATOM     19 CL   UNL     1       8.696   2.692  24.861  0.00  0.00    -0.081 Cl
ATOM     20  C   UNL     1       7.935   0.109  25.002  0.00  0.00    +0.046 A 
ENDBRANCH  10  13
BRANCH   1  22
ATOM     21  C   UNL     1       4.460  -6.703  27.972  0.00  0.00    +0.241 C 
ATOM     22  N   UNL     1       5.369  -6.758  26.944  0.00  0.00    -0.279 N 
ATOM     23  H   UNL     1       5.813  -7.670  26.941  0.00  0.00    +0.155 HD
ATOM     24  O   UNL     1       4.544  -7.517  28.891  0.00  0.00    -0.271 OA
BRANCH  21  26
ATOM     25  C   UNL     1       3.547  -4.467  28.435  0.00  0.00    -0.007 C 
ATOM     26  C   UNL     1       3.367  -5.695  27.913  0.00  0.00    +0.064 C 
BRANCH  25  27
ATOM     27  C   UNL     1       2.467  -3.434  28.630  0.00  0.00    +0.111 C 
BRANCH  27  29
ATOM     28  C   UNL     1       4.161  -2.038  27.585  0.00  0.00    +0.104 C 
ATOM     29  N   UNL     1       2.810  -2.080  28.161  0.00  0.00    -0.305 NA
ATOM     30  C   UNL     1       1.847  -1.651  27.140  0.00  0.00    +0.104 C 
ENDBRANCH  27  29
ENDBRANCH  25  27
ENDBRANCH  21  26
ENDBRANCH   1  22
BRANCH  12  31
ATOM     31  O   UNL     1       3.929  -7.865  24.592  0.00  0.00    -0.485 OA
BRANCH  31  32
ATOM     32  C   UNL     1       2.509  -7.841  24.523  0.00  0.00    +0.201 C 
ATOM     33  C   UNL     1       1.943  -9.070  25.236  0.00  0.00    +0.204 C 
ATOM     34  O   UNL     1       0.644  -9.325  24.672  0.00  0.00    -0.376 OA
ATOM     35  C   UNL     1       0.491  -8.465  23.535  0.00  0.00    +0.163 C 
ATOM     36  C   UNL     1       1.888  -8.032  23.151  0.00  0.00    +0.075 C 
ENDBRANCH  31  32
ENDBRANCH  12  31
TORSDOF 7
ENDMDL
MODEL 7
REMARK VINA RESULT:      -7.1      2.797      5.002
REMARK  Name = 
REMARK  9 active torsions:
REMARK  status: ('A' for Active; 'I' for Inactive)
REMARK    1  A    between atoms: C_1  and  N_2
REMARK    2  A    between atoms: N_2  and  C_3
REMARK    3  A    between atoms: N_2  and  C_4
REMARK    4  A    between atoms: C_4  and  C_5
REMARK    5  A    between atoms: C_6  and  C_7
REMARK    6  A    between atoms: N_9  and  C_10
REMARK    7  A    between atoms: C_11  and  O_12
REMARK    8  A    between atoms: O_12  and  C_13
REMARK    9  A    between atoms: N_25  and  C_26
REMARK                            x       y       z     vdW  Elec       q    Type
REMARK                         _______ _______ _______ _____ _____    ______ ____
ROOT
ATOM      1  C   UNL     1       7.249  -3.102  26.425  0.00  0.00    +0.077 A 
ATOM      2  C   UNL     1       7.548  -1.737  26.348  0.00  0.00    +0.040 A 
ATOM      3  C   UNL     1       6.513  -0.761  26.389  0.00  0.00    +0.042 A 
ATOM      4  C   UNL     1       5.181  -1.180  26.497  0.00  0.00    +0.080 A 
ATOM      5  N   UNL     1       4.147  -0.336  26.521  0.00  0.00    -0.235 NA
ATOM      6  C   UNL     1       4.428   0.964  26.427  0.00  0.00    +0.223 A 
ATOM      7  N   UNL     1       5.646   1.492  26.309  0.00  0.00    -0.220 NA
ATOM      8  C   UNL     1       4.913  -2.535  26.593  0.00  0.00    +0.076 A 
ATOM      9  C   UNL     1       6.683   0.632  26.278  0.00  0.00    +0.134 A 
ATOM     10  N   UNL     1       7.987   1.176  26.152  0.00  0.00    -0.299 N 
ATOM     11  H   UNL     1       8.484   1.061  27.028  0.00  0.00    +0.154 HD
ATOM     12  C   UNL     1       5.922  -3.503  26.602  0.00  0.00    +0.144 A 
ENDROOT
BRANCH  10  13
ATOM     13  C   UNL     1       8.314   2.376  25.476  0.00  0.00    +0.034 A 
ATOM     14  C   UNL     1       7.674   3.575  25.826  0.00  0.00    +0.026 A 
ATOM     15  C   UNL     1       8.067   4.788  25.248  0.00  0.00    +0.041 A 
ATOM     16  C   UNL     1       9.115   4.812  24.334  0.00  0.00    +0.142 A 
ATOM     17  F   UNL     1       9.490   5.990  23.813  0.00  0.00    -0.204 F 
ATOM     18  C   UNL     1       9.773   3.638  23.986  0.00  0.00    +0.078 A 
ATOM     19 CL   UNL     1      11.088   3.659  22.877  0.00  0.00    -0.081 Cl
ATOM     20  C   UNL     1       9.379   2.430  24.560  0.00  0.00    +0.046 A 
ENDBRANCH  10  13
BRANCH   1  22
ATOM     21  C   UNL     1       9.092  -4.256  25.236  0.00  0.00    +0.241 C 
ATOM     22  N   UNL     1       8.294  -4.036  26.332  0.00  0.00    -0.279 N 
ATOM     23  H   UNL     1       8.831  -4.207  27.175  0.00  0.00    +0.155 HD
ATOM     24  O   UNL     1      10.122  -4.916  25.368  0.00  0.00    -0.271 OA
BRANCH  21  26
ATOM     25  C   UNL     1       9.461  -2.647  23.413  0.00  0.00    -0.007 C 
ATOM     26  C   UNL     1       8.716  -3.638  23.935  0.00  0.00    +0.064 C 
BRANCH  25  27
ATOM     27  C   UNL     1       9.081  -1.800  22.226  0.00  0.00    +0.111 C 
BRANCH  27  29
ATOM     28  C   UNL     1       9.175   0.498  21.437  0.00  0.00    +0.104 C 
ATOM     29  N   UNL     1       8.780  -0.392  22.537  0.00  0.00    -0.305 NA
ATOM     30  C   UNL     1       7.341  -0.236  22.779  0.00  0.00    +0.104 C 
ENDBRANCH  27  29
ENDBRANCH  25  27
ENDBRANCH  21  26
ENDBRANCH   1  22
BRANCH  12  31
ATOM     31  O   UNL     1       5.448  -4.775  26.758  0.00  0.00    -0.485 OA
BRANCH  31  32
ATOM     32  C   UNL     1       4.748  -5.375  25.676  0.00  0.00    +0.201 C 
ATOM     33  C   UNL     1       4.509  -6.854  25.980  0.00  0.00    +0.204 C 
ATOM     34  O   UNL     1       4.357  -7.526  24.718  0.00  0.00    -0.376 OA
ATOM     35  C   UNL     1       4.697  -6.590  23.686  0.00  0.00    +0.163 C 
ATOM     36  C   UNL     1       5.500  -5.501  24.364  0.00  0.00    +0.075 C 
ENDBRANCH  31  32
ENDBRANCH  12  31
TORSDOF 7
ENDMDL
MODEL 8
REMARK VINA RESULT:      -7.0      4.964      7.989
REMARK  Name = 
REMARK  9 active torsions:
REMARK  status: ('A' for Active; 'I' for Inactive)
REMARK    1  A    between atoms: C_1  and  N_2
REMARK    2  A    between atoms: N_2  and  C_3
REMARK    3  A    between atoms: N_2  and  C_4
REMARK    4  A    between atoms: C_4  and  C_5
REMARK    5  A    between atoms: C_6  and  C_7
REMARK    6  A    between atoms: N_9  and  C_10
REMARK    7  A    between atoms: C_11  and  O_12
REMARK    8  A    between atoms: O_12  and  C_13
REMARK    9  A    between atoms: N_25  and  C_26
REMARK                            x       y       z     vdW  Elec       q    Type
REMARK                         _______ _______ _______ _____ _____    ______ ____
ROOT
ATOM      1  C   UNL     1       7.415  -1.081  23.479  0.00  0.00    +0.077 A 
ATOM      2  C   UNL     1       7.014  -1.901  24.541  0.00  0.00    +0.040 A 
ATOM      3  C   UNL     1       7.823  -2.993  24.964  0.00  0.00    +0.042 A 
ATOM      4  C   UNL     1       9.027  -3.251  24.298  0.00  0.00    +0.080 A 
ATOM      5  N   UNL     1       9.837  -4.265  24.613  0.00  0.00    -0.235 NA
ATOM      6  C   UNL     1       9.447  -5.060  25.610  0.00  0.00    +0.223 A 
ATOM      7  N   UNL     1       8.324  -4.931  26.316  0.00  0.00    -0.220 NA
ATOM      8  C   UNL     1       9.411  -2.414  23.264  0.00  0.00    +0.076 A 
ATOM      9  C   UNL     1       7.510  -3.909  25.986  0.00  0.00    +0.134 A 
ATOM     10  N   UNL     1       6.309  -3.758  26.726  0.00  0.00    -0.299 N 
ATOM     11  H   UNL     1       6.379  -2.936  27.315  0.00  0.00    +0.154 HD
ATOM     12  C   UNL     1       8.651  -1.309  22.869  0.00  0.00    +0.144 A 
ENDROOT
BRANCH  10  13
ATOM     13  C   UNL     1       5.572  -4.811  27.319  0.00  0.00    +0.034 A 
ATOM     14  C   UNL     1       5.722  -5.088  28.686  0.00  0.00    +0.026 A 
ATOM     15  C   UNL     1       4.918  -6.048  29.312  0.00  0.00    +0.041 A 
ATOM     16  C   UNL     1       3.946  -6.721  28.580  0.00  0.00    +0.142 A 
ATOM     17  F   UNL     1       3.170  -7.618  29.206  0.00  0.00    -0.204 F 
ATOM     18  C   UNL     1       3.770  -6.450  27.227  0.00  0.00    +0.078 A 
ATOM     19 CL   UNL     1       2.553  -7.256  26.316  0.00  0.00    -0.081 Cl
ATOM     20  C   UNL     1       4.573  -5.495  26.605  0.00  0.00    +0.046 A 
ENDBRANCH  10  13
BRANCH   1  22
ATOM     21  C   UNL     1       6.473   1.206  23.620  0.00  0.00    +0.241 C 
ATOM     22  N   UNL     1       6.566  -0.044  23.060  0.00  0.00    -0.279 N 
ATOM     23  H   UNL     1       6.382   0.022  22.065  0.00  0.00    +0.155 HD
ATOM     24  O   UNL     1       5.881   2.094  23.009  0.00  0.00    -0.271 OA
BRANCH  21  26
ATOM     25  C   UNL     1       6.422   1.503  26.061  0.00  0.00    -0.007 C 
ATOM     26  C   UNL     1       7.142   1.462  24.925  0.00  0.00    +0.064 C 
BRANCH  25  27
ATOM     27  C   UNL     1       6.933   1.956  27.404  0.00  0.00    +0.111 C 
BRANCH  27  29
ATOM     28  C   UNL     1       7.389   1.461  29.741  0.00  0.00    +0.104 C 
ATOM     29  N   UNL     1       6.848   0.948  28.474  0.00  0.00    -0.305 NA
ATOM     30  C   UNL     1       5.448   0.562  28.680  0.00  0.00    +0.104 C 
ENDBRANCH  27  29
ENDBRANCH  25  27
ENDBRANCH  21  26
ENDBRANCH   1  22
BRANCH  12  31
ATOM     31  O   UNL     1       9.234  -0.584  21.869  0.00  0.00    -0.485 OA
BRANCH  31  32
ATOM     32  C   UNL     1      10.113   0.475  22.224  0.00  0.00    +0.201 C 
ATOM     33  C   UNL     1      10.399   0.421  23.725  0.00  0.00    +0.204 C 
ATOM     34  O   UNL     1      10.767   1.750  24.134  0.00  0.00    -0.376 OA
ATOM     35  C   UNL     1      10.516   2.627  23.028  0.00  0.00    +0.163 C 
ATOM     36  C   UNL     1       9.561   1.885  22.119  0.00  0.00    +0.075 C 
ENDBRANCH  31  32
ENDBRANCH  12  31
TORSDOF 7
ENDMDL
MODEL 9
REMARK VINA RESULT:      -7.0      4.805      8.210
REMARK  Name = 
REMARK  9 active torsions:
REMARK  status: ('A' for Active; 'I' for Inactive)
REMARK    1  A    between atoms: C_1  and  N_2
REMARK    2  A    between atoms: N_2  and  C_3
REMARK    3  A    between atoms: N_2  and  C_4
REMARK    4  A    between atoms: C_4  and  C_5
REMARK    5  A    between atoms: C_6  and  C_7
REMARK    6  A    between atoms: N_9  and  C_10
REMARK    7  A    between atoms: C_11  and  O_12
REMARK    8  A    between atoms: O_12  and  C_13
REMARK    9  A    between atoms: N_25  and  C_26
REMARK                            x       y       z     vdW  Elec       q    Type
REMARK                         _______ _______ _______ _____ _____    ______ ____
ROOT
ATOM      1  C   UNL     1       8.603   2.163  24.881  0.00  0.00    +0.077 A 
ATOM      2  C   UNL     1       8.460   0.819  25.246  0.00  0.00    +0.040 A 
ATOM      3  C   UNL     1       9.076  -0.213  24.484  0.00  0.00    +0.042 A 
ATOM      4  C   UNL     1       9.823   0.127  23.350  0.00  0.00    +0.080 A 
ATOM      5  N   UNL     1      10.417  -0.776  22.565  0.00  0.00    -0.235 NA
ATOM      6  C   UNL     1      10.265  -2.058  22.900  0.00  0.00    +0.223 A 
ATOM      7  N   UNL     1       9.573  -2.514  23.944  0.00  0.00    -0.220 NA
ATOM      8  C   UNL     1       9.967   1.464  23.021  0.00  0.00    +0.076 A 
ATOM      9  C   UNL     1       8.972  -1.597  24.726  0.00  0.00    +0.134 A 
ATOM     10  N   UNL     1       8.230  -2.064  25.841  0.00  0.00    -0.299 N 
ATOM     11  H   UNL     1       8.723  -1.827  26.694  0.00  0.00    +0.154 HD
ATOM     12  C   UNL     1       9.408   2.491  23.786  0.00  0.00    +0.144 A 
ENDROOT
BRANCH  10  13
ATOM     13  C   UNL     1       7.550  -3.303  25.913  0.00  0.00    +0.034 A 
ATOM     14  C   UNL     1       8.072  -4.347  26.691  0.00  0.00    +0.026 A 
ATOM     15  C   UNL     1       7.355  -5.536  26.865  0.00  0.00    +0.041 A 
ATOM     16  C   UNL     1       6.102  -5.680  26.278  0.00  0.00    +0.142 A 
ATOM     17  F   UNL     1       5.422  -6.819  26.479  0.00  0.00    -0.204 F 
ATOM     18  C   UNL     1       5.559  -4.653  25.515  0.00  0.00    +0.078 A 
ATOM     19 CL   UNL     1       3.999  -4.809  24.806  0.00  0.00    -0.081 Cl
ATOM     20  C   UNL     1       6.276  -3.470  25.341  0.00  0.00    +0.046 A 
ENDBRANCH  10  13
BRANCH   1  22
ATOM     21  C   UNL     1       6.661   3.603  25.422  0.00  0.00    +0.241 C 
ATOM     22  N   UNL     1       7.940   3.148  25.630  0.00  0.00    -0.279 N 
ATOM     23  H   UNL     1       8.151   3.188  26.621  0.00  0.00    +0.155 HD
ATOM     24  O   UNL     1       6.116   4.279  26.294  0.00  0.00    -0.271 OA
BRANCH  21  26
ATOM     25  C   UNL     1       4.802   3.822  23.828  0.00  0.00    -0.007 C 
ATOM     26  C   UNL     1       5.953   3.216  24.172  0.00  0.00    +0.064 C 
BRANCH  25  27
ATOM     27  C   UNL     1       3.883   3.387  22.715  0.00  0.00    +0.111 C 
BRANCH  27  29
ATOM     28  C   UNL     1       2.013   3.816  24.208  0.00  0.00    +0.104 C 
ATOM     29  N   UNL     1       2.546   2.948  23.149  0.00  0.00    -0.305 NA
ATOM     30  C   UNL     1       1.623   2.973  22.009  0.00  0.00    +0.104 C 
ENDBRANCH  27  29
ENDBRANCH  25  27
ENDBRANCH  21  26
ENDBRANCH   1  22
BRANCH  12  31
ATOM     31  O   UNL     1       9.714   3.739  23.320  0.00  0.00    -0.485 OA
BRANCH  31  32
ATOM     32  C   UNL     1      10.667   4.514  24.034  0.00  0.00    +0.201 C 
ATOM     33  C   UNL     1      10.071   5.884  24.358  0.00  0.00    +0.204 C 
ATOM     34  O   UNL     1      11.171   6.795  24.527  0.00  0.00    -0.376 OA
ATOM     35  C   UNL     1      12.364   6.111  24.121  0.00  0.00    +0.163 C 
ATOM     36  C   UNL     1      11.905   4.947  23.271  0.00  0.00    +0.075 C 
ENDBRANCH  31  32
ENDBRANCH  12  31
TORSDOF 7
ENDMDL
