MODEL 1
REMARK VINA RESULT:      -6.7      0.000      0.000
REMARK  Name = 
REMARK  4 active torsions:
REMARK  status: ('A' for Active; 'I' for Inactive)
REMARK    1  A    between atoms: O_1  and  C_2
REMARK    2  A    between atoms: C_2  and  C_4
REMARK    3  A    between atoms: C_7  and  C_9
REMARK    4  A    between atoms: C_12  and  N_16
REMARK                            x       y       z     vdW  Elec       q    Type
REMARK                         _______ _______ _______ _____ _____    ______ ____
ROOT
ATOM      1  C   UNL     1       9.726   1.664  23.641  0.00  0.00    +0.036 A 
ATOM      2  C   UNL     1       8.893   1.080  22.663  0.00  0.00    +0.058 A 
ATOM      3 CL   UNL     1       8.005   2.008  21.503  0.00  0.00    -0.083 Cl
ATOM      4  C   UNL     1       8.714  -0.311  22.602  0.00  0.00    +0.105 A 
ATOM      5  C   UNL     1       9.359  -1.135  23.527  0.00  0.00    +0.275 A 
ATOM      6  C   UNL     1      10.171  -0.583  24.519  0.00  0.00    +0.085 A 
ATOM      7  C   UNL     1      10.349   0.804  24.570  0.00  0.00    +0.019 A 
ENDROOT
BRANCH   1  10
ATOM      8  C   UNL     1      11.345   4.852  23.528  0.00  0.00    +0.212 A 
ATOM      9  O   UNL     1      11.283   3.484  23.425  0.00  0.00    -0.448 OA
ATOM     10  C   UNL     1       9.999   3.101  23.725  0.00  0.00    +0.137 A 
ATOM     11  C   UNL     1       9.249   4.225  24.012  0.00  0.00    +0.051 A 
ATOM     12  C   UNL     1      10.109   5.342  23.894  0.00  0.00    +0.057 A 
BRANCH   8  13
ATOM     13  C   UNL     1      12.591   5.525  23.250  0.00  0.00    +0.372 C 
ATOM     14  O   UNL     1      13.200   5.504  22.192  0.00  0.00    -0.242 OA
BRANCH  13  15
ATOM     15  O   UNL     1      13.034   6.206  24.339  0.00  0.00    -0.475 OA
ATOM     16  H   UNL     1      12.333   6.810  24.662  0.00  0.00    +0.296 HD
ENDBRANCH  13  15
ENDBRANCH   8  13
ENDBRANCH   1  10
BRANCH   5  17
ATOM     17  N   UNL     1       9.186  -2.591  23.450  0.00  0.00    +0.080 N 
ATOM     18  O   UNL     1       9.976  -3.300  24.090  0.00  0.00    +0.041 OA
ATOM     19  O   UNL     1       8.256  -3.023  22.755  0.00  0.00    -0.576 OA
ENDBRANCH   5  17
TORSDOF 4
ENDMDL
MODEL 2
REMARK VINA RESULT:      -6.3      3.910      5.442
REMARK  Name = 
REMARK  4 active torsions:
REMARK  status: ('A' for Active; 'I' for Inactive)
REMARK    1  A    between atoms: O_1  and  C_2
REMARK    2  A    between atoms: C_2  and  C_4
REMARK    3  A    between atoms: C_7  and  C_9
REMARK    4  A    between atoms: C_12  and  N_16
REMARK                            x       y       z     vdW  Elec       q    Type
REMARK                         _______ _______ _______ _____ _____    ______ ____
ROOT
ATOM      1  C   UNL     1       8.195  -2.680  23.999  0.00  0.00    +0.036 A 
ATOM      2  C   UNL     1       7.317  -3.706  23.589  0.00  0.00    +0.058 A 
ATOM      3 CL   UNL     1       6.685  -3.823  21.983  0.00  0.00    -0.083 Cl
ATOM      4  C   UNL     1       6.877  -4.685  24.494  0.00  0.00    +0.105 A 
ATOM      5  C   UNL     1       7.304  -4.644  25.824  0.00  0.00    +0.275 A 
ATOM      6  C   UNL     1       8.155  -3.627  26.261  0.00  0.00    +0.085 A 
ATOM      7  C   UNL     1       8.593  -2.658  25.352  0.00  0.00    +0.019 A 
ENDROOT
BRANCH   1  10
ATOM      8  C   UNL     1       8.687   0.345  22.153  0.00  0.00    +0.212 A 
ATOM      9  O   UNL     1       8.024  -0.491  23.018  0.00  0.00    -0.448 OA
ATOM     10  C   UNL     1       8.736  -1.662  23.093  0.00  0.00    +0.137 A 
ATOM     11  C   UNL     1       9.850  -1.566  22.282  0.00  0.00    +0.051 A 
ATOM     12  C   UNL     1       9.815  -0.288  21.676  0.00  0.00    +0.057 A 
BRANCH   8  13
ATOM     13  C   UNL     1       8.156   1.662  21.899  0.00  0.00    +0.372 C 
ATOM     14  O   UNL     1       6.980   1.987  21.950  0.00  0.00    -0.242 OA
BRANCH  13  15
ATOM     15  O   UNL     1       9.145   2.536  21.576  0.00  0.00    -0.475 OA
ATOM     16  H   UNL     1       9.760   2.122  20.934  0.00  0.00    +0.296 HD
ENDBRANCH  13  15
ENDBRANCH   8  13
ENDBRANCH   1  10
BRANCH   5  17
ATOM     17  N   UNL     1       6.857  -5.679  26.764  0.00  0.00    +0.080 N 
ATOM     18  O   UNL     1       5.891  -6.381  26.432  0.00  0.00    +0.041 OA
ATOM     19  O   UNL     1       7.477  -5.792  27.830  0.00  0.00    -0.576 OA
ENDBRANCH   5  17
TORSDOF 4
ENDMDL
MODEL 3
REMARK VINA RESULT:      -6.2      3.926      5.464
REMARK  Name = 
REMARK  4 active torsions:
REMARK  status: ('A' for Active; 'I' for Inactive)
REMARK    1  A    between atoms: O_1  and  C_2
REMARK    2  A    between atoms: C_2  and  C_4
REMARK    3  A    between atoms: C_7  and  C_9
REMARK    4  A    between atoms: C_12  and  N_16
REMARK                            x       y       z     vdW  Elec       q    Type
REMARK                         _______ _______ _______ _____ _____    ______ ____
ROOT
ATOM      1  C   UNL     1       8.396  -2.636  24.138  0.00  0.00    +0.036 A 
ATOM      2  C   UNL     1       8.352  -2.441  25.535  0.00  0.00    +0.058 A 
ATOM      3 CL   UNL     1       8.934  -1.005  26.307  0.00  0.00    -0.083 Cl
ATOM      4  C   UNL     1       7.854  -3.437  26.389  0.00  0.00    +0.105 A 
ATOM      5  C   UNL     1       7.401  -4.646  25.856  0.00  0.00    +0.275 A 
ATOM      6  C   UNL     1       7.454  -4.875  24.480  0.00  0.00    +0.085 A 
ATOM      7  C   UNL     1       7.947  -3.875  23.634  0.00  0.00    +0.019 A 
ENDROOT
BRANCH   1  10
ATOM      8  C   UNL     1       8.660   0.353  22.191  0.00  0.00    +0.212 A 
ATOM      9  O   UNL     1       8.070  -0.492  23.099  0.00  0.00    -0.448 OA
ATOM     10  C   UNL     1       8.851  -1.617  23.188  0.00  0.00    +0.137 A 
ATOM     11  C   UNL     1       9.935  -1.482  22.342  0.00  0.00    +0.051 A 
ATOM     12  C   UNL     1       9.809  -0.228  21.700  0.00  0.00    +0.057 A 
BRANCH   8  13
ATOM     13  C   UNL     1       8.046   1.630  21.914  0.00  0.00    +0.372 C 
ATOM     14  O   UNL     1       6.852   1.882  21.968  0.00  0.00    -0.242 OA
BRANCH  13  15
ATOM     15  O   UNL     1       8.976   2.557  21.565  0.00  0.00    -0.475 OA
ATOM     16  H   UNL     1       9.858   2.285  21.896  0.00  0.00    +0.296 HD
ENDBRANCH  13  15
ENDBRANCH   8  13
ENDBRANCH   1  10
BRANCH   5  17
ATOM     17  N   UNL     1       6.864  -5.680  26.749  0.00  0.00    +0.080 N 
ATOM     18  O   UNL     1       7.375  -5.793  27.873  0.00  0.00    +0.041 OA
ATOM     19  O   UNL     1       5.928  -6.374  26.328  0.00  0.00    -0.576 OA
ENDBRANCH   5  17
TORSDOF 4
ENDMDL
MODEL 4
REMARK VINA RESULT:      -6.1      4.443      8.966
REMARK  Name = 
REMARK  4 active torsions:
REMARK  status: ('A' for Active; 'I' for Inactive)
REMARK    1  A    between atoms: O_1  and  C_2
REMARK    2  A    between atoms: C_2  and  C_4
REMARK    3  A    between atoms: C_7  and  C_9
REMARK    4  A    between atoms: C_12  and  N_16
REMARK                            x       y       z     vdW  Elec       q    Type
REMARK                         _______ _______ _______ _____ _____    ______ ____
ROOT
ATOM      1  C   UNL     1       8.008  -3.303  23.060  0.00  0.00    +0.036 A 
ATOM      2  C   UNL     1       9.020  -3.289  24.043  0.00  0.00    +0.058 A 
ATOM      3 CL   UNL     1       9.403  -4.662  25.025  0.00  0.00    -0.083 Cl
ATOM      4  C   UNL     1       9.760  -2.125  24.302  0.00  0.00    +0.105 A 
ATOM      5  C   UNL     1       9.490  -0.956  23.585  0.00  0.00    +0.275 A 
ATOM      6  C   UNL     1       8.479  -0.936  22.622  0.00  0.00    +0.085 A 
ATOM      7  C   UNL     1       7.749  -2.103  22.366  0.00  0.00    +0.019 A 
ENDROOT
BRANCH   1  10
ATOM      8  C   UNL     1       5.388  -5.719  22.745  0.00  0.00    +0.212 A 
ATOM      9  O   UNL     1       5.960  -4.558  23.201  0.00  0.00    -0.448 OA
ATOM     10  C   UNL     1       7.238  -4.498  22.702  0.00  0.00    +0.137 A 
ATOM     11  C   UNL     1       7.472  -5.619  21.928  0.00  0.00    +0.051 A 
ATOM     12  C   UNL     1       6.295  -6.402  21.962  0.00  0.00    +0.057 A 
BRANCH   8  13
ATOM     13  C   UNL     1       4.028  -6.028  23.113  0.00  0.00    +0.372 C 
ATOM     14  O   UNL     1       3.057  -5.304  22.954  0.00  0.00    -0.242 OA
BRANCH  13  15
ATOM     15  O   UNL     1       3.940  -7.258  23.684  0.00  0.00    -0.475 OA
ATOM     16  H   UNL     1       4.619  -7.852  23.301  0.00  0.00    +0.296 HD
ENDBRANCH  13  15
ENDBRANCH   8  13
ENDBRANCH   1  10
BRANCH   5  17
ATOM     17  N   UNL     1      10.278   0.255  23.844  0.00  0.00    +0.080 N 
ATOM     18  O   UNL     1      10.848   0.348  24.940  0.00  0.00    +0.041 OA
ATOM     19  O   UNL     1      10.329   1.109  22.948  0.00  0.00    -0.576 OA
ENDBRANCH   5  17
TORSDOF 4
ENDMDL
MODEL 5
REMARK VINA RESULT:      -6.1      3.293      4.864
REMARK  Name = 
REMARK  4 active torsions:
REMARK  status: ('A' for Active; 'I' for Inactive)
REMARK    1  A    between atoms: O_1  and  C_2
REMARK    2  A    between atoms: C_2  and  C_4
REMARK    3  A    between atoms: C_7  and  C_9
REMARK    4  A    between atoms: C_12  and  N_16
REMARK                            x       y       z     vdW  Elec       q    Type
REMARK                         _______ _______ _______ _____ _____    ______ ____
ROOT
ATOM      1  C   UNL     1       8.068  -2.154  23.404  0.00  0.00    +0.036 A 
ATOM      2  C   UNL     1       8.298  -3.505  23.744  0.00  0.00    +0.058 A 
ATOM      3 CL   UNL     1       9.668  -4.027  24.663  0.00  0.00    -0.083 Cl
ATOM      4  C   UNL     1       7.425  -4.517  23.315  0.00  0.00    +0.105 A 
ATOM      5  C   UNL     1       6.315  -4.191  22.532  0.00  0.00    +0.275 A 
ATOM      6  C   UNL     1       6.075  -2.866  22.162  0.00  0.00    +0.085 A 
ATOM      7  C   UNL     1       6.947  -1.862  22.598  0.00  0.00    +0.019 A 
ENDROOT
BRANCH   1  10
ATOM      8  C   UNL     1       9.894   0.917  23.566  0.00  0.00    +0.212 A 
ATOM      9  O   UNL     1       9.118  -0.037  22.957  0.00  0.00    -0.448 OA
ATOM     10  C   UNL     1       8.907  -1.044  23.865  0.00  0.00    +0.137 A 
ATOM     11  C   UNL     1       9.544  -0.725  25.048  0.00  0.00    +0.051 A 
ATOM     12  C   UNL     1      10.181   0.523  24.856  0.00  0.00    +0.057 A 
BRANCH   8  13
ATOM     13  C   UNL     1      10.259   2.105  22.831  0.00  0.00    +0.372 C 
ATOM     14  O   UNL     1      10.831   3.084  23.284  0.00  0.00    -0.242 OA
BRANCH  13  15
ATOM     15  O   UNL     1       9.875   2.015  21.531  0.00  0.00    -0.475 OA
ATOM     16  H   UNL     1      10.030   1.106  21.200  0.00  0.00    +0.296 HD
ENDBRANCH  13  15
ENDBRANCH   8  13
ENDBRANCH   1  10
BRANCH   5  17
ATOM     17  N   UNL     1       5.393  -5.249  22.100  0.00  0.00    +0.080 N 
ATOM     18  O   UNL     1       4.346  -5.400  22.747  0.00  0.00    +0.041 OA
ATOM     19  O   UNL     1       5.715  -5.924  21.113  0.00  0.00    -0.576 OA
ENDBRANCH   5  17
TORSDOF 4
ENDMDL
MODEL 6
REMARK VINA RESULT:      -6.1      2.787      7.309
REMARK  Name = 
REMARK  4 active torsions:
REMARK  status: ('A' for Active; 'I' for Inactive)
REMARK    1  A    between atoms: O_1  and  C_2
REMARK    2  A    between atoms: C_2  and  C_4
REMARK    3  A    between atoms: C_7  and  C_9
REMARK    4  A    between atoms: C_12  and  N_16
REMARK                            x       y       z     vdW  Elec       q    Type
REMARK                         _______ _______ _______ _____ _____    ______ ____
ROOT
ATOM      1  C   UNL     1       9.010  -0.568  23.532  0.00  0.00    +0.036 A 
ATOM      2  C   UNL     1       8.800   0.278  24.641  0.00  0.00    +0.058 A 
ATOM      3 CL   UNL     1       7.950  -0.224  26.063  0.00  0.00    -0.083 Cl
ATOM      4  C   UNL     1       9.251   1.607  24.634  0.00  0.00    +0.105 A 
ATOM      5  C   UNL     1       9.911   2.110  23.510  0.00  0.00    +0.275 A 
ATOM      6  C   UNL     1      10.113   1.302  22.389  0.00  0.00    +0.085 A 
ATOM      7  C   UNL     1       9.665  -0.024  22.407  0.00  0.00    +0.019 A 
ENDROOT
BRANCH   1  10
ATOM      8  C   UNL     1       8.676  -4.048  24.290  0.00  0.00    +0.212 A 
ATOM      9  O   UNL     1       9.178  -2.781  24.459  0.00  0.00    -0.448 OA
ATOM     10  C   UNL     1       8.616  -1.979  23.497  0.00  0.00    +0.137 A 
ATOM     11  C   UNL     1       7.756  -2.736  22.725  0.00  0.00    +0.051 A 
ATOM     12  C   UNL     1       7.800  -4.058  23.226  0.00  0.00    +0.057 A 
BRANCH   8  13
ATOM     13  C   UNL     1       9.096  -5.098  25.187  0.00  0.00    +0.372 C 
ATOM     14  O   UNL     1       8.377  -5.723  25.951  0.00  0.00    -0.242 OA
BRANCH  13  15
ATOM     15  O   UNL     1      10.433  -5.321  25.090  0.00  0.00    -0.475 OA
ATOM     16  H   UNL     1      10.785  -5.619  25.954  0.00  0.00    +0.296 HD
ENDBRANCH  13  15
ENDBRANCH   8  13
ENDBRANCH   1  10
BRANCH   5  17
ATOM     17  N   UNL     1      10.398   3.495  23.510  0.00  0.00    +0.080 N 
ATOM     18  O   UNL     1       9.576   4.394  23.735  0.00  0.00    +0.041 OA
ATOM     19  O   UNL     1      11.603   3.680  23.291  0.00  0.00    -0.576 OA
ENDBRANCH   5  17
TORSDOF 4
ENDMDL
MODEL 7
REMARK VINA RESULT:      -6.0      4.036      5.903
REMARK  Name = 
REMARK  4 active torsions:
REMARK  status: ('A' for Active; 'I' for Inactive)
REMARK    1  A    between atoms: O_1  and  C_2
REMARK    2  A    between atoms: C_2  and  C_4
REMARK    3  A    between atoms: C_7  and  C_9
REMARK    4  A    between atoms: C_12  and  N_16
REMARK                            x       y       z     vdW  Elec       q    Type
REMARK                         _______ _______ _______ _____ _____    ______ ____
ROOT
ATOM      1  C   UNL     1       7.638  -3.152  22.931  0.00  0.00    +0.036 A 
ATOM      2  C   UNL     1       7.546  -3.939  24.099  0.00  0.00    +0.058 A 
ATOM      3 CL   UNL     1       8.661  -3.808  25.416  0.00  0.00    -0.083 Cl
ATOM      4  C   UNL     1       6.545  -4.913  24.238  0.00  0.00    +0.105 A 
ATOM      5  C   UNL     1       5.626  -5.117  23.205  0.00  0.00    +0.275 A 
ATOM      6  C   UNL     1       5.707  -4.368  22.030  0.00  0.00    +0.085 A 
ATOM      7  C   UNL     1       6.706  -3.395  21.901  0.00  0.00    +0.019 A 
ENDROOT
BRANCH   1  10
ATOM      8  C   UNL     1       9.182  -0.014  22.179  0.00  0.00    +0.212 A 
ATOM      9  O   UNL     1       8.133  -0.896  22.259  0.00  0.00    -0.448 OA
ATOM     10  C   UNL     1       8.623  -2.082  22.746  0.00  0.00    +0.137 A 
ATOM     11  C   UNL     1       9.979  -1.950  22.977  0.00  0.00    +0.051 A 
ATOM     12  C   UNL     1      10.337  -0.632  22.608  0.00  0.00    +0.057 A 
BRANCH   8  13
ATOM     13  C   UNL     1       8.941   1.327  21.705  0.00  0.00    +0.372 C 
ATOM     14  O   UNL     1       7.852   1.814  21.444  0.00  0.00    -0.242 OA
BRANCH  13  15
ATOM     15  O   UNL     1      10.104   2.016  21.567  0.00  0.00    -0.475 OA
ATOM     16  H   UNL     1       9.927   2.979  21.602  0.00  0.00    +0.296 HD
ENDBRANCH  13  15
ENDBRANCH   8  13
ENDBRANCH   1  10
BRANCH   5  17
ATOM     17  N   UNL     1       4.568  -6.123  23.360  0.00  0.00    +0.080 N 
ATOM     18  O   UNL     1       4.812  -7.111  24.068  0.00  0.00    +0.041 OA
ATOM     19  O   UNL     1       3.494  -5.920  22.779  0.00  0.00    -0.576 OA
ENDBRANCH   5  17
TORSDOF 4
ENDMDL
MODEL 8
REMARK VINA RESULT:      -5.9      3.162      7.861
REMARK  Name = 
REMARK  4 active torsions:
REMARK  status: ('A' for Active; 'I' for Inactive)
REMARK    1  A    between atoms: O_1  and  C_2
REMARK    2  A    between atoms: C_2  and  C_4
REMARK    3  A    between atoms: C_7  and  C_9
REMARK    4  A    between atoms: C_12  and  N_16
REMARK                            x       y       z     vdW  Elec       q    Type
REMARK                         _______ _______ _______ _____ _____    ______ ____
ROOT
ATOM      1  C   UNL     1       8.603  -1.622  23.644  0.00  0.00    +0.036 A 
ATOM      2  C   UNL     1       7.698  -0.617  24.049  0.00  0.00    +0.058 A 
ATOM      3 CL   UNL     1       6.031  -0.932  24.394  0.00  0.00    -0.083 Cl
ATOM      4  C   UNL     1       8.106   0.721  24.162  0.00  0.00    +0.105 A 
ATOM      5  C   UNL     1       9.424   1.073  23.862  0.00  0.00    +0.275 A 
ATOM      6  C   UNL     1      10.335   0.104  23.437  0.00  0.00    +0.085 A 
ATOM      7  C   UNL     1       9.922  -1.230  23.332  0.00  0.00    +0.019 A 
ENDROOT
BRANCH   1  10
ATOM      8  C   UNL     1       7.238  -4.755  22.589  0.00  0.00    +0.212 A 
ATOM      9  O   UNL     1       7.427  -3.397  22.526  0.00  0.00    -0.448 OA
ATOM     10  C   UNL     1       8.257  -3.044  23.560  0.00  0.00    +0.137 A 
ATOM     11  C   UNL     1       8.596  -4.177  24.274  0.00  0.00    +0.051 A 
ATOM     12  C   UNL     1       7.939  -5.269  23.659  0.00  0.00    +0.057 A 
BRANCH   8  13
ATOM     13  C   UNL     1       6.407  -5.399  21.600  0.00  0.00    +0.372 C 
ATOM     14  O   UNL     1       5.925  -4.870  20.610  0.00  0.00    -0.242 OA
BRANCH  13  15
ATOM     15  O   UNL     1       6.206  -6.708  21.903  0.00  0.00    -0.475 OA
ATOM     16  H   UNL     1       6.131  -6.817  22.874  0.00  0.00    +0.296 HD
ENDBRANCH  13  15
ENDBRANCH   8  13
ENDBRANCH   1  10
BRANCH   5  17
ATOM     17  N   UNL     1       9.853   2.470  23.998  0.00  0.00    +0.080 N 
ATOM     18  O   UNL     1       9.105   3.245  24.611  0.00  0.00    +0.041 OA
ATOM     19  O   UNL     1      10.940   2.789  23.497  0.00  0.00    -0.576 OA
ENDBRANCH   5  17
TORSDOF 4
ENDMDL
MODEL 9
REMARK VINA RESULT:      -5.9      1.330      1.730
REMARK  Name = 
REMARK  4 active torsions:
REMARK  status: ('A' for Active; 'I' for Inactive)
REMARK    1  A    between atoms: O_1  and  C_2
REMARK    2  A    between atoms: C_2  and  C_4
REMARK    3  A    between atoms: C_7  and  C_9
REMARK    4  A    between atoms: C_12  and  N_16
REMARK                            x       y       z     vdW  Elec       q    Type
REMARK                         _______ _______ _______ _____ _____    ______ ____
ROOT
ATOM      1  C   UNL     1       9.244   0.497  24.109  0.00  0.00    +0.036 A 
ATOM      2  C   UNL     1       9.210  -0.233  22.902  0.00  0.00    +0.058 A 
ATOM      3 CL   UNL     1       9.165   0.520  21.344  0.00  0.00    -0.083 Cl
ATOM      4  C   UNL     1       9.177  -1.636  22.906  0.00  0.00    +0.105 A 
ATOM      5  C   UNL     1       9.168  -2.327  24.120  0.00  0.00    +0.275 A 
ATOM      6  C   UNL     1       9.179  -1.630  25.329  0.00  0.00    +0.085 A 
ATOM      7  C   UNL     1       9.217  -0.231  25.317  0.00  0.00    +0.019 A 
ENDROOT
BRANCH   1  10
ATOM      8  C   UNL     1      10.394   3.871  23.806  0.00  0.00    +0.212 A 
ATOM      9  O   UNL     1      10.498   2.507  23.691  0.00  0.00    -0.448 OA
ATOM     10  C   UNL     1       9.336   1.959  24.175  0.00  0.00    +0.137 A 
ATOM     11  C   UNL     1       8.497   2.974  24.591  0.00  0.00    +0.051 A 
ATOM     12  C   UNL     1       9.175   4.195  24.363  0.00  0.00    +0.057 A 
BRANCH   8  13
ATOM     13  C   UNL     1      11.484   4.702  23.355  0.00  0.00    +0.372 C 
ATOM     14  O   UNL     1      12.673   4.430  23.423  0.00  0.00    -0.242 OA
BRANCH  13  15
ATOM     15  O   UNL     1      11.027   5.869  22.830  0.00  0.00    -0.475 OA
ATOM     16  H   UNL     1      10.961   5.792  21.855  0.00  0.00    +0.296 HD
ENDBRANCH  13  15
ENDBRANCH   8  13
ENDBRANCH   1  10
BRANCH   5  17
ATOM     17  N   UNL     1       9.152  -3.795  24.122  0.00  0.00    +0.080 N 
ATOM     18  O   UNL     1       8.302  -4.363  23.421  0.00  0.00    +0.041 OA
ATOM     19  O   UNL     1       9.993  -4.378  24.820  0.00  0.00    -0.576 OA
ENDBRANCH   5  17
TORSDOF 4
ENDMDL
