MODEL 1
REMARK VINA RESULT:      -7.1      0.000      0.000
REMARK  Name = 
REMARK  12 active torsions:
REMARK  status: ('A' for Active; 'I' for Inactive)
REMARK    1  A    between atoms: O_1  and  C_2
REMARK    2  A    between atoms: C_4  and  O_6
REMARK    3  A    between atoms: C_7  and  C_9
REMARK    4  A    between atoms: C_9  and  O_10
REMARK    5  A    between atoms: O_10  and  C_11
REMARK    6  A    between atoms: N_17  and  C_18
REMARK    7  A    between atoms: C_18  and  C_19
REMARK    8  A    between atoms: N_27  and  C_28
REMARK    9  A    between atoms: C_28  and  C_29
REMARK   10  A    between atoms: C_35  and  C_37
REMARK   11  A    between atoms: C_37  and  O_38
REMARK   12  A    between atoms: O_38  and  C_39
REMARK                            x       y       z     vdW  Elec       q    Type
REMARK                         _______ _______ _______ _____ _____    ______ ____
ROOT
ATOM      1  C   UNL     1       9.524   0.853  21.709  0.00  0.00    +0.169 C 
ATOM      2  C   UNL     1       8.908   1.879  22.694  0.00  0.00    +0.146 C 
ATOM      3  N   UNL     1       7.487   1.527  23.011  0.00  0.00    -0.272 N 
ATOM      4  C   UNL     1       7.118   0.489  23.863  0.00  0.00    +0.306 C 
ATOM      5  O   UNL     1       5.968   0.321  24.253  0.00  0.00    -0.252 OA
ATOM      6  N   UNL     1       8.125  -0.412  24.132  0.00  0.00    -0.272 N 
ATOM      7  C   UNL     1       8.601  -1.194  22.963  0.00  0.00    +0.146 C 
ATOM      8  C   UNL     1       9.823  -0.549  22.279  0.00  0.00    +0.169 C 
ENDROOT
BRANCH   1   9
ATOM      9  O   UNL     1       8.666   0.725  20.556  0.00  0.00    -0.387 OA
ATOM     10  H   UNL     1       7.929   1.352  20.674  0.00  0.00    +0.210 HD
ENDBRANCH   1   9
BRANCH   8  11
ATOM     11  O   UNL     1      10.930  -0.536  23.182  0.00  0.00    -0.387 OA
ATOM     12  H   UNL     1      10.589  -0.325  24.071  0.00  0.00    +0.210 HD
ENDBRANCH   8  11
BRANCH   2  13
ATOM     13  C   UNL     1       9.784   2.192  23.944  0.00  0.00    +0.254 C 
BRANCH  13  14
ATOM     14  O   UNL     1       9.056   2.926  24.949  0.00  0.00    -0.490 OA
BRANCH  14  15
ATOM     15  C   UNL     1       9.172   4.297  24.879  0.00  0.00    +0.121 A 
ATOM     16  C   UNL     1      10.041   4.987  24.030  0.00  0.00    +0.045 A 
ATOM     17  C   UNL     1      10.101   6.389  24.056  0.00  0.00    +0.004 A 
ATOM     18  C   UNL     1       9.292   7.108  24.934  0.00  0.00    +0.000 A 
ATOM     19  C   UNL     1       8.432   6.429  25.794  0.00  0.00    +0.004 A 
ATOM     20  C   UNL     1       8.381   5.030  25.772  0.00  0.00    +0.045 A 
ENDBRANCH  14  15
ENDBRANCH  13  14
ENDBRANCH   2  13
BRANCH   3  21
ATOM     21  C   UNL     1       6.408   2.242  22.313  0.00  0.00    +0.145 C 
BRANCH  21  22
ATOM     22  C   UNL     1       6.291   3.720  22.594  0.00  0.00    -0.030 A 
ATOM     23  C   UNL     1       7.086   4.672  21.944  0.00  0.00    +0.005 A 
ATOM     24  C   UNL     1       6.940   6.032  22.226  0.00  0.00    +0.000 A 
ATOM     25  C   UNL     1       6.015   6.456  23.178  0.00  0.00    +0.000 A 
ATOM     26  C   UNL     1       5.273   5.516  23.888  0.00  0.00    +0.000 A 
ATOM     27  C   UNL     1       5.422   4.156  23.609  0.00  0.00    +0.005 A 
ENDBRANCH  21  22
ENDBRANCH   3  21
BRANCH   6  28
ATOM     28  C   UNL     1       8.459  -0.851  25.500  0.00  0.00    +0.145 C 
BRANCH  28  29
ATOM     29  C   UNL     1       7.714  -2.042  26.049  0.00  0.00    -0.030 A 
ATOM     30  C   UNL     1       8.354  -3.266  26.272  0.00  0.00    +0.005 A 
ATOM     31  C   UNL     1       7.641  -4.349  26.793  0.00  0.00    +0.000 A 
ATOM     32  C   UNL     1       6.286  -4.219  27.092  0.00  0.00    +0.000 A 
ATOM     33  C   UNL     1       5.637  -3.007  26.868  0.00  0.00    +0.000 A 
ATOM     34  C   UNL     1       6.347  -1.925  26.350  0.00  0.00    +0.005 A 
ENDBRANCH  28  29
ENDBRANCH   6  28
BRANCH   7  35
ATOM     35  C   UNL     1       8.815  -2.683  23.270  0.00  0.00    +0.254 C 
BRANCH  35  36
ATOM     36  O   UNL     1       8.063  -3.495  22.365  0.00  0.00    -0.490 OA
BRANCH  36  37
ATOM     37  C   UNL     1       6.873  -3.950  22.868  0.00  0.00    +0.121 A 
ATOM     38  C   UNL     1       6.876  -5.275  23.304  0.00  0.00    +0.045 A 
ATOM     39  C   UNL     1       5.716  -5.839  23.826  0.00  0.00    +0.004 A 
ATOM     40  C   UNL     1       4.543  -5.083  23.914  0.00  0.00    +0.000 A 
ATOM     41  C   UNL     1       4.532  -3.767  23.460  0.00  0.00    +0.004 A 
ATOM     42  C   UNL     1       5.693  -3.205  22.937  0.00  0.00    +0.045 A 
ENDBRANCH  36  37
ENDBRANCH  35  36
ENDBRANCH   7  35
TORSDOF 12
ENDMDL
MODEL 2
REMARK VINA RESULT:      -7.1      1.271      8.128
REMARK  Name = 
REMARK  12 active torsions:
REMARK  status: ('A' for Active; 'I' for Inactive)
REMARK    1  A    between atoms: O_1  and  C_2
REMARK    2  A    between atoms: C_4  and  O_6
REMARK    3  A    between atoms: C_7  and  C_9
REMARK    4  A    between atoms: C_9  and  O_10
REMARK    5  A    between atoms: O_10  and  C_11
REMARK    6  A    between atoms: N_17  and  C_18
REMARK    7  A    between atoms: C_18  and  C_19
REMARK    8  A    between atoms: N_27  and  C_28
REMARK    9  A    between atoms: C_28  and  C_29
REMARK   10  A    between atoms: C_35  and  C_37
REMARK   11  A    between atoms: C_37  and  O_38
REMARK   12  A    between atoms: O_38  and  C_39
REMARK                            x       y       z     vdW  Elec       q    Type
REMARK                         _______ _______ _______ _____ _____    ______ ____
ROOT
ATOM      1  C   UNL     1      10.568   0.172  23.574  0.00  0.00    +0.169 C 
ATOM      2  C   UNL     1       9.437  -0.872  23.749  0.00  0.00    +0.146 C 
ATOM      3  N   UNL     1       8.521  -0.485  24.869  0.00  0.00    -0.272 N 
ATOM      4  C   UNL     1       7.569   0.527  24.776  0.00  0.00    +0.306 C 
ATOM      5  O   UNL     1       6.711   0.718  25.630  0.00  0.00    -0.252 OA
ATOM      6  N   UNL     1       7.747   1.380  23.708  0.00  0.00    -0.272 N 
ATOM      7  C   UNL     1       8.988   2.194  23.751  0.00  0.00    +0.146 C 
ATOM      8  C   UNL     1      10.153   1.537  22.984  0.00  0.00    +0.169 C 
ENDROOT
BRANCH   1   9
ATOM      9  O   UNL     1      11.225   0.381  24.840  0.00  0.00    -0.387 OA
ATOM     10  H   UNL     1      11.408   1.335  24.917  0.00  0.00    +0.210 HD
ENDBRANCH   1   9
BRANCH   8  11
ATOM     11  O   UNL     1       9.826   1.445  21.597  0.00  0.00    -0.387 OA
ATOM     12  H   UNL     1       9.872   2.343  21.219  0.00  0.00    +0.210 HD
ENDBRANCH   8  11
BRANCH   2  13
ATOM     13  C   UNL     1       8.705  -1.271  22.432  0.00  0.00    +0.254 C 
BRANCH  13  14
ATOM     14  O   UNL     1       8.678  -2.699  22.235  0.00  0.00    -0.490 OA
BRANCH  14  15
ATOM     15  C   UNL     1       7.498  -3.321  22.581  0.00  0.00    +0.121 A 
ATOM     16  C   UNL     1       6.318  -2.662  22.938  0.00  0.00    +0.045 A 
ATOM     17  C   UNL     1       5.175  -3.392  23.300  0.00  0.00    +0.004 A 
ATOM     18  C   UNL     1       5.208  -4.785  23.309  0.00  0.00    +0.000 A 
ATOM     19  C   UNL     1       6.383  -5.450  22.967  0.00  0.00    +0.004 A 
ATOM     20  C   UNL     1       7.524  -4.720  22.615  0.00  0.00    +0.045 A 
ENDBRANCH  14  15
ENDBRANCH  13  14
ENDBRANCH   2  13
BRANCH   3  21
ATOM     21  C   UNL     1       8.693  -1.131  26.179  0.00  0.00    +0.145 C 
BRANCH  21  22
ATOM     22  C   UNL     1       8.136  -2.525  26.318  0.00  0.00    -0.030 A 
ATOM     23  C   UNL     1       8.890  -3.668  26.025  0.00  0.00    +0.005 A 
ATOM     24  C   UNL     1       8.340  -4.942  26.176  0.00  0.00    +0.000 A 
ATOM     25  C   UNL     1       7.020  -5.091  26.598  0.00  0.00    +0.000 A 
ATOM     26  C   UNL     1       6.233  -3.964  26.819  0.00  0.00    +0.000 A 
ATOM     27  C   UNL     1       6.783  -2.690  26.664  0.00  0.00    +0.005 A 
ENDBRANCH  21  22
ENDBRANCH   3  21
BRANCH   6  28
ATOM     28  C   UNL     1       6.654   1.746  22.789  0.00  0.00    +0.145 C 
BRANCH  28  29
ATOM     29  C   UNL     1       5.718   2.846  23.225  0.00  0.00    -0.030 A 
ATOM     30  C   UNL     1       5.729   4.103  22.610  0.00  0.00    +0.005 A 
ATOM     31  C   UNL     1       4.843   5.099  23.028  0.00  0.00    +0.000 A 
ATOM     32  C   UNL     1       3.943   4.849  24.062  0.00  0.00    +0.000 A 
ATOM     33  C   UNL     1       3.927   3.604  24.685  0.00  0.00    +0.000 A 
ATOM     34  C   UNL     1       4.809   2.608  24.270  0.00  0.00    +0.005 A 
ENDBRANCH  28  29
ENDBRANCH   6  28
BRANCH   7  35
ATOM     35  C   UNL     1       8.770   3.660  23.350  0.00  0.00    +0.254 C 
BRANCH  35  36
ATOM     36  O   UNL     1       9.188   4.536  24.399  0.00  0.00    -0.490 OA
BRANCH  36  37
ATOM     37  C   UNL     1       8.171   4.982  25.202  0.00  0.00    +0.121 A 
ATOM     38  C   UNL     1       7.759   6.294  24.971  0.00  0.00    +0.045 A 
ATOM     39  C   UNL     1       6.737   6.848  25.737  0.00  0.00    +0.004 A 
ATOM     40  C   UNL     1       6.121   6.095  26.741  0.00  0.00    +0.000 A 
ATOM     41  C   UNL     1       6.545   4.792  26.987  0.00  0.00    +0.004 A 
ATOM     42  C   UNL     1       7.568   4.239  26.221  0.00  0.00    +0.045 A 
ENDBRANCH  36  37
ENDBRANCH  35  36
ENDBRANCH   7  35
TORSDOF 12
ENDMDL
MODEL 3
REMARK VINA RESULT:      -7.0      0.644      1.684
REMARK  Name = 
REMARK  12 active torsions:
REMARK  status: ('A' for Active; 'I' for Inactive)
REMARK    1  A    between atoms: O_1  and  C_2
REMARK    2  A    between atoms: C_4  and  O_6
REMARK    3  A    between atoms: C_7  and  C_9
REMARK    4  A    between atoms: C_9  and  O_10
REMARK    5  A    between atoms: O_10  and  C_11
REMARK    6  A    between atoms: N_17  and  C_18
REMARK    7  A    between atoms: C_18  and  C_19
REMARK    8  A    between atoms: N_27  and  C_28
REMARK    9  A    between atoms: C_28  and  C_29
REMARK   10  A    between atoms: C_35  and  C_37
REMARK   11  A    between atoms: C_37  and  O_38
REMARK   12  A    between atoms: O_38  and  C_39
REMARK                            x       y       z     vdW  Elec       q    Type
REMARK                         _______ _______ _______ _____ _____    ______ ____
ROOT
ATOM      1  C   UNL     1       9.501   1.442  21.912  0.00  0.00    +0.169 C 
ATOM      2  C   UNL     1       8.798   2.399  22.908  0.00  0.00    +0.146 C 
ATOM      3  N   UNL     1       7.386   1.965  23.157  0.00  0.00    -0.272 N 
ATOM      4  C   UNL     1       7.039   0.880  23.958  0.00  0.00    +0.306 C 
ATOM      5  O   UNL     1       5.886   0.641  24.298  0.00  0.00    -0.252 OA
ATOM      6  N   UNL     1       8.081   0.021  24.234  0.00  0.00    -0.272 N 
ATOM      7  C   UNL     1       8.639  -0.693  23.058  0.00  0.00    +0.146 C 
ATOM      8  C   UNL     1       9.851   0.037  22.444  0.00  0.00    +0.169 C 
ENDROOT
BRANCH   1   9
ATOM      9  O   UNL     1       8.695   1.313  20.723  0.00  0.00    -0.387 OA
ATOM     10  H   UNL     1       9.295   1.089  19.989  0.00  0.00    +0.210 HD
ENDBRANCH   1   9
BRANCH   8  11
ATOM     11  O   UNL     1      10.922   0.072  23.390  0.00  0.00    -0.387 OA
ATOM     12  H   UNL     1      11.760   0.029  22.894  0.00  0.00    +0.210 HD
ENDBRANCH   8  11
BRANCH   2  13
ATOM     13  C   UNL     1       9.610   2.710  24.201  0.00  0.00    +0.254 C 
BRANCH  13  14
ATOM     14  O   UNL     1       9.940   4.109  24.313  0.00  0.00    -0.490 OA
BRANCH  14  15
ATOM     15  C   UNL     1       9.064   4.864  25.061  0.00  0.00    +0.121 A 
ATOM     16  C   UNL     1       7.972   4.358  25.771  0.00  0.00    +0.045 A 
ATOM     17  C   UNL     1       7.122   5.220  26.483  0.00  0.00    +0.004 A 
ATOM     18  C   UNL     1       7.361   6.593  26.485  0.00  0.00    +0.000 A 
ATOM     19  C   UNL     1       8.439   7.108  25.770  0.00  0.00    +0.004 A 
ATOM     20  C   UNL     1       9.280   6.248  25.054  0.00  0.00    +0.045 A 
ENDBRANCH  14  15
ENDBRANCH  13  14
ENDBRANCH   2  13
BRANCH   3  21
ATOM     21  C   UNL     1       6.298   2.651  22.443  0.00  0.00    +0.145 C 
BRANCH  21  22
ATOM     22  C   UNL     1       6.238   4.150  22.593  0.00  0.00    -0.030 A 
ATOM     23  C   UNL     1       5.211   4.793  23.296  0.00  0.00    +0.005 A 
ATOM     24  C   UNL     1       5.196   6.184  23.419  0.00  0.00    +0.000 A 
ATOM     25  C   UNL     1       6.193   6.952  22.822  0.00  0.00    +0.000 A 
ATOM     26  C   UNL     1       7.177   6.334  22.056  0.00  0.00    +0.000 A 
ATOM     27  C   UNL     1       7.189   4.943  21.930  0.00  0.00    +0.005 A 
ENDBRANCH  21  22
ENDBRANCH   3  21
BRANCH   6  28
ATOM     28  C   UNL     1       8.387  -0.450  25.598  0.00  0.00    +0.145 C 
BRANCH  28  29
ATOM     29  C   UNL     1       7.719  -1.721  26.060  0.00  0.00    -0.030 A 
ATOM     30  C   UNL     1       6.350  -1.764  26.351  0.00  0.00    +0.005 A 
ATOM     31  C   UNL     1       5.756  -2.958  26.766  0.00  0.00    +0.000 A 
ATOM     32  C   UNL     1       6.522  -4.116  26.896  0.00  0.00    +0.000 A 
ATOM     33  C   UNL     1       7.885  -4.083  26.615  0.00  0.00    +0.000 A 
ATOM     34  C   UNL     1       8.481  -2.893  26.200  0.00  0.00    +0.005 A 
ENDBRANCH  28  29
ENDBRANCH   6  28
BRANCH   7  35
ATOM     35  C   UNL     1       8.918  -2.180  23.321  0.00  0.00    +0.254 C 
BRANCH  35  36
ATOM     36  O   UNL     1       8.309  -2.991  22.314  0.00  0.00    -0.490 OA
BRANCH  36  37
ATOM     37  C   UNL     1       7.215  -3.696  22.740  0.00  0.00    +0.121 A 
ATOM     38  C   UNL     1       6.040  -2.958  22.868  0.00  0.00    +0.045 A 
ATOM     39  C   UNL     1       4.871  -3.577  23.302  0.00  0.00    +0.004 A 
ATOM     40  C   UNL     1       4.870  -4.940  23.613  0.00  0.00    +0.000 A 
ATOM     41  C   UNL     1       6.047  -5.675  23.507  0.00  0.00    +0.004 A 
ATOM     42  C   UNL     1       7.216  -5.054  23.074  0.00  0.00    +0.045 A 
ENDBRANCH  36  37
ENDBRANCH  35  36
ENDBRANCH   7  35
TORSDOF 12
ENDMDL
MODEL 4
REMARK VINA RESULT:      -7.0      1.369      8.455
REMARK  Name = 
REMARK  12 active torsions:
REMARK  status: ('A' for Active; 'I' for Inactive)
REMARK    1  A    between atoms: O_1  and  C_2
REMARK    2  A    between atoms: C_4  and  O_6
REMARK    3  A    between atoms: C_7  and  C_9
REMARK    4  A    between atoms: C_9  and  O_10
REMARK    5  A    between atoms: O_10  and  C_11
REMARK    6  A    between atoms: N_17  and  C_18
REMARK    7  A    between atoms: C_18  and  C_19
REMARK    8  A    between atoms: N_27  and  C_28
REMARK    9  A    between atoms: C_28  and  C_29
REMARK   10  A    between atoms: C_35  and  C_37
REMARK   11  A    between atoms: C_37  and  O_38
REMARK   12  A    between atoms: O_38  and  C_39
REMARK                            x       y       z     vdW  Elec       q    Type
REMARK                         _______ _______ _______ _____ _____    ______ ____
ROOT
ATOM      1  C   UNL     1      10.382   0.240  23.948  0.00  0.00    +0.169 C 
ATOM      2  C   UNL     1       9.312  -0.881  23.970  0.00  0.00    +0.146 C 
ATOM      3  N   UNL     1       8.317  -0.648  25.065  0.00  0.00    -0.272 N 
ATOM      4  C   UNL     1       7.308   0.310  25.004  0.00  0.00    +0.306 C 
ATOM      5  O   UNL     1       6.397   0.374  25.821  0.00  0.00    -0.252 OA
ATOM      6  N   UNL     1       7.487   1.263  24.024  0.00  0.00    -0.272 N 
ATOM      7  C   UNL     1       8.669   2.142  24.206  0.00  0.00    +0.146 C 
ATOM      8  C   UNL     1       9.912   1.625  23.454  0.00  0.00    +0.169 C 
ENDROOT
BRANCH   1   9
ATOM      9  O   UNL     1      10.958   0.375  25.263  0.00  0.00    -0.387 OA
ATOM     10  H   UNL     1      11.608  -0.344  25.369  0.00  0.00    +0.210 HD
ENDBRANCH   1   9
BRANCH   8  11
ATOM     11  O   UNL     1       9.664   1.636  22.047  0.00  0.00    -0.387 OA
ATOM     12  H   UNL     1      10.052   0.826  21.668  0.00  0.00    +0.210 HD
ENDBRANCH   8  11
BRANCH   2  13
ATOM     13  C   UNL     1       8.676  -1.205  22.584  0.00  0.00    +0.254 C 
BRANCH  13  14
ATOM     14  O   UNL     1       8.658  -2.620  22.311  0.00  0.00    -0.490 OA
BRANCH  14  15
ATOM     15  C   UNL     1       7.463  -3.256  22.564  0.00  0.00    +0.121 A 
ATOM     16  C   UNL     1       6.270  -2.615  22.908  0.00  0.00    +0.045 A 
ATOM     17  C   UNL     1       5.110  -3.360  23.173  0.00  0.00    +0.004 A 
ATOM     18  C   UNL     1       5.139  -4.751  23.096  0.00  0.00    +0.000 A 
ATOM     19  C   UNL     1       6.326  -5.400  22.767  0.00  0.00    +0.004 A 
ATOM     20  C   UNL     1       7.484  -4.655  22.512  0.00  0.00    +0.045 A 
ENDBRANCH  14  15
ENDBRANCH  13  14
ENDBRANCH   2  13
BRANCH   3  21
ATOM     21  C   UNL     1       8.462  -1.395  26.323  0.00  0.00    +0.145 C 
BRANCH  21  22
ATOM     22  C   UNL     1       7.897  -2.794  26.343  0.00  0.00    -0.030 A 
ATOM     23  C   UNL     1       6.569  -3.061  26.695  0.00  0.00    +0.005 A 
ATOM     24  C   UNL     1       6.081  -4.370  26.691  0.00  0.00    +0.000 A 
ATOM     25  C   UNL     1       6.922  -5.430  26.359  0.00  0.00    +0.000 A 
ATOM     26  C   UNL     1       8.265  -5.188  26.082  0.00  0.00    +0.000 A 
ATOM     27  C   UNL     1       8.752  -3.880  26.090  0.00  0.00    +0.005 A 
ENDBRANCH  21  22
ENDBRANCH   3  21
BRANCH   6  28
ATOM     28  C   UNL     1       6.421   1.643  23.078  0.00  0.00    +0.145 C 
BRANCH  28  29
ATOM     29  C   UNL     1       5.469   2.732  23.506  0.00  0.00    -0.030 A 
ATOM     30  C   UNL     1       4.672   2.599  24.649  0.00  0.00    +0.005 A 
ATOM     31  C   UNL     1       3.808   3.629  25.028  0.00  0.00    +0.000 A 
ATOM     32  C   UNL     1       3.730   4.796  24.269  0.00  0.00    +0.000 A 
ATOM     33  C   UNL     1       4.513   4.936  23.126  0.00  0.00    +0.000 A 
ATOM     34  C   UNL     1       5.378   3.910  22.747  0.00  0.00    +0.005 A 
ENDBRANCH  28  29
ENDBRANCH   6  28
BRANCH   7  35
ATOM     35  C   UNL     1       8.380   3.622  23.918  0.00  0.00    +0.254 C 
BRANCH  35  36
ATOM     36  O   UNL     1       9.446   4.206  23.168  0.00  0.00    -0.490 OA
BRANCH  36  37
ATOM     37  C   UNL     1      10.189   5.124  23.861  0.00  0.00    +0.121 A 
ATOM     38  C   UNL     1      11.548   5.154  23.548  0.00  0.00    +0.045 A 
ATOM     39  C   UNL     1      12.394   6.046  24.201  0.00  0.00    +0.004 A 
ATOM     40  C   UNL     1      11.888   6.914  25.174  0.00  0.00    +0.000 A 
ATOM     41  C   UNL     1      10.536   6.872  25.503  0.00  0.00    +0.004 A 
ATOM     42  C   UNL     1       9.691   5.978  24.850  0.00  0.00    +0.045 A 
ENDBRANCH  36  37
ENDBRANCH  35  36
ENDBRANCH   7  35
TORSDOF 12
ENDMDL
MODEL 5
REMARK VINA RESULT:      -6.9      1.228      8.555
REMARK  Name = 
REMARK  12 active torsions:
REMARK  status: ('A' for Active; 'I' for Inactive)
REMARK    1  A    between atoms: O_1  and  C_2
REMARK    2  A    between atoms: C_4  and  O_6
REMARK    3  A    between atoms: C_7  and  C_9
REMARK    4  A    between atoms: C_9  and  O_10
REMARK    5  A    between atoms: O_10  and  C_11
REMARK    6  A    between atoms: N_17  and  C_18
REMARK    7  A    between atoms: C_18  and  C_19
REMARK    8  A    between atoms: N_27  and  C_28
REMARK    9  A    between atoms: C_28  and  C_29
REMARK   10  A    between atoms: C_35  and  C_37
REMARK   11  A    between atoms: C_37  and  O_38
REMARK   12  A    between atoms: O_38  and  C_39
REMARK                            x       y       z     vdW  Elec       q    Type
REMARK                         _______ _______ _______ _____ _____    ______ ____
ROOT
ATOM      1  C   UNL     1       9.740  -1.779  22.872  0.00  0.00    +0.169 C 
ATOM      2  C   UNL     1       8.371  -2.179  23.477  0.00  0.00    +0.146 C 
ATOM      3  N   UNL     1       8.051  -1.339  24.674  0.00  0.00    -0.272 N 
ATOM      4  C   UNL     1       7.628  -0.013  24.600  0.00  0.00    +0.306 C 
ATOM      5  O   UNL     1       7.202   0.607  25.567  0.00  0.00    -0.252 OA
ATOM      6  N   UNL     1       7.848   0.586  23.378  0.00  0.00    -0.272 N 
ATOM      7  C   UNL     1       9.275   0.747  23.002  0.00  0.00    +0.146 C 
ATOM      8  C   UNL     1       9.795  -0.421  22.140  0.00  0.00    +0.169 C 
ENDROOT
BRANCH   1   9
ATOM      9  O   UNL     1      10.744  -1.803  23.907  0.00  0.00    -0.387 OA
ATOM     10  H   UNL     1      11.452  -1.189  23.637  0.00  0.00    +0.210 HD
ENDBRANCH   1   9
BRANCH   8  11
ATOM     11  O   UNL     1       9.092  -0.453  20.897  0.00  0.00    -0.387 OA
ATOM     12  H   UNL     1       8.273  -0.965  21.029  0.00  0.00    +0.210 HD
ENDBRANCH   8  11
BRANCH   2  13
ATOM     13  C   UNL     1       7.208  -2.294  22.445  0.00  0.00    +0.254 C 
BRANCH  13  14
ATOM     14  O   UNL     1       7.015  -3.648  21.991  0.00  0.00    -0.490 OA
BRANCH  14  15
ATOM     15  C   UNL     1       6.074  -4.376  22.687  0.00  0.00    +0.121 A 
ATOM     16  C   UNL     1       6.174  -5.737  22.985  0.00  0.00    +0.045 A 
ATOM     17  C   UNL     1       5.144  -6.393  23.679  0.00  0.00    +0.004 A 
ATOM     18  C   UNL     1       4.009  -5.688  24.076  0.00  0.00    +0.000 A 
ATOM     19  C   UNL     1       3.895  -4.334  23.772  0.00  0.00    +0.004 A 
ATOM     20  C   UNL     1       4.919  -3.685  23.072  0.00  0.00    +0.045 A 
ENDBRANCH  14  15
ENDBRANCH  13  14
ENDBRANCH   2  13
BRANCH   3  21
ATOM     21  C   UNL     1       8.287  -1.896  26.014  0.00  0.00    +0.145 C 
BRANCH  21  22
ATOM     22  C   UNL     1       7.468  -3.105  26.393  0.00  0.00    -0.030 A 
ATOM     23  C   UNL     1       6.134  -3.007  26.807  0.00  0.00    +0.005 A 
ATOM     24  C   UNL     1       5.407  -4.152  27.140  0.00  0.00    +0.000 A 
ATOM     25  C   UNL     1       6.010  -5.407  27.087  0.00  0.00    +0.000 A 
ATOM     26  C   UNL     1       7.357  -5.513  26.751  0.00  0.00    +0.000 A 
ATOM     27  C   UNL     1       8.085  -4.367  26.422  0.00  0.00    +0.005 A 
ENDBRANCH  21  22
ENDBRANCH   3  21
BRANCH   6  28
ATOM     28  C   UNL     1       6.804   1.343  22.662  0.00  0.00    +0.145 C 
BRANCH  28  29
ATOM     29  C   UNL     1       6.579   2.776  23.075  0.00  0.00    -0.030 A 
ATOM     30  C   UNL     1       6.300   3.120  24.403  0.00  0.00    +0.005 A 
ATOM     31  C   UNL     1       6.108   4.457  24.759  0.00  0.00    +0.000 A 
ATOM     32  C   UNL     1       6.190   5.459  23.793  0.00  0.00    +0.000 A 
ATOM     33  C   UNL     1       6.461   5.128  22.468  0.00  0.00    +0.000 A 
ATOM     34  C   UNL     1       6.654   3.795  22.111  0.00  0.00    +0.005 A 
ENDBRANCH  28  29
ENDBRANCH   6  28
BRANCH   7  35
ATOM     35  C   UNL     1       9.594   2.118  22.390  0.00  0.00    +0.254 C 
BRANCH  35  36
ATOM     36  O   UNL     1      10.921   2.525  22.731  0.00  0.00    -0.490 OA
BRANCH  36  37
ATOM     37  C   UNL     1      11.006   3.778  23.279  0.00  0.00    +0.121 A 
ATOM     38  C   UNL     1       9.829   4.263  23.847  0.00  0.00    +0.045 A 
ATOM     39  C   UNL     1       9.804   5.529  24.424  0.00  0.00    +0.004 A 
ATOM     40  C   UNL     1      10.957   6.322  24.434  0.00  0.00    +0.000 A 
ATOM     41  C   UNL     1      12.127   5.848  23.849  0.00  0.00    +0.004 A 
ATOM     42  C   UNL     1      12.150   4.581  23.271  0.00  0.00    +0.045 A 
ENDBRANCH  36  37
ENDBRANCH  35  36
ENDBRANCH   7  35
TORSDOF 12
ENDMDL
MODEL 6
REMARK VINA RESULT:      -6.9      2.117      8.212
REMARK  Name = 
REMARK  12 active torsions:
REMARK  status: ('A' for Active; 'I' for Inactive)
REMARK    1  A    between atoms: O_1  and  C_2
REMARK    2  A    between atoms: C_4  and  O_6
REMARK    3  A    between atoms: C_7  and  C_9
REMARK    4  A    between atoms: C_9  and  O_10
REMARK    5  A    between atoms: O_10  and  C_11
REMARK    6  A    between atoms: N_17  and  C_18
REMARK    7  A    between atoms: C_18  and  C_19
REMARK    8  A    between atoms: N_27  and  C_28
REMARK    9  A    between atoms: C_28  and  C_29
REMARK   10  A    between atoms: C_35  and  C_37
REMARK   11  A    between atoms: C_37  and  O_38
REMARK   12  A    between atoms: O_38  and  C_39
REMARK                            x       y       z     vdW  Elec       q    Type
REMARK                         _______ _______ _______ _____ _____    ______ ____
ROOT
ATOM      1  C   UNL     1       8.821  -1.051  26.763  0.00  0.00    +0.169 C 
ATOM      2  C   UNL     1       7.600  -2.004  26.708  0.00  0.00    +0.146 C 
ATOM      3  N   UNL     1       6.337  -1.240  26.455  0.00  0.00    -0.272 N 
ATOM      4  C   UNL     1       5.983  -0.719  25.213  0.00  0.00    +0.306 C 
ATOM      5  O   UNL     1       4.875  -0.252  24.975  0.00  0.00    -0.252 OA
ATOM      6  N   UNL     1       7.020  -0.652  24.308  0.00  0.00    -0.272 N 
ATOM      7  C   UNL     1       8.119   0.276  24.674  0.00  0.00    +0.146 C 
ATOM      8  C   UNL     1       9.267  -0.433  25.421  0.00  0.00    +0.169 C 
ENDROOT
BRANCH   1   9
ATOM      9  O   UNL     1       8.559   0.005  27.710  0.00  0.00    -0.387 OA
ATOM     10  H   UNL     1       7.613   0.230  27.637  0.00  0.00    +0.210 HD
ENDBRANCH   1   9
BRANCH   8  11
ATOM     11  O   UNL     1       9.877  -1.398  24.563  0.00  0.00    -0.387 OA
ATOM     12  H   UNL     1       9.781  -2.273  24.981  0.00  0.00    +0.210 HD
ENDBRANCH   8  11
BRANCH   2  13
ATOM     13  C   UNL     1       7.787  -3.254  25.796  0.00  0.00    +0.254 C 
BRANCH  13  14
ATOM     14  O   UNL     1       8.080  -4.443  26.555  0.00  0.00    -0.490 OA
BRANCH  14  15
ATOM     15  C   UNL     1       6.988  -5.209  26.898  0.00  0.00    +0.121 A 
ATOM     16  C   UNL     1       6.624  -5.548  28.204  0.00  0.00    +0.045 A 
ATOM     17  C   UNL     1       5.503  -6.359  28.445  0.00  0.00    +0.004 A 
ATOM     18  C   UNL     1       4.743  -6.836  27.379  0.00  0.00    +0.000 A 
ATOM     19  C   UNL     1       5.105  -6.515  26.074  0.00  0.00    +0.004 A 
ATOM     20  C   UNL     1       6.228  -5.714  25.836  0.00  0.00    +0.045 A 
ENDBRANCH  14  15
ENDBRANCH  13  14
ENDBRANCH   2  13
BRANCH   3  21
ATOM     21  C   UNL     1       5.459  -0.926  27.593  0.00  0.00    +0.145 C 
BRANCH  21  22
ATOM     22  C   UNL     1       4.459  -1.987  27.981  0.00  0.00    -0.030 A 
ATOM     23  C   UNL     1       3.855  -2.829  27.040  0.00  0.00    +0.005 A 
ATOM     24  C   UNL     1       2.941  -3.805  27.442  0.00  0.00    +0.000 A 
ATOM     25  C   UNL     1       2.600  -3.935  28.786  0.00  0.00    +0.000 A 
ATOM     26  C   UNL     1       3.133  -3.055  29.724  0.00  0.00    +0.000 A 
ATOM     27  C   UNL     1       4.044  -2.077  29.321  0.00  0.00    +0.005 A 
ENDBRANCH  21  22
ENDBRANCH   3  21
BRANCH   6  28
ATOM     28  C   UNL     1       6.905  -1.152  22.925  0.00  0.00    +0.145 C 
BRANCH  28  29
ATOM     29  C   UNL     1       6.538  -2.603  22.739  0.00  0.00    -0.030 A 
ATOM     30  C   UNL     1       5.240  -3.067  22.981  0.00  0.00    +0.005 A 
ATOM     31  C   UNL     1       4.927  -4.414  22.790  0.00  0.00    +0.000 A 
ATOM     32  C   UNL     1       5.906  -5.309  22.358  0.00  0.00    +0.000 A 
ATOM     33  C   UNL     1       7.202  -4.860  22.120  0.00  0.00    +0.000 A 
ATOM     34  C   UNL     1       7.517  -3.515  22.309  0.00  0.00    +0.005 A 
ENDBRANCH  28  29
ENDBRANCH   6  28
BRANCH   7  35
ATOM     35  C   UNL     1       8.618   1.127  23.498  0.00  0.00    +0.254 C 
BRANCH  35  36
ATOM     36  O   UNL     1       9.958   1.568  23.729  0.00  0.00    -0.490 OA
BRANCH  36  37
ATOM     37  C   UNL     1      10.104   2.929  23.783  0.00  0.00    +0.121 A 
ATOM     38  C   UNL     1      11.344   3.414  23.371  0.00  0.00    +0.045 A 
ATOM     39  C   UNL     1      11.601   4.781  23.393  0.00  0.00    +0.004 A 
ATOM     40  C   UNL     1      10.618   5.675  23.831  0.00  0.00    +0.000 A 
ATOM     41  C   UNL     1       9.387   5.192  24.263  0.00  0.00    +0.004 A 
ATOM     42  C   UNL     1       9.132   3.823  24.241  0.00  0.00    +0.045 A 
ENDBRANCH  36  37
ENDBRANCH  35  36
ENDBRANCH   7  35
TORSDOF 12
ENDMDL
MODEL 7
REMARK VINA RESULT:      -6.8      3.009      5.132
REMARK  Name = 
REMARK  12 active torsions:
REMARK  status: ('A' for Active; 'I' for Inactive)
REMARK    1  A    between atoms: O_1  and  C_2
REMARK    2  A    between atoms: C_4  and  O_6
REMARK    3  A    between atoms: C_7  and  C_9
REMARK    4  A    between atoms: C_9  and  O_10
REMARK    5  A    between atoms: O_10  and  C_11
REMARK    6  A    between atoms: N_17  and  C_18
REMARK    7  A    between atoms: C_18  and  C_19
REMARK    8  A    between atoms: N_27  and  C_28
REMARK    9  A    between atoms: C_28  and  C_29
REMARK   10  A    between atoms: C_35  and  C_37
REMARK   11  A    between atoms: C_37  and  O_38
REMARK   12  A    between atoms: O_38  and  C_39
REMARK                            x       y       z     vdW  Elec       q    Type
REMARK                         _______ _______ _______ _____ _____    ______ ____
ROOT
ATOM      1  C   UNL     1       8.677  -4.558  25.622  0.00  0.00    +0.169 C 
ATOM      2  C   UNL     1       8.316  -3.108  25.211  0.00  0.00    +0.146 C 
ATOM      3  N   UNL     1       7.433  -3.101  24.002  0.00  0.00    -0.272 N 
ATOM      4  C   UNL     1       6.079  -3.428  24.029  0.00  0.00    +0.306 C 
ATOM      5  O   UNL     1       5.329  -3.250  23.077  0.00  0.00    -0.252 OA
ATOM      6  N   UNL     1       5.676  -4.088  25.170  0.00  0.00    -0.272 N 
ATOM      7  C   UNL     1       6.272  -5.433  25.365  0.00  0.00    +0.146 C 
ATOM      8  C   UNL     1       7.540  -5.397  26.243  0.00  0.00    +0.169 C 
ENDROOT
BRANCH   1   9
ATOM      9  O   UNL     1       9.217  -5.256  24.482  0.00  0.00    -0.387 OA
ATOM     10  H   UNL     1       8.496  -5.349  23.832  0.00  0.00    +0.210 HD
ENDBRANCH   1   9
BRANCH   8  11
ATOM     11  O   UNL     1       7.203  -4.954  27.559  0.00  0.00    -0.387 OA
ATOM     12  H   UNL     1       6.233  -4.989  27.647  0.00  0.00    +0.210 HD
ENDBRANCH   8  11
BRANCH   2  13
ATOM     13  C   UNL     1       7.813  -2.203  26.377  0.00  0.00    +0.254 C 
BRANCH  13  14
ATOM     14  O   UNL     1       8.837  -1.305  26.849  0.00  0.00    -0.490 OA
BRANCH  14  15
ATOM     15  C   UNL     1       8.951  -0.121  26.152  0.00  0.00    +0.121 A 
ATOM     16  C   UNL     1       8.001   0.903  26.149  0.00  0.00    +0.045 A 
ATOM     17  C   UNL     1       8.202   2.061  25.381  0.00  0.00    +0.004 A 
ATOM     18  C   UNL     1       9.356   2.198  24.611  0.00  0.00    +0.000 A 
ATOM     19  C   UNL     1      10.302   1.177  24.597  0.00  0.00    +0.004 A 
ATOM     20  C   UNL     1      10.095   0.019  25.356  0.00  0.00    +0.045 A 
ENDBRANCH  14  15
ENDBRANCH  13  14
ENDBRANCH   2  13
BRANCH   3  21
ATOM     21  C   UNL     1       8.035  -2.834  22.687  0.00  0.00    +0.145 C 
BRANCH  21  22
ATOM     22  C   UNL     1       8.145  -1.385  22.281  0.00  0.00    -0.030 A 
ATOM     23  C   UNL     1       9.251  -0.883  21.584  0.00  0.00    +0.005 A 
ATOM     24  C   UNL     1       9.311   0.463  21.218  0.00  0.00    +0.000 A 
ATOM     25  C   UNL     1       8.277   1.330  21.566  0.00  0.00    +0.000 A 
ATOM     26  C   UNL     1       7.208   0.864  22.325  0.00  0.00    +0.000 A 
ATOM     27  C   UNL     1       7.151  -0.482  22.694  0.00  0.00    +0.005 A 
ENDBRANCH  21  22
ENDBRANCH   3  21
BRANCH   6  28
ATOM     28  C   UNL     1       4.488  -3.686  25.947  0.00  0.00    +0.145 C 
BRANCH  28  29
ATOM     29  C   UNL     1       4.530  -2.344  26.636  0.00  0.00    -0.030 A 
ATOM     30  C   UNL     1       4.592  -1.150  25.909  0.00  0.00    +0.005 A 
ATOM     31  C   UNL     1       4.617   0.078  26.573  0.00  0.00    +0.000 A 
ATOM     32  C   UNL     1       4.584   0.124  27.966  0.00  0.00    +0.000 A 
ATOM     33  C   UNL     1       4.528  -1.059  28.700  0.00  0.00    +0.000 A 
ATOM     34  C   UNL     1       4.501  -2.285  28.039  0.00  0.00    +0.005 A 
ENDBRANCH  28  29
ENDBRANCH   6  28
BRANCH   7  35
ATOM     35  C   UNL     1       5.260  -6.487  25.836  0.00  0.00    +0.254 C 
BRANCH  35  36
ATOM     36  O   UNL     1       4.763  -7.237  24.726  0.00  0.00    -0.490 OA
BRANCH  36  37
ATOM     37  C   UNL     1       3.483  -6.919  24.355  0.00  0.00    +0.121 A 
ATOM     38  C   UNL     1       2.475  -7.561  25.074  0.00  0.00    +0.045 A 
ATOM     39  C   UNL     1       1.139  -7.314  24.773  0.00  0.00    +0.004 A 
ATOM     40  C   UNL     1       0.801  -6.424  23.749  0.00  0.00    +0.000 A 
ATOM     41  C   UNL     1       1.805  -5.798  23.016  0.00  0.00    +0.004 A 
ATOM     42  C   UNL     1       3.141  -6.047  23.317  0.00  0.00    +0.045 A 
ENDBRANCH  36  37
ENDBRANCH  35  36
ENDBRANCH   7  35
TORSDOF 12
ENDMDL
MODEL 8
REMARK VINA RESULT:      -6.8      3.042      5.405
REMARK  Name = 
REMARK  12 active torsions:
REMARK  status: ('A' for Active; 'I' for Inactive)
REMARK    1  A    between atoms: O_1  and  C_2
REMARK    2  A    between atoms: C_4  and  O_6
REMARK    3  A    between atoms: C_7  and  C_9
REMARK    4  A    between atoms: C_9  and  O_10
REMARK    5  A    between atoms: O_10  and  C_11
REMARK    6  A    between atoms: N_17  and  C_18
REMARK    7  A    between atoms: C_18  and  C_19
REMARK    8  A    between atoms: N_27  and  C_28
REMARK    9  A    between atoms: C_28  and  C_29
REMARK   10  A    between atoms: C_35  and  C_37
REMARK   11  A    between atoms: C_37  and  O_38
REMARK   12  A    between atoms: O_38  and  C_39
REMARK                            x       y       z     vdW  Elec       q    Type
REMARK                         _______ _______ _______ _____ _____    ______ ____
ROOT
ATOM      1  C   UNL     1       8.535  -4.809  25.322  0.00  0.00    +0.169 C 
ATOM      2  C   UNL     1       8.229  -3.324  25.003  0.00  0.00    +0.146 C 
ATOM      3  N   UNL     1       7.104  -3.210  24.021  0.00  0.00    -0.272 N 
ATOM      4  C   UNL     1       5.765  -3.412  24.351  0.00  0.00    +0.306 C 
ATOM      5  O   UNL     1       4.843  -3.146  23.590  0.00  0.00    -0.252 OA
ATOM      6  N   UNL     1       5.566  -4.057  25.553  0.00  0.00    -0.272 N 
ATOM      7  C   UNL     1       6.062  -5.455  25.609  0.00  0.00    +0.146 C 
ATOM      8  C   UNL     1       7.491  -5.553  26.181  0.00  0.00    +0.169 C 
ENDROOT
BRANCH   1   9
ATOM      9  O   UNL     1       8.739  -5.529  24.090  0.00  0.00    -0.387 OA
ATOM     10  H   UNL     1       9.307  -4.976  23.523  0.00  0.00    +0.210 HD
ENDBRANCH   1   9
BRANCH   8  11
ATOM     11  O   UNL     1       7.498  -5.110  27.539  0.00  0.00    -0.387 OA
ATOM     12  H   UNL     1       6.589  -5.186  27.883  0.00  0.00    +0.210 HD
ENDBRANCH   8  11
BRANCH   2  13
ATOM     13  C   UNL     1       8.085  -2.402  26.252  0.00  0.00    +0.254 C 
BRANCH  13  14
ATOM     14  O   UNL     1       9.230  -1.545  26.430  0.00  0.00    -0.490 OA
BRANCH  14  15
ATOM     15  C   UNL     1       9.109  -0.279  25.899  0.00  0.00    +0.121 A 
ATOM     16  C   UNL     1      10.088   0.371  25.143  0.00  0.00    +0.045 A 
ATOM     17  C   UNL     1       9.874   1.676  24.669  0.00  0.00    +0.004 A 
ATOM     18  C   UNL     1       8.680   2.335  24.951  0.00  0.00    +0.000 A 
ATOM     19  C   UNL     1       7.703   1.700  25.715  0.00  0.00    +0.004 A 
ATOM     20  C   UNL     1       7.922   0.403  26.194  0.00  0.00    +0.045 A 
ENDBRANCH  14  15
ENDBRANCH  13  14
ENDBRANCH   2  13
BRANCH   3  21
ATOM     21  C   UNL     1       7.421  -2.971  22.606  0.00  0.00    +0.145 C 
BRANCH  21  22
ATOM     22  C   UNL     1       7.876  -1.578  22.245  0.00  0.00    -0.030 A 
ATOM     23  C   UNL     1       9.147  -1.316  21.721  0.00  0.00    +0.005 A 
ATOM     24  C   UNL     1       9.527  -0.013  21.392  0.00  0.00    +0.000 A 
ATOM     25  C   UNL     1       8.649   1.048  21.605  0.00  0.00    +0.000 A 
ATOM     26  C   UNL     1       7.411   0.813  22.197  0.00  0.00    +0.000 A 
ATOM     27  C   UNL     1       7.034  -0.489  22.529  0.00  0.00    +0.005 A 
ENDBRANCH  21  22
ENDBRANCH   3  21
BRANCH   6  28
ATOM     28  C   UNL     1       4.624  -3.564  26.575  0.00  0.00    +0.145 C 
BRANCH  28  29
ATOM     29  C   UNL     1       3.160  -3.865  26.372  0.00  0.00    -0.030 A 
ATOM     30  C   UNL     1       2.428  -3.273  25.337  0.00  0.00    +0.005 A 
ATOM     31  C   UNL     1       1.076  -3.579  25.166  0.00  0.00    +0.000 A 
ATOM     32  C   UNL     1       0.445  -4.476  26.027  0.00  0.00    +0.000 A 
ATOM     33  C   UNL     1       1.162  -5.067  27.063  0.00  0.00    +0.000 A 
ATOM     34  C   UNL     1       2.511  -4.764  27.235  0.00  0.00    +0.005 A 
ENDBRANCH  28  29
ENDBRANCH   6  28
BRANCH   7  35
ATOM     35  C   UNL     1       5.085  -6.422  26.293  0.00  0.00    +0.254 C 
BRANCH  35  36
ATOM     36  O   UNL     1       4.713  -7.475  25.401  0.00  0.00    -0.490 OA
BRANCH  36  37
ATOM     37  C   UNL     1       3.553  -7.246  24.709  0.00  0.00    +0.121 A 
ATOM     38  C   UNL     1       2.440  -7.958  25.153  0.00  0.00    +0.045 A 
ATOM     39  C   UNL     1       1.214  -7.805  24.515  0.00  0.00    +0.004 A 
ATOM     40  C   UNL     1       1.091  -6.939  23.424  0.00  0.00    +0.000 A 
ATOM     41  C   UNL     1       2.205  -6.242  22.964  0.00  0.00    +0.004 A 
ATOM     42  C   UNL     1       3.432  -6.398  23.604  0.00  0.00    +0.045 A 
ENDBRANCH  36  37
ENDBRANCH  35  36
ENDBRANCH   7  35
TORSDOF 12
ENDMDL
MODEL 9
REMARK VINA RESULT:      -6.8      3.005      8.363
REMARK  Name = 
REMARK  12 active torsions:
REMARK  status: ('A' for Active; 'I' for Inactive)
REMARK    1  A    between atoms: O_1  and  C_2
REMARK    2  A    between atoms: C_4  and  O_6
REMARK    3  A    between atoms: C_7  and  C_9
REMARK    4  A    between atoms: C_9  and  O_10
REMARK    5  A    between atoms: O_10  and  C_11
REMARK    6  A    between atoms: N_17  and  C_18
REMARK    7  A    between atoms: C_18  and  C_19
REMARK    8  A    between atoms: N_27  and  C_28
REMARK    9  A    between atoms: C_28  and  C_29
REMARK   10  A    between atoms: C_35  and  C_37
REMARK   11  A    between atoms: C_37  and  O_38
REMARK   12  A    between atoms: O_38  and  C_39
REMARK                            x       y       z     vdW  Elec       q    Type
REMARK                         _______ _______ _______ _____ _____    ______ ____
ROOT
ATOM      1  C   UNL     1       6.660  -5.341  22.654  0.00  0.00    +0.169 C 
ATOM      2  C   UNL     1       5.774  -5.094  23.902  0.00  0.00    +0.146 C 
ATOM      3  N   UNL     1       6.562  -4.437  24.993  0.00  0.00    -0.272 N 
ATOM      4  C   UNL     1       6.923  -3.091  24.985  0.00  0.00    +0.306 C 
ATOM      5  O   UNL     1       7.410  -2.525  25.956  0.00  0.00    -0.252 OA
ATOM      6  N   UNL     1       6.807  -2.479  23.756  0.00  0.00    -0.272 N 
ATOM      7  C   UNL     1       7.717  -2.997  22.704  0.00  0.00    +0.146 C 
ATOM      8  C   UNL     1       7.059  -4.092  21.840  0.00  0.00    +0.169 C 
ENDROOT
BRANCH   1   9
ATOM      9  O   UNL     1       7.850  -6.054  23.047  0.00  0.00    -0.387 OA
ATOM     10  H   UNL     1       7.656  -6.494  23.895  0.00  0.00    +0.210 HD
ENDBRANCH   1   9
BRANCH   8  11
ATOM     11  O   UNL     1       5.953  -3.541  21.124  0.00  0.00    -0.387 OA
ATOM     12  H   UNL     1       5.817  -2.629  21.439  0.00  0.00    +0.210 HD
ENDBRANCH   8  11
BRANCH   2  13
ATOM     13  C   UNL     1       4.401  -4.418  23.606  0.00  0.00    +0.254 C 
BRANCH  13  14
ATOM     14  O   UNL     1       3.314  -5.073  24.290  0.00  0.00    -0.490 OA
BRANCH  14  15
ATOM     15  C   UNL     1       2.897  -4.465  25.454  0.00  0.00    +0.121 A 
ATOM     16  C   UNL     1       3.340  -3.222  25.914  0.00  0.00    +0.045 A 
ATOM     17  C   UNL     1       2.871  -2.703  27.131  0.00  0.00    +0.004 A 
ATOM     18  C   UNL     1       1.957  -3.427  27.894  0.00  0.00    +0.000 A 
ATOM     19  C   UNL     1       1.520  -4.672  27.451  0.00  0.00    +0.004 A 
ATOM     20  C   UNL     1       1.997  -5.192  26.242  0.00  0.00    +0.045 A 
ENDBRANCH  14  15
ENDBRANCH  13  14
ENDBRANCH   2  13
BRANCH   3  21
ATOM     21  C   UNL     1       7.078  -5.267  26.092  0.00  0.00    +0.145 C 
BRANCH  21  22
ATOM     22  C   UNL     1       6.105  -5.598  27.196  0.00  0.00    -0.030 A 
ATOM     23  C   UNL     1       5.319  -6.756  27.182  0.00  0.00    +0.005 A 
ATOM     24  C   UNL     1       4.437  -7.031  28.229  0.00  0.00    +0.000 A 
ATOM     25  C   UNL     1       4.311  -6.139  29.292  0.00  0.00    +0.000 A 
ATOM     26  C   UNL     1       5.028  -4.946  29.283  0.00  0.00    +0.000 A 
ATOM     27  C   UNL     1       5.907  -4.670  28.234  0.00  0.00    +0.005 A 
ENDBRANCH  21  22
ENDBRANCH   3  21
BRANCH   6  28
ATOM     28  C   UNL     1       6.126  -1.184  23.572  0.00  0.00    +0.145 C 
BRANCH  28  29
ATOM     29  C   UNL     1       6.249  -0.169  24.681  0.00  0.00    -0.030 A 
ATOM     30  C   UNL     1       5.306  -0.094  25.713  0.00  0.00    +0.005 A 
ATOM     31  C   UNL     1       5.453   0.847  26.734  0.00  0.00    +0.000 A 
ATOM     32  C   UNL     1       6.539   1.722  26.732  0.00  0.00    +0.000 A 
ATOM     33  C   UNL     1       7.480   1.660  25.708  0.00  0.00    +0.000 A 
ATOM     34  C   UNL     1       7.337   0.720  24.688  0.00  0.00    +0.005 A 
ENDBRANCH  28  29
ENDBRANCH   6  28
BRANCH   7  35
ATOM     35  C   UNL     1       8.368  -1.892  21.860  0.00  0.00    +0.254 C 
BRANCH  35  36
ATOM     36  O   UNL     1       9.736  -1.714  22.233  0.00  0.00    -0.490 OA
BRANCH  36  37
ATOM     37  C   UNL     1      10.046  -0.450  22.662  0.00  0.00    +0.121 A 
ATOM     38  C   UNL     1      10.599  -0.371  23.939  0.00  0.00    +0.045 A 
ATOM     39  C   UNL     1      10.943   0.867  24.473  0.00  0.00    +0.004 A 
ATOM     40  C   UNL     1      10.735   2.036  23.735  0.00  0.00    +0.000 A 
ATOM     41  C   UNL     1      10.164   1.961  22.468  0.00  0.00    +0.004 A 
ATOM     42  C   UNL     1       9.819   0.722  21.935  0.00  0.00    +0.045 A 
ENDBRANCH  36  37
ENDBRANCH  35  36
ENDBRANCH   7  35
TORSDOF 12
ENDMDL
