MODEL 1
REMARK VINA RESULT:      -7.0      0.000      0.000
REMARK  Name = 
REMARK  12 active torsions:
REMARK  status: ('A' for Active; 'I' for Inactive)
REMARK    1  A    between atoms: C_1  and  O_2
REMARK    2  A    between atoms: O_2  and  C_3
REMARK    3  A    between atoms: C_5  and  O_7
REMARK    4  A    between atoms: C_8  and  C_10
REMARK    5  A    between atoms: C_14  and  O_15
REMARK    6  A    between atoms: C_16  and  C_18
REMARK    7  A    between atoms: C_22  and  C_41
REMARK    8  A    between atoms: C_28  and  O_30
REMARK    9  A    between atoms: O_30  and  C_31
REMARK   10  A    between atoms: C_32  and  O_34
REMARK   11  A    between atoms: O_34  and  C_35
REMARK   12  A    between atoms: C_38  and  C_40
REMARK                            x       y       z     vdW  Elec       q    Type
REMARK                         _______ _______ _______ _____ _____    ______ ____
ROOT
ATOM      1  C   UNL     1       8.728  -2.072  24.354  0.00  0.00    +0.206 C 
ATOM      2  C   UNL     1       7.900  -1.706  23.087  0.00  0.00    +0.210 C 
ATOM      3  C   UNL     1       6.441  -1.245  23.400  0.00  0.00    +0.156 C 
ATOM      4  C   UNL     1       6.339   0.276  23.380  0.00  0.00    +0.025 C 
ATOM      5  C   UNL     1       5.745  -1.953  24.593  0.00  0.00    +0.316 C 
ATOM      6  O   UNL     1       5.656  -3.176  24.609  0.00  0.00    -0.250 OA
ATOM      7  O   UNL     1       5.060  -1.208  25.579  0.00  0.00    -0.456 OA
ATOM      8  C   UNL     1       5.565  -0.012  26.166  0.00  0.00    +0.207 C 
ATOM      9  C   UNL     1       4.693   1.279  25.879  0.00  0.00    +0.049 C 
ATOM     10  C   UNL     1       5.398   2.529  26.446  0.00  0.00    +0.004 C 
ATOM     11  C   UNL     1       5.916   3.659  25.556  0.00  0.00    +0.003 C 
ATOM     12  C   UNL     1       7.407   3.872  25.903  0.00  0.00    +0.034 C 
ATOM     13  C   UNL     1       8.171   5.124  25.432  0.00  0.00    +0.150 C 
ATOM     14  C   UNL     1       9.376   4.793  24.485  0.00  0.00    +0.169 C 
ATOM     15  C   UNL     1       9.051   3.881  23.317  0.00  0.00    +0.003 C 
ATOM     16  C   UNL     1       9.597   2.658  23.209  0.00  0.00    -0.023 C 
ATOM     17  C   UNL     1       9.480   1.627  22.102  0.00  0.00    +0.038 C 
ATOM     18  C   UNL     1       8.303   1.858  21.121  0.00  0.00    +0.014 C 
ATOM     19  C   UNL     1       9.676   0.113  22.551  0.00  0.00    +0.134 C 
ATOM     20  C   UNL     1      10.165  -0.213  23.969  0.00  0.00    +0.047 C 
ATOM     21  C   UNL     1      11.433   0.358  24.595  0.00  0.00    +0.013 C 
ATOM     22  O   UNL     1       8.506  -0.685  22.228  0.00  0.00    -0.342 OA
ATOM     23  C   UNL     1      10.189  -1.737  24.078  0.00  0.00    +0.154 C 
ENDROOT
BRANCH   8  24
ATOM     24  C   UNL     1       5.835  -0.064  27.711  0.00  0.00    -0.007 A 
ATOM     25  C   UNL     1       4.763   0.139  28.600  0.00  0.00    +0.007 A 
ATOM     26  C   UNL     1       4.906   1.066  29.643  0.00  0.00    +0.000 A 
ATOM     27  C   UNL     1       6.128   1.706  29.856  0.00  0.00    +0.000 A 
ATOM     28  C   UNL     1       7.250   1.319  29.125  0.00  0.00    +0.000 A 
ATOM     29  C   UNL     1       7.123   0.379  28.098  0.00  0.00    +0.007 A 
ENDBRANCH   8  24
BRANCH   1  31
ATOM     30  C   UNL     1       8.687  -3.508  26.226  0.00  0.00    +0.194 C 
ATOM     31  O   UNL     1       8.621  -3.429  24.795  0.00  0.00    -0.372 OA
ENDBRANCH   1  31
BRANCH   2  32
ATOM     32  O   UNL     1       7.834  -2.862  22.235  0.00  0.00    -0.362 OA
ATOM     33  H   UNL     1       8.394  -2.684  21.454  0.00  0.00    +0.213 HD
ENDBRANCH   2  32
BRANCH  13  34
ATOM     34  O   UNL     1       7.372   6.264  25.135  0.00  0.00    -0.377 OA
ATOM     35  C   UNL     1       6.966   7.100  26.195  0.00  0.00    +0.194 C 
ENDBRANCH  13  34
BRANCH  14  36
ATOM     36  O   UNL     1      10.006   5.998  24.039  0.00  0.00    -0.373 OA
ATOM     37  C   UNL     1      11.395   5.852  23.760  0.00  0.00    +0.194 C 
ENDBRANCH  14  36
BRANCH  23  38
ATOM     38  O   UNL     1      10.713  -2.391  22.904  0.00  0.00    -0.389 OA
ATOM     39  H   UNL     1      11.190  -1.745  22.346  0.00  0.00    +0.210 HD
ENDBRANCH  23  38
TORSDOF 6
ENDMDL
MODEL 2
REMARK VINA RESULT:      -7.0      2.489      6.827
REMARK  Name = 
REMARK  12 active torsions:
REMARK  status: ('A' for Active; 'I' for Inactive)
REMARK    1  A    between atoms: C_1  and  O_2
REMARK    2  A    between atoms: O_2  and  C_3
REMARK    3  A    between atoms: C_5  and  O_7
REMARK    4  A    between atoms: C_8  and  C_10
REMARK    5  A    between atoms: C_14  and  O_15
REMARK    6  A    between atoms: C_16  and  C_18
REMARK    7  A    between atoms: C_22  and  C_41
REMARK    8  A    between atoms: C_28  and  O_30
REMARK    9  A    between atoms: O_30  and  C_31
REMARK   10  A    between atoms: C_32  and  O_34
REMARK   11  A    between atoms: O_34  and  C_35
REMARK   12  A    between atoms: C_38  and  C_40
REMARK                            x       y       z     vdW  Elec       q    Type
REMARK                         _______ _______ _______ _____ _____    ______ ____
ROOT
ATOM      1  C   UNL     1       8.729  -0.146  22.843  0.00  0.00    +0.206 C 
ATOM      2  C   UNL     1       9.626  -0.521  24.059  0.00  0.00    +0.210 C 
ATOM      3  C   UNL     1       9.241   0.222  25.378  0.00  0.00    +0.156 C 
ATOM      4  C   UNL     1       8.394  -0.673  26.275  0.00  0.00    +0.025 C 
ATOM      5  C   UNL     1       8.742   1.682  25.215  0.00  0.00    +0.316 C 
ATOM      6  O   UNL     1       9.440   2.503  24.630  0.00  0.00    -0.250 OA
ATOM      7  O   UNL     1       7.576   2.128  25.875  0.00  0.00    -0.456 OA
ATOM      8  C   UNL     1       6.365   1.381  25.942  0.00  0.00    +0.207 C 
ATOM      9  C   UNL     1       5.936   0.954  27.406  0.00  0.00    +0.049 C 
ATOM     10  C   UNL     1       4.692   0.043  27.349  0.00  0.00    +0.004 C 
ATOM     11  C   UNL     1       4.718  -1.420  27.792  0.00  0.00    +0.003 C 
ATOM     12  C   UNL     1       4.177  -2.268  26.618  0.00  0.00    +0.034 C 
ATOM     13  C   UNL     1       3.770  -3.740  26.810  0.00  0.00    +0.150 C 
ATOM     14  C   UNL     1       4.619  -4.734  25.944  0.00  0.00    +0.169 C 
ATOM     15  C   UNL     1       6.123  -4.565  26.052  0.00  0.00    +0.003 C 
ATOM     16  C   UNL     1       6.863  -4.186  24.996  0.00  0.00    -0.023 C 
ATOM     17  C   UNL     1       8.366  -4.036  24.857  0.00  0.00    +0.038 C 
ATOM     18  C   UNL     1       9.140  -3.974  26.197  0.00  0.00    +0.014 C 
ATOM     19  C   UNL     1       8.853  -2.984  23.766  0.00  0.00    +0.134 C 
ATOM     20  C   UNL     1       7.842  -2.356  22.798  0.00  0.00    +0.047 C 
ATOM     21  C   UNL     1       6.887  -3.150  21.912  0.00  0.00    +0.013 C 
ATOM     22  O   UNL     1       9.682  -1.953  24.366  0.00  0.00    -0.342 OA
ATOM     23  C   UNL     1       8.626  -1.366  21.936  0.00  0.00    +0.154 C 
ENDROOT
BRANCH   8  24
ATOM     24  C   UNL     1       5.113   2.035  25.259  0.00  0.00    -0.007 A 
ATOM     25  C   UNL     1       5.056   2.099  23.854  0.00  0.00    +0.007 A 
ATOM     26  C   UNL     1       4.751   3.321  23.237  0.00  0.00    +0.000 A 
ATOM     27  C   UNL     1       4.414   4.435  24.006  0.00  0.00    +0.000 A 
ATOM     28  C   UNL     1       4.235   4.300  25.382  0.00  0.00    +0.000 A 
ATOM     29  C   UNL     1       4.513   3.080  26.004  0.00  0.00    +0.007 A 
ENDBRANCH   8  24
BRANCH   1  31
ATOM     30  C   UNL     1       8.036   1.700  21.547  0.00  0.00    +0.194 C 
ATOM     31  O   UNL     1       9.160   0.985  22.079  0.00  0.00    -0.372 OA
ENDBRANCH   1  31
BRANCH   2  32
ATOM     32  O   UNL     1      10.989  -0.195  23.740  0.00  0.00    -0.362 OA
ATOM     33  H   UNL     1      11.177   0.686  24.118  0.00  0.00    +0.213 HD
ENDBRANCH   2  32
BRANCH  13  34
ATOM     34  O   UNL     1       3.430  -4.122  28.139  0.00  0.00    -0.377 OA
ATOM     35  C   UNL     1       2.074  -4.102  28.522  0.00  0.00    +0.194 C 
ENDBRANCH  13  34
BRANCH  14  36
ATOM     36  O   UNL     1       4.231  -6.086  26.211  0.00  0.00    -0.373 OA
ATOM     37  C   UNL     1       4.296  -6.938  25.073  0.00  0.00    +0.194 C 
ENDBRANCH  14  36
BRANCH  23  38
ATOM     38  O   UNL     1       9.909  -1.868  21.505  0.00  0.00    -0.389 OA
ATOM     39  H   UNL     1      10.177  -2.623  22.065  0.00  0.00    +0.210 HD
ENDBRANCH  23  38
TORSDOF 6
ENDMDL
MODEL 3
REMARK VINA RESULT:      -6.8      2.484      6.762
REMARK  Name = 
REMARK  12 active torsions:
REMARK  status: ('A' for Active; 'I' for Inactive)
REMARK    1  A    between atoms: C_1  and  O_2
REMARK    2  A    between atoms: O_2  and  C_3
REMARK    3  A    between atoms: C_5  and  O_7
REMARK    4  A    between atoms: C_8  and  C_10
REMARK    5  A    between atoms: C_14  and  O_15
REMARK    6  A    between atoms: C_16  and  C_18
REMARK    7  A    between atoms: C_22  and  C_41
REMARK    8  A    between atoms: C_28  and  O_30
REMARK    9  A    between atoms: O_30  and  C_31
REMARK   10  A    between atoms: C_32  and  O_34
REMARK   11  A    between atoms: O_34  and  C_35
REMARK   12  A    between atoms: C_38  and  C_40
REMARK                            x       y       z     vdW  Elec       q    Type
REMARK                         _______ _______ _______ _____ _____    ______ ____
ROOT
ATOM      1  C   UNL     1       8.329  -2.352  23.081  0.00  0.00    +0.206 C 
ATOM      2  C   UNL     1       8.943  -2.882  24.410  0.00  0.00    +0.210 C 
ATOM      3  C   UNL     1       9.209  -1.767  25.469  0.00  0.00    +0.156 C 
ATOM      4  C   UNL     1       8.091  -1.726  26.504  0.00  0.00    +0.025 C 
ATOM      5  C   UNL     1       9.662  -0.391  24.910  0.00  0.00    +0.316 C 
ATOM      6  O   UNL     1      10.649  -0.324  24.185  0.00  0.00    -0.250 OA
ATOM      7  O   UNL     1       9.063   0.807  25.357  0.00  0.00    -0.456 OA
ATOM      8  C   UNL     1       7.659   0.978  25.530  0.00  0.00    +0.207 C 
ATOM      9  C   UNL     1       7.210   1.261  27.022  0.00  0.00    +0.049 C 
ATOM     10  C   UNL     1       5.670   1.296  27.113  0.00  0.00    +0.004 C 
ATOM     11  C   UNL     1       4.866   0.270  27.911  0.00  0.00    +0.003 C 
ATOM     12  C   UNL     1       3.812  -0.336  26.956  0.00  0.00    +0.034 C 
ATOM     13  C   UNL     1       2.632  -1.171  27.485  0.00  0.00    +0.150 C 
ATOM     14  C   UNL     1       2.632  -2.647  26.957  0.00  0.00    +0.169 C 
ATOM     15  C   UNL     1       3.944  -3.393  27.119  0.00  0.00    +0.003 C 
ATOM     16  C   UNL     1       4.654  -3.801  26.053  0.00  0.00    -0.023 C 
ATOM     17  C   UNL     1       5.929  -4.620  25.981  0.00  0.00    +0.038 C 
ATOM     18  C   UNL     1       6.717  -4.713  27.312  0.00  0.00    +0.014 C 
ATOM     19  C   UNL     1       6.833  -4.371  24.696  0.00  0.00    +0.134 C 
ATOM     20  C   UNL     1       6.303  -3.519  23.535  0.00  0.00    +0.047 C 
ATOM     21  C   UNL     1       4.981  -3.767  22.817  0.00  0.00    +0.013 C 
ATOM     22  O   UNL     1       8.168  -3.936  25.070  0.00  0.00    -0.342 OA
ATOM     23  C   UNL     1       7.431  -3.441  22.506  0.00  0.00    +0.154 C 
ENDROOT
BRANCH   8  24
ATOM     24  C   UNL     1       6.981   2.062  24.621  0.00  0.00    -0.007 A 
ATOM     25  C   UNL     1       6.344   1.658  23.432  0.00  0.00    +0.007 A 
ATOM     26  C   UNL     1       6.647   2.321  22.235  0.00  0.00    +0.000 A 
ATOM     27  C   UNL     1       7.495   3.430  22.237  0.00  0.00    +0.000 A 
ATOM     28  C   UNL     1       7.925   3.972  23.447  0.00  0.00    +0.000 A 
ATOM     29  C   UNL     1       7.609   3.331  24.649  0.00  0.00    +0.007 A 
ENDBRANCH   8  24
BRANCH   1  31
ATOM     30  C   UNL     1       8.848  -0.703  21.475  0.00  0.00    +0.194 C 
ATOM     31  O   UNL     1       9.268  -1.930  22.087  0.00  0.00    -0.372 OA
ENDBRANCH   1  31
BRANCH   2  32
ATOM     32  O   UNL     1      10.193  -3.527  24.110  0.00  0.00    -0.362 OA
ATOM     33  H   UNL     1      10.801  -3.349  24.854  0.00  0.00    +0.213 HD
ENDBRANCH   2  32
BRANCH  13  34
ATOM     34  O   UNL     1       2.266  -0.938  28.842  0.00  0.00    -0.377 OA
ATOM     35  C   UNL     1       1.107  -0.183  29.110  0.00  0.00    +0.194 C 
ENDBRANCH  13  34
BRANCH  14  36
ATOM     36  O   UNL     1       1.546  -3.382  27.530  0.00  0.00    -0.373 OA
ATOM     37  C   UNL     1       1.957  -4.414  28.420  0.00  0.00    +0.194 C 
ENDBRANCH  14  36
BRANCH  23  38
ATOM     38  O   UNL     1       8.113  -4.696  22.303  0.00  0.00    -0.389 OA
ATOM     39  H   UNL     1       8.519  -4.715  21.413  0.00  0.00    +0.210 HD
ENDBRANCH  23  38
TORSDOF 6
ENDMDL
MODEL 4
REMARK VINA RESULT:      -6.1      2.927      7.030
REMARK  Name = 
REMARK  12 active torsions:
REMARK  status: ('A' for Active; 'I' for Inactive)
REMARK    1  A    between atoms: C_1  and  O_2
REMARK    2  A    between atoms: O_2  and  C_3
REMARK    3  A    between atoms: C_5  and  O_7
REMARK    4  A    between atoms: C_8  and  C_10
REMARK    5  A    between atoms: C_14  and  O_15
REMARK    6  A    between atoms: C_16  and  C_18
REMARK    7  A    between atoms: C_22  and  C_41
REMARK    8  A    between atoms: C_28  and  O_30
REMARK    9  A    between atoms: O_30  and  C_31
REMARK   10  A    between atoms: C_32  and  O_34
REMARK   11  A    between atoms: O_34  and  C_35
REMARK   12  A    between atoms: C_38  and  C_40
REMARK                            x       y       z     vdW  Elec       q    Type
REMARK                         _______ _______ _______ _____ _____    ______ ____
ROOT
ATOM      1  C   UNL     1       7.146  -3.957  23.428  0.00  0.00    +0.206 C 
ATOM      2  C   UNL     1       7.884  -4.585  24.647  0.00  0.00    +0.210 C 
ATOM      3  C   UNL     1       8.747  -3.564  25.454  0.00  0.00    +0.156 C 
ATOM      4  C   UNL     1       8.004  -3.088  26.695  0.00  0.00    +0.025 C 
ATOM      5  C   UNL     1       9.448  -2.458  24.620  0.00  0.00    +0.316 C 
ATOM      6  O   UNL     1      10.186  -2.769  23.691  0.00  0.00    -0.250 OA
ATOM      7  O   UNL     1       9.389  -1.104  25.017  0.00  0.00    -0.456 OA
ATOM      8  C   UNL     1       8.203  -0.459  25.473  0.00  0.00    +0.207 C 
ATOM      9  C   UNL     1       8.263   0.045  26.973  0.00  0.00    +0.049 C 
ATOM     10  C   UNL     1       6.889   0.604  27.399  0.00  0.00    +0.004 C 
ATOM     11  C   UNL     1       6.038  -0.042  28.492  0.00  0.00    +0.003 C 
ATOM     12  C   UNL     1       4.640  -0.312  27.890  0.00  0.00    +0.034 C 
ATOM     13  C   UNL     1       3.436  -0.668  28.781  0.00  0.00    +0.150 C 
ATOM     14  C   UNL     1       2.839  -2.085  28.479  0.00  0.00    +0.169 C 
ATOM     15  C   UNL     1       3.847  -3.219  28.446  0.00  0.00    +0.003 C 
ATOM     16  C   UNL     1       4.096  -3.904  27.317  0.00  0.00    -0.023 C 
ATOM     17  C   UNL     1       4.988  -5.108  27.079  0.00  0.00    +0.038 C 
ATOM     18  C   UNL     1       6.021  -5.384  28.200  0.00  0.00    +0.014 C 
ATOM     19  C   UNL     1       5.562  -5.255  25.602  0.00  0.00    +0.134 C 
ATOM     20  C   UNL     1       5.046  -4.343  24.481  0.00  0.00    +0.047 C 
ATOM     21  C   UNL     1       3.574  -4.172  24.118  0.00  0.00    +0.013 C 
ATOM     22  O   UNL     1       7.015  -5.274  25.605  0.00  0.00    -0.342 OA
ATOM     23  C   UNL     1       5.837  -4.711  23.226  0.00  0.00    +0.154 C 
ENDROOT
BRANCH   8  24
ATOM     24  C   UNL     1       7.687   0.735  24.595  0.00  0.00    -0.007 A 
ATOM     25  C   UNL     1       6.846   0.466  23.499  0.00  0.00    +0.007 A 
ATOM     26  C   UNL     1       7.154   1.022  22.249  0.00  0.00    +0.000 A 
ATOM     27  C   UNL     1       8.224   1.908  22.114  0.00  0.00    +0.000 A 
ATOM     28  C   UNL     1       8.899   2.358  23.248  0.00  0.00    +0.000 A 
ATOM     29  C   UNL     1       8.585   1.827  24.502  0.00  0.00    +0.007 A 
ENDBRANCH   8  24
BRANCH   1  31
ATOM     30  C   UNL     1       7.660  -2.708  21.492  0.00  0.00    +0.194 C 
ATOM     31  O   UNL     1       7.882  -3.936  22.200  0.00  0.00    -0.372 OA
ENDBRANCH   1  31
BRANCH   2  32
ATOM     32  O   UNL     1       8.748  -5.630  24.170  0.00  0.00    -0.362 OA
ATOM     33  H   UNL     1       8.206  -6.436  24.068  0.00  0.00    +0.213 HD
ENDBRANCH   2  32
BRANCH  13  34
ATOM     34  O   UNL     1       3.522  -0.246  30.139  0.00  0.00    -0.377 OA
ATOM     35  C   UNL     1       3.027   1.027  30.485  0.00  0.00    +0.194 C 
ENDBRANCH  13  34
BRANCH  14  36
ATOM     36  O   UNL     1       1.763  -2.376  29.376  0.00  0.00    -0.373 OA
ATOM     37  C   UNL     1       0.562  -1.672  29.082  0.00  0.00    +0.194 C 
ENDBRANCH  14  36
BRANCH  23  38
ATOM     38  O   UNL     1       6.017  -6.132  23.054  0.00  0.00    -0.389 OA
ATOM     39  H   UNL     1       6.970  -6.344  22.997  0.00  0.00    +0.210 HD
ENDBRANCH  23  38
TORSDOF 6
ENDMDL
MODEL 5
REMARK VINA RESULT:      -5.9      2.196      6.424
REMARK  Name = 
REMARK  12 active torsions:
REMARK  status: ('A' for Active; 'I' for Inactive)
REMARK    1  A    between atoms: C_1  and  O_2
REMARK    2  A    between atoms: O_2  and  C_3
REMARK    3  A    between atoms: C_5  and  O_7
REMARK    4  A    between atoms: C_8  and  C_10
REMARK    5  A    between atoms: C_14  and  O_15
REMARK    6  A    between atoms: C_16  and  C_18
REMARK    7  A    between atoms: C_22  and  C_41
REMARK    8  A    between atoms: C_28  and  O_30
REMARK    9  A    between atoms: O_30  and  C_31
REMARK   10  A    between atoms: C_32  and  O_34
REMARK   11  A    between atoms: O_34  and  C_35
REMARK   12  A    between atoms: C_38  and  C_40
REMARK                            x       y       z     vdW  Elec       q    Type
REMARK                         _______ _______ _______ _____ _____    ______ ____
ROOT
ATOM      1  C   UNL     1       8.698  -0.146  22.649  0.00  0.00    +0.206 C 
ATOM      2  C   UNL     1       9.619  -0.580  23.826  0.00  0.00    +0.210 C 
ATOM      3  C   UNL     1       9.594   0.402  25.040  0.00  0.00    +0.156 C 
ATOM      4  C   UNL     1       8.672  -0.116  26.137  0.00  0.00    +0.025 C 
ATOM      5  C   UNL     1       9.453   1.908  24.694  0.00  0.00    +0.316 C 
ATOM      6  O   UNL     1      10.254   2.435  23.929  0.00  0.00    -0.250 OA
ATOM      7  O   UNL     1       8.523   2.725  25.375  0.00  0.00    -0.456 OA
ATOM      8  C   UNL     1       7.184   2.335  25.663  0.00  0.00    +0.207 C 
ATOM      9  C   UNL     1       6.849   2.228  27.207  0.00  0.00    +0.049 C 
ATOM     10  C   UNL     1       5.422   1.674  27.402  0.00  0.00    +0.004 C 
ATOM     11  C   UNL     1       5.142   0.325  28.065  0.00  0.00    +0.003 C 
ATOM     12  C   UNL     1       4.268  -0.497  27.091  0.00  0.00    +0.034 C 
ATOM     13  C   UNL     1       3.540  -1.775  27.546  0.00  0.00    +0.150 C 
ATOM     14  C   UNL     1       4.004  -3.059  26.777  0.00  0.00    +0.169 C 
ATOM     15  C   UNL     1       5.505  -3.276  26.726  0.00  0.00    +0.003 C 
ATOM     16  C   UNL     1       6.179  -3.244  25.563  0.00  0.00    -0.023 C 
ATOM     17  C   UNL     1       7.644  -3.510  25.272  0.00  0.00    +0.038 C 
ATOM     18  C   UNL     1       8.569  -3.479  26.514  0.00  0.00    +0.014 C 
ATOM     19  C   UNL     1       8.235  -2.773  23.992  0.00  0.00    +0.134 C 
ATOM     20  C   UNL     1       7.297  -2.033  23.028  0.00  0.00    +0.047 C 
ATOM     21  C   UNL     1       6.074  -2.659  22.365  0.00  0.00    +0.013 C 
ATOM     22  O   UNL     1       9.360  -1.925  24.348  0.00  0.00    -0.342 OA
ATOM     23  C   UNL     1       8.187  -1.403  21.957  0.00  0.00    +0.154 C 
ENDROOT
BRANCH   8  24
ATOM     24  C   UNL     1       6.056   3.198  24.996  0.00  0.00    -0.007 A 
ATOM     25  C   UNL     1       5.644   4.389  25.623  0.00  0.00    +0.007 A 
ATOM     26  C   UNL     1       4.275   4.615  25.829  0.00  0.00    +0.000 A 
ATOM     27  C   UNL     1       3.329   3.718  25.331  0.00  0.00    +0.000 A 
ATOM     28  C   UNL     1       3.733   2.673  24.501  0.00  0.00    +0.000 A 
ATOM     29  C   UNL     1       5.094   2.452  24.271  0.00  0.00    +0.007 A 
ENDBRANCH   8  24
BRANCH   1  31
ATOM     30  C   UNL     1       8.351   1.702  21.222  0.00  0.00    +0.194 C 
ATOM     31  O   UNL     1       9.295   0.725  21.682  0.00  0.00    -0.372 OA
ENDBRANCH   1  31
BRANCH   2  32
ATOM     32  O   UNL     1      10.970  -0.666  23.343  0.00  0.00    -0.362 OA
ATOM     33  H   UNL     1      11.447   0.126  23.661  0.00  0.00    +0.213 HD
ENDBRANCH   2  32
BRANCH  13  34
ATOM     34  O   UNL     1       3.283  -1.879  28.943  0.00  0.00    -0.377 OA
ATOM     35  C   UNL     1       1.974  -1.647  29.410  0.00  0.00    +0.194 C 
ENDBRANCH  13  34
BRANCH  14  36
ATOM     36  O   UNL     1       3.333  -4.216  27.286  0.00  0.00    -0.373 OA
ATOM     37  C   UNL     1       2.083  -4.479  26.657  0.00  0.00    +0.194 C 
ENDBRANCH  14  36
BRANCH  23  38
ATOM     38  O   UNL     1       9.244  -2.274  21.501  0.00  0.00    -0.389 OA
ATOM     39  H   UNL     1       9.109  -3.176  21.854  0.00  0.00    +0.210 HD
ENDBRANCH  23  38
TORSDOF 6
ENDMDL
MODEL 6
REMARK VINA RESULT:      -5.7      3.225      5.679
REMARK  Name = 
REMARK  12 active torsions:
REMARK  status: ('A' for Active; 'I' for Inactive)
REMARK    1  A    between atoms: C_1  and  O_2
REMARK    2  A    between atoms: O_2  and  C_3
REMARK    3  A    between atoms: C_5  and  O_7
REMARK    4  A    between atoms: C_8  and  C_10
REMARK    5  A    between atoms: C_14  and  O_15
REMARK    6  A    between atoms: C_16  and  C_18
REMARK    7  A    between atoms: C_22  and  C_41
REMARK    8  A    between atoms: C_28  and  O_30
REMARK    9  A    between atoms: O_30  and  C_31
REMARK   10  A    between atoms: C_32  and  O_34
REMARK   11  A    between atoms: O_34  and  C_35
REMARK   12  A    between atoms: C_38  and  C_40
REMARK                            x       y       z     vdW  Elec       q    Type
REMARK                         _______ _______ _______ _____ _____    ______ ____
ROOT
ATOM      1  C   UNL     1       8.823  -2.824  24.560  0.00  0.00    +0.206 C 
ATOM      2  C   UNL     1       7.942  -2.185  23.447  0.00  0.00    +0.210 C 
ATOM      3  C   UNL     1       6.602  -2.946  23.190  0.00  0.00    +0.156 C 
ATOM      4  C   UNL     1       5.444  -2.259  23.903  0.00  0.00    +0.025 C 
ATOM      5  C   UNL     1       6.660  -4.492  23.329  0.00  0.00    +0.316 C 
ATOM      6  O   UNL     1       7.473  -5.132  22.671  0.00  0.00    -0.250 OA
ATOM      7  O   UNL     1       5.682  -5.190  24.071  0.00  0.00    -0.456 OA
ATOM      8  C   UNL     1       5.200  -4.771  25.344  0.00  0.00    +0.207 C 
ATOM      9  C   UNL     1       3.659  -4.406  25.375  0.00  0.00    +0.049 C 
ATOM     10  C   UNL     1       3.277  -3.843  26.760  0.00  0.00    +0.004 C 
ATOM     11  C   UNL     1       2.803  -2.404  26.964  0.00  0.00    +0.003 C 
ATOM     12  C   UNL     1       3.705  -1.769  28.048  0.00  0.00    +0.034 C 
ATOM     13  C   UNL     1       3.330  -0.441  28.729  0.00  0.00    +0.150 C 
ATOM     14  C   UNL     1       4.377   0.699  28.482  0.00  0.00    +0.169 C 
ATOM     15  C   UNL     1       4.763   0.920  27.031  0.00  0.00    +0.003 C 
ATOM     16  C   UNL     1       6.015   0.697  26.597  0.00  0.00    -0.023 C 
ATOM     17  C   UNL     1       6.633   0.927  25.230  0.00  0.00    +0.038 C 
ATOM     18  C   UNL     1       5.613   1.118  24.079  0.00  0.00    +0.014 C 
ATOM     19  C   UNL     1       7.866  -0.012  24.868  0.00  0.00    +0.134 C 
ATOM     20  C   UNL     1       8.487  -0.915  25.942  0.00  0.00    +0.047 C 
ATOM     21  C   UNL     1       8.986  -0.425  27.298  0.00  0.00    +0.013 C 
ATOM     22  O   UNL     1       7.608  -0.774  23.659  0.00  0.00    -0.342 OA
ATOM     23  C   UNL     1       9.596  -1.708  25.251  0.00  0.00    +0.154 C 
ENDROOT
BRANCH   8  24
ATOM     24  C   UNL     1       5.476  -5.748  26.541  0.00  0.00    -0.007 A 
ATOM     25  C   UNL     1       4.528  -6.741  26.847  0.00  0.00    +0.007 A 
ATOM     26  C   UNL     1       4.089  -6.883  28.171  0.00  0.00    +0.000 A 
ATOM     27  C   UNL     1       4.657  -6.115  29.189  0.00  0.00    +0.000 A 
ATOM     28  C   UNL     1       5.763  -5.311  28.916  0.00  0.00    +0.000 A 
ATOM     29  C   UNL     1       6.223  -5.181  27.603  0.00  0.00    +0.007 A 
ENDBRANCH   8  24
BRANCH   1  31
ATOM     30  C   UNL     1       9.891  -4.849  25.132  0.00  0.00    +0.194 C 
ATOM     31  O   UNL     1       9.732  -3.840  24.125  0.00  0.00    -0.372 OA
ENDBRANCH   1  31
BRANCH   2  32
ATOM     32  O   UNL     1       8.693  -2.169  22.221  0.00  0.00    -0.362 OA
ATOM     33  H   UNL     1       8.975  -1.246  22.062  0.00  0.00    +0.213 HD
ENDBRANCH   2  32
BRANCH  13  34
ATOM     34  O   UNL     1       1.946  -0.103  28.712  0.00  0.00    -0.377 OA
ATOM     35  C   UNL     1       1.150  -0.455  29.821  0.00  0.00    +0.194 C 
ENDBRANCH  13  34
BRANCH  14  36
ATOM     36  O   UNL     1       3.942   1.919  29.092  0.00  0.00    -0.373 OA
ATOM     37  C   UNL     1       4.222   1.997  30.485  0.00  0.00    +0.194 C 
ENDBRANCH  14  36
BRANCH  23  38
ATOM     38  O   UNL     1      10.392  -0.917  24.344  0.00  0.00    -0.389 OA
ATOM     39  H   UNL     1      10.702  -0.105  24.793  0.00  0.00    +0.210 HD
ENDBRANCH  23  38
TORSDOF 6
ENDMDL
MODEL 7
REMARK VINA RESULT:      -5.7      2.519      3.904
REMARK  Name = 
REMARK  12 active torsions:
REMARK  status: ('A' for Active; 'I' for Inactive)
REMARK    1  A    between atoms: C_1  and  O_2
REMARK    2  A    between atoms: O_2  and  C_3
REMARK    3  A    between atoms: C_5  and  O_7
REMARK    4  A    between atoms: C_8  and  C_10
REMARK    5  A    between atoms: C_14  and  O_15
REMARK    6  A    between atoms: C_16  and  C_18
REMARK    7  A    between atoms: C_22  and  C_41
REMARK    8  A    between atoms: C_28  and  O_30
REMARK    9  A    between atoms: O_30  and  C_31
REMARK   10  A    between atoms: C_32  and  O_34
REMARK   11  A    between atoms: O_34  and  C_35
REMARK   12  A    between atoms: C_38  and  C_40
REMARK                            x       y       z     vdW  Elec       q    Type
REMARK                         _______ _______ _______ _____ _____    ______ ____
ROOT
ATOM      1  C   UNL     1       8.543  -3.342  24.105  0.00  0.00    +0.206 C 
ATOM      2  C   UNL     1       7.543  -2.801  23.042  0.00  0.00    +0.210 C 
ATOM      3  C   UNL     1       6.043  -3.030  23.414  0.00  0.00    +0.156 C 
ATOM      4  C   UNL     1       5.433  -1.765  24.005  0.00  0.00    +0.025 C 
ATOM      5  C   UNL     1       5.723  -4.350  24.166  0.00  0.00    +0.316 C 
ATOM      6  O   UNL     1       6.053  -5.425  23.677  0.00  0.00    -0.250 OA
ATOM      7  O   UNL     1       4.908  -4.348  25.319  0.00  0.00    -0.456 OA
ATOM      8  C   UNL     1       5.024  -3.398  26.374  0.00  0.00    +0.207 C 
ATOM      9  C   UNL     1       3.749  -2.481  26.577  0.00  0.00    +0.049 C 
ATOM     10  C   UNL     1       4.034  -1.409  27.650  0.00  0.00    +0.004 C 
ATOM     11  C   UNL     1       4.069   0.086  27.334  0.00  0.00    +0.003 C 
ATOM     12  C   UNL     1       5.423   0.633  27.839  0.00  0.00    +0.034 C 
ATOM     13  C   UNL     1       5.682   2.145  27.970  0.00  0.00    +0.150 C 
ATOM     14  C   UNL     1       6.848   2.656  27.057  0.00  0.00    +0.169 C 
ATOM     15  C   UNL     1       6.758   2.243  25.599  0.00  0.00    +0.003 C 
ATOM     16  C   UNL     1       7.674   1.433  25.042  0.00  0.00    -0.023 C 
ATOM     17  C   UNL     1       7.824   0.965  23.607  0.00  0.00    +0.038 C 
ATOM     18  C   UNL     1       6.565   1.158  22.725  0.00  0.00    +0.014 C 
ATOM     19  C   UNL     1       8.554  -0.436  23.414  0.00  0.00    +0.134 C 
ATOM     20  C   UNL     1       9.234  -1.120  24.608  0.00  0.00    +0.047 C 
ATOM     21  C   UNL     1      10.281  -0.458  25.498  0.00  0.00    +0.013 C 
ATOM     22  O   UNL     1       7.699  -1.380  22.715  0.00  0.00    -0.342 OA
ATOM     23  C   UNL     1       9.779  -2.451  24.090  0.00  0.00    +0.154 C 
ENDROOT
BRANCH   8  24
ATOM     24  C   UNL     1       5.417  -3.975  27.779  0.00  0.00    -0.007 A 
ATOM     25  C   UNL     1       6.503  -4.864  27.875  0.00  0.00    +0.007 A 
ATOM     26  C   UNL     1       6.338  -6.074  28.565  0.00  0.00    +0.000 A 
ATOM     27  C   UNL     1       5.143  -6.349  29.231  0.00  0.00    +0.000 A 
ATOM     28  C   UNL     1       4.165  -5.361  29.337  0.00  0.00    +0.000 A 
ATOM     29  C   UNL     1       4.330  -4.143  28.672  0.00  0.00    +0.007 A 
ENDBRANCH   8  24
BRANCH   1  31
ATOM     30  C   UNL     1       9.300  -5.285  25.211  0.00  0.00    +0.194 C 
ATOM     31  O   UNL     1       8.935  -4.710  23.949  0.00  0.00    -0.372 OA
ENDBRANCH   1  31
BRANCH   2  32
ATOM     32  O   UNL     1       7.803  -3.460  21.791  0.00  0.00    -0.362 OA
ATOM     33  H   UNL     1       7.645  -2.811  21.078  0.00  0.00    +0.213 HD
ENDBRANCH   2  32
BRANCH  13  34
ATOM     34  O   UNL     1       4.524   2.963  28.109  0.00  0.00    -0.377 OA
ATOM     35  C   UNL     1       4.205   3.475  29.382  0.00  0.00    +0.194 C 
ENDBRANCH  13  34
BRANCH  14  36
ATOM     36  O   UNL     1       6.998   4.074  27.183  0.00  0.00    -0.373 OA
ATOM     37  C   UNL     1       6.661   4.795  26.003  0.00  0.00    +0.194 C 
ENDBRANCH  14  36
BRANCH  23  38
ATOM     38  O   UNL     1      10.398  -2.354  22.791  0.00  0.00    -0.389 OA
ATOM     39  H   UNL     1      11.312  -2.701  22.830  0.00  0.00    +0.210 HD
ENDBRANCH  23  38
TORSDOF 6
ENDMDL
MODEL 8
REMARK VINA RESULT:      -5.6      2.360      7.725
REMARK  Name = 
REMARK  12 active torsions:
REMARK  status: ('A' for Active; 'I' for Inactive)
REMARK    1  A    between atoms: C_1  and  O_2
REMARK    2  A    between atoms: O_2  and  C_3
REMARK    3  A    between atoms: C_5  and  O_7
REMARK    4  A    between atoms: C_8  and  C_10
REMARK    5  A    between atoms: C_14  and  O_15
REMARK    6  A    between atoms: C_16  and  C_18
REMARK    7  A    between atoms: C_22  and  C_41
REMARK    8  A    between atoms: C_28  and  O_30
REMARK    9  A    between atoms: O_30  and  C_31
REMARK   10  A    between atoms: C_32  and  O_34
REMARK   11  A    between atoms: O_34  and  C_35
REMARK   12  A    between atoms: C_38  and  C_40
REMARK                            x       y       z     vdW  Elec       q    Type
REMARK                         _______ _______ _______ _____ _____    ______ ____
ROOT
ATOM      1  C   UNL     1       7.088   5.574  25.139  0.00  0.00    +0.206 C 
ATOM      2  C   UNL     1       5.675   5.445  24.498  0.00  0.00    +0.210 C 
ATOM      3  C   UNL     1       5.627   4.483  23.270  0.00  0.00    +0.156 C 
ATOM      4  C   UNL     1       5.095   3.113  23.675  0.00  0.00    +0.025 C 
ATOM      5  C   UNL     1       6.884   4.477  22.360  0.00  0.00    +0.316 C 
ATOM      6  O   UNL     1       7.288   5.527  21.872  0.00  0.00    -0.250 OA
ATOM      7  O   UNL     1       7.473   3.263  21.944  0.00  0.00    -0.456 OA
ATOM      8  C   UNL     1       7.696   2.151  22.806  0.00  0.00    +0.207 C 
ATOM      9  C   UNL     1       6.891   0.844  22.414  0.00  0.00    +0.049 C 
ATOM     10  C   UNL     1       7.103  -0.248  23.484  0.00  0.00    +0.004 C 
ATOM     11  C   UNL     1       5.968  -0.777  24.360  0.00  0.00    +0.003 C 
ATOM     12  C   UNL     1       6.416  -0.635  25.833  0.00  0.00    +0.034 C 
ATOM     13  C   UNL     1       5.665  -1.344  26.974  0.00  0.00    +0.150 C 
ATOM     14  C   UNL     1       5.045  -0.351  28.017  0.00  0.00    +0.169 C 
ATOM     15  C   UNL     1       4.208   0.769  27.427  0.00  0.00    +0.003 C 
ATOM     16  C   UNL     1       4.580   2.056  27.541  0.00  0.00    -0.023 C 
ATOM     17  C   UNL     1       3.867   3.323  27.106  0.00  0.00    +0.038 C 
ATOM     18  C   UNL     1       2.720   3.106  26.088  0.00  0.00    +0.014 C 
ATOM     19  C   UNL     1       4.809   4.564  26.784  0.00  0.00    +0.134 C 
ATOM     20  C   UNL     1       6.306   4.501  27.116  0.00  0.00    +0.047 C 
ATOM     21  C   UNL     1       6.870   4.160  28.491  0.00  0.00    +0.013 C 
ATOM     22  O   UNL     1       4.615   5.029  25.421  0.00  0.00    -0.342 OA
ATOM     23  C   UNL     1       6.911   5.819  26.633  0.00  0.00    +0.154 C 
ENDROOT
BRANCH   8  24
ATOM     24  C   UNL     1       9.193   1.734  23.019  0.00  0.00    -0.007 A 
ATOM     25  C   UNL     1       9.763   0.769  22.168  0.00  0.00    +0.007 A 
ATOM     26  C   UNL     1      10.451  -0.317  22.729  0.00  0.00    +0.000 A 
ATOM     27  C   UNL     1      10.652  -0.389  24.108  0.00  0.00    +0.000 A 
ATOM     28  C   UNL     1      10.299   0.690  24.918  0.00  0.00    +0.000 A 
ATOM     29  C   UNL     1       9.633   1.788  24.365  0.00  0.00    +0.007 A 
ENDBRANCH   8  24
BRANCH   1  31
ATOM     30  C   UNL     1       9.316   6.238  24.731  0.00  0.00    +0.194 C 
ATOM     31  O   UNL     1       7.932   6.587  24.583  0.00  0.00    -0.372 OA
ENDBRANCH   1  31
BRANCH   2  32
ATOM     32  O   UNL     1       5.248   6.749  24.068  0.00  0.00    -0.362 OA
ATOM     33  H   UNL     1       4.447   6.630  23.520  0.00  0.00    +0.213 HD
ENDBRANCH   2  32
BRANCH  13  34
ATOM     34  O   UNL     1       4.909  -2.492  26.601  0.00  0.00    -0.377 OA
ATOM     35  C   UNL     1       5.524  -3.758  26.672  0.00  0.00    +0.194 C 
ENDBRANCH  13  34
BRANCH  14  36
ATOM     36  O   UNL     1       4.314  -1.069  29.017  0.00  0.00    -0.373 OA
ATOM     37  C   UNL     1       4.207  -0.378  30.257  0.00  0.00    +0.194 C 
ENDBRANCH  14  36
BRANCH  23  38
ATOM     38  O   UNL     1       6.095   6.971  26.930  0.00  0.00    -0.389 OA
ATOM     39  H   UNL     1       5.611   6.830  27.768  0.00  0.00    +0.210 HD
ENDBRANCH  23  38
TORSDOF 6
ENDMDL
MODEL 9
REMARK VINA RESULT:      -5.5      2.106      6.607
REMARK  Name = 
REMARK  12 active torsions:
REMARK  status: ('A' for Active; 'I' for Inactive)
REMARK    1  A    between atoms: C_1  and  O_2
REMARK    2  A    between atoms: O_2  and  C_3
REMARK    3  A    between atoms: C_5  and  O_7
REMARK    4  A    between atoms: C_8  and  C_10
REMARK    5  A    between atoms: C_14  and  O_15
REMARK    6  A    between atoms: C_16  and  C_18
REMARK    7  A    between atoms: C_22  and  C_41
REMARK    8  A    between atoms: C_28  and  O_30
REMARK    9  A    between atoms: O_30  and  C_31
REMARK   10  A    between atoms: C_32  and  O_34
REMARK   11  A    between atoms: O_34  and  C_35
REMARK   12  A    between atoms: C_38  and  C_40
REMARK                            x       y       z     vdW  Elec       q    Type
REMARK                         _______ _______ _______ _____ _____    ______ ____
ROOT
ATOM      1  C   UNL     1       8.760   2.808  24.093  0.00  0.00    +0.206 C 
ATOM      2  C   UNL     1       7.629   2.926  23.029  0.00  0.00    +0.210 C 
ATOM      3  C   UNL     1       7.296   1.578  22.314  0.00  0.00    +0.156 C 
ATOM      4  C   UNL     1       6.061   0.930  22.928  0.00  0.00    +0.025 C 
ATOM      5  C   UNL     1       8.498   0.631  22.054  0.00  0.00    +0.316 C 
ATOM      6  O   UNL     1       9.472   1.039  21.432  0.00  0.00    -0.250 OA
ATOM      7  O   UNL     1       8.419  -0.743  22.370  0.00  0.00    -0.456 OA
ATOM      8  C   UNL     1       7.868  -1.250  23.582  0.00  0.00    +0.207 C 
ATOM      9  C   UNL     1       6.578  -2.149  23.391  0.00  0.00    +0.049 C 
ATOM     10  C   UNL     1       5.992  -2.531  24.766  0.00  0.00    +0.004 C 
ATOM     11  C   UNL     1       4.615  -2.061  25.237  0.00  0.00    +0.003 C 
ATOM     12  C   UNL     1       4.806  -1.376  26.610  0.00  0.00    +0.034 C 
ATOM     13  C   UNL     1       3.609  -1.057  27.523  0.00  0.00    +0.150 C 
ATOM     14  C   UNL     1       3.434   0.476  27.802  0.00  0.00    +0.169 C 
ATOM     15  C   UNL     1       3.432   1.362  26.570  0.00  0.00    +0.003 C 
ATOM     16  C   UNL     1       4.400   2.271  26.359  0.00  0.00    -0.023 C 
ATOM     17  C   UNL     1       4.551   3.302  25.256  0.00  0.00    +0.038 C 
ATOM     18  C   UNL     1       3.661   3.058  24.011  0.00  0.00    +0.014 C 
ATOM     19  C   UNL     1       6.045   3.736  24.922  0.00  0.00    +0.134 C 
ATOM     20  C   UNL     1       7.199   3.282  25.827  0.00  0.00    +0.047 C 
ATOM     21  C   UNL     1       7.248   3.500  27.336  0.00  0.00    +0.013 C 
ATOM     22  O   UNL     1       6.367   3.478  23.530  0.00  0.00    -0.342 OA
ATOM     23  C   UNL     1       8.482   3.823  25.195  0.00  0.00    +0.154 C 
ENDROOT
BRANCH   8  24
ATOM     24  C   UNL     1       8.856  -2.038  24.512  0.00  0.00    -0.007 A 
ATOM     25  C   UNL     1       9.276  -3.325  24.130  0.00  0.00    +0.007 A 
ATOM     26  C   UNL     1       9.189  -4.376  25.056  0.00  0.00    +0.000 A 
ATOM     27  C   UNL     1       8.784  -4.128  26.368  0.00  0.00    +0.000 A 
ATOM     28  C   UNL     1       8.605  -2.816  26.803  0.00  0.00    +0.000 A 
ATOM     29  C   UNL     1       8.712  -1.759  25.893  0.00  0.00    +0.007 A 
ENDBRANCH   8  24
BRANCH   1  31
ATOM     30  C   UNL     1      10.966   1.969  24.118  0.00  0.00    +0.194 C 
ATOM     31  O   UNL     1      10.094   2.985  23.603  0.00  0.00    -0.372 OA
ENDBRANCH   1  31
BRANCH   2  32
ATOM     32  O   UNL     1       8.037   3.878  22.032  0.00  0.00    -0.362 OA
ATOM     33  H   UNL     1       8.015   4.763  22.445  0.00  0.00    +0.213 HD
ENDBRANCH   2  32
BRANCH  13  34
ATOM     34  O   UNL     1       2.440  -1.843  27.311  0.00  0.00    -0.377 OA
ATOM     35  C   UNL     1       2.266  -3.016  28.073  0.00  0.00    +0.194 C 
ENDBRANCH  13  34
BRANCH  14  36
ATOM     36  O   UNL     1       2.274   0.709  28.606  0.00  0.00    -0.373 OA
ATOM     37  C   UNL     1       2.483   0.483  29.996  0.00  0.00    +0.194 C 
ENDBRANCH  14  36
BRANCH  23  38
ATOM     38  O   UNL     1       8.359   5.176  24.709  0.00  0.00    -0.389 OA
ATOM     39  H   UNL     1       8.369   5.803  25.460  0.00  0.00    +0.210 HD
ENDBRANCH  23  38
TORSDOF 6
ENDMDL
