MODEL 1
REMARK VINA RESULT:      -7.5      0.000      0.000
REMARK  Name = 
REMARK  11 active torsions:
REMARK  status: ('A' for Active; 'I' for Inactive)
REMARK    1  A    between atoms: N_1  and  C_2
REMARK    2  A    between atoms: C_3  and  S_48
REMARK    3  A    between atoms: C_5  and  N_6
REMARK    4  A    between atoms: N_6  and  C_7
REMARK    5  A    between atoms: C_10  and  N_11
REMARK    6  A    between atoms: N_18  and  C_19
REMARK    7  A    between atoms: C_24  and  S_25
REMARK    8  A    between atoms: S_25  and  O_26
REMARK    9  A    between atoms: C_30  and  S_32
REMARK   10  A    between atoms: S_32  and  O_33
REMARK   11  A    between atoms: S_48  and  O_49
REMARK                            x       y       z     vdW  Elec       q    Type
REMARK                         _______ _______ _______ _____ _____    ______ ____
ROOT
ATOM      1  C   UNL     1       6.558  -3.925  24.363  0.00  0.00    +0.033 A 
ATOM      2  C   UNL     1       6.013  -2.798  24.982  0.00  0.00    +0.054 A 
ATOM      3  C   UNL     1       6.284  -1.499  24.481  0.00  0.00    +0.140 A 
ATOM      4  C   UNL     1       7.093  -1.287  23.347  0.00  0.00    +0.061 A 
ATOM      5  C   UNL     1       7.560  -2.441  22.710  0.00  0.00    +0.027 A 
ATOM      6  C   UNL     1       7.283  -3.722  23.190  0.00  0.00    +0.025 A 
ENDROOT
BRANCH   4   7
ATOM      7  N   UNL     1       7.387  -0.019  22.807  0.00  0.00    -0.282 N 
ATOM      8  H   UNL     1       6.649   0.442  22.276  0.00  0.00    +0.155 HD
ATOM      9  C   UNL     1       8.418   0.877  23.122  0.00  0.00    +0.225 A 
ATOM     10  N   UNL     1       8.182   2.171  22.942  0.00  0.00    -0.181 NA
ATOM     11  C   UNL     1       9.128   3.045  23.306  0.00  0.00    +0.225 A 
ATOM     12  N   UNL     1       8.881   4.432  23.286  0.00  0.00    -0.282 N 
ATOM     13  H   UNL     1       9.673   4.904  23.727  0.00  0.00    +0.155 HD
ATOM     14  N   UNL     1      10.307   2.678  23.778  0.00  0.00    -0.184 NA
ATOM     15  C   UNL     1      10.445   1.363  23.883  0.00  0.00    +0.229 A 
ATOM     16 CL   UNL     1      11.905   0.806  24.580  0.00  0.00    -0.041 Cl
ATOM     17  N   UNL     1       9.563   0.422  23.597  0.00  0.00    -0.184 NA
BRANCH  12  18
ATOM     18  C   UNL     1       7.631   5.081  23.397  0.00  0.00    +0.061 A 
ATOM     19  C   UNL     1       6.839   5.070  24.561  0.00  0.00    +0.138 A 
ATOM     20  C   UNL     1       5.502   5.512  24.543  0.00  0.00    +0.031 A 
ATOM     21  C   UNL     1       4.966   6.072  23.391  0.00  0.00    +0.002 A 
ATOM     22  C   UNL     1       5.775   6.232  22.275  0.00  0.00    +0.002 A 
ATOM     23  C   UNL     1       7.084   5.748  22.287  0.00  0.00    +0.025 A 
BRANCH  19  24
ATOM     24  S   UNL     1       7.464   4.585  26.145  0.00  0.00    +0.111 S 
ATOM     25  O   UNL     1       6.340   4.500  27.054  0.00  0.00    -0.142 OA
ATOM     26  O   UNL     1       8.633   5.380  26.446  0.00  0.00    -0.142 OA
BRANCH  24  27
ATOM     27  O   UNL     1       8.025   3.088  25.923  0.00  0.00    -0.250 OA
ATOM     28  H   UNL     1       8.222   2.711  26.806  0.00  0.00    +0.245 HD
ENDBRANCH  24  27
ENDBRANCH  19  24
ENDBRANCH  12  18
ENDBRANCH   4   7
BRANCH   3  29
ATOM     29  S   UNL     1       5.624  -0.151  25.426  0.00  0.00    +0.111 S 
ATOM     30  O   UNL     1       6.695   0.397  26.227  0.00  0.00    -0.142 OA
ATOM     31  O   UNL     1       4.359  -0.566  25.996  0.00  0.00    -0.142 OA
BRANCH  29  32
ATOM     32  O   UNL     1       5.230   0.934  24.297  0.00  0.00    -0.250 OA
ATOM     33  H   UNL     1       5.199   0.480  23.429  0.00  0.00    +0.245 HD
ENDBRANCH  29  32
ENDBRANCH   3  29
BRANCH   1  34
ATOM     34  N   UNL     1       6.465  -5.202  24.953  0.00  0.00    -0.314 N 
ATOM     35  H   UNL     1       7.364  -5.693  25.054  0.00  0.00    +0.152 HD
BRANCH  34  49
ATOM     36  C   UNL     1       3.556  -6.668  27.716  0.00  0.00    +0.064 A 
ATOM     37  C   UNL     1       3.349  -6.836  26.319  0.00  0.00    +0.057 A 
ATOM     38  C   UNL     1       2.153  -7.574  25.841  0.00  0.00    +0.196 C 
ATOM     39  C   UNL     1       1.893  -7.712  24.402  0.00  0.00    +0.033 A 
ATOM     40  C   UNL     1       2.821  -7.255  23.475  0.00  0.00    +0.033 A 
ATOM     41  C   UNL     1       4.061  -6.591  23.928  0.00  0.00    +0.196 C 
ATOM     42  O   UNL     1       4.887  -6.223  23.098  0.00  0.00    -0.287 OA
ATOM     43  C   UNL     1       2.565  -7.419  22.106  0.00  0.00    +0.012 A 
ATOM     44  C   UNL     1       1.379  -8.024  21.680  0.00  0.00    +0.001 A 
ATOM     45  C   UNL     1       0.446  -8.469  22.614  0.00  0.00    +0.001 A 
ATOM     46  C   UNL     1       0.703  -8.319  23.975  0.00  0.00    +0.012 A 
ATOM     47  O   UNL     1       1.375  -8.089  26.639  0.00  0.00    -0.287 OA
ATOM     48  C   UNL     1       4.290  -6.355  25.380  0.00  0.00    +0.056 A 
ATOM     49  C   UNL     1       5.443  -5.668  25.824  0.00  0.00    +0.045 A 
ATOM     50  C   UNL     1       5.594  -5.451  27.205  0.00  0.00    +0.055 A 
ATOM     51  C   UNL     1       4.695  -5.977  28.129  0.00  0.00    +0.140 A 
BRANCH  36  52
ATOM     52  N   UNL     1       2.607  -7.098  28.684  0.00  0.00    -0.356 N 
ATOM     53  H   UNL     1       3.039  -7.782  29.332  0.00  0.00    +0.142 HD
ATOM     54  H   UNL     1       2.268  -6.313  29.254  0.00  0.00    +0.142 HD
ENDBRANCH  36  52
BRANCH  51  55
ATOM     55  S   UNL     1       5.035  -5.780  29.860  0.00  0.00    +0.111 S 
ATOM     56  O   UNL     1       6.071  -4.787  30.019  0.00  0.00    -0.142 OA
ATOM     57  O   UNL     1       5.171  -7.119  30.401  0.00  0.00    -0.142 OA
BRANCH  55  58
ATOM     58  O   UNL     1       3.657  -5.169  30.439  0.00  0.00    -0.250 OA
ATOM     59  H   UNL     1       3.588  -4.232  30.143  0.00  0.00    +0.245 HD
ENDBRANCH  55  58
ENDBRANCH  51  55
ENDBRANCH  34  49
ENDBRANCH   1  34
TORSDOF 11
ENDMDL
MODEL 2
REMARK VINA RESULT:      -6.9      3.544      5.156
REMARK  Name = 
REMARK  11 active torsions:
REMARK  status: ('A' for Active; 'I' for Inactive)
REMARK    1  A    between atoms: N_1  and  C_2
REMARK    2  A    between atoms: C_3  and  S_48
REMARK    3  A    between atoms: C_5  and  N_6
REMARK    4  A    between atoms: N_6  and  C_7
REMARK    5  A    between atoms: C_10  and  N_11
REMARK    6  A    between atoms: N_18  and  C_19
REMARK    7  A    between atoms: C_24  and  S_25
REMARK    8  A    between atoms: S_25  and  O_26
REMARK    9  A    between atoms: C_30  and  S_32
REMARK   10  A    between atoms: S_32  and  O_33
REMARK   11  A    between atoms: S_48  and  O_49
REMARK                            x       y       z     vdW  Elec       q    Type
REMARK                         _______ _______ _______ _____ _____    ______ ____
ROOT
ATOM      1  C   UNL     1       5.152  -1.364  26.817  0.00  0.00    +0.033 A 
ATOM      2  C   UNL     1       6.273  -1.158  26.010  0.00  0.00    +0.054 A 
ATOM      3  C   UNL     1       7.038   0.031  26.130  0.00  0.00    +0.140 A 
ATOM      4  C   UNL     1       6.715   1.039  27.060  0.00  0.00    +0.061 A 
ATOM      5  C   UNL     1       5.631   0.765  27.900  0.00  0.00    +0.027 A 
ATOM      6  C   UNL     1       4.885  -0.410  27.797  0.00  0.00    +0.025 A 
ENDROOT
BRANCH   4   7
ATOM      7  N   UNL     1       7.445   2.233  27.222  0.00  0.00    -0.282 N 
ATOM      8  H   UNL     1       8.458   2.175  27.121  0.00  0.00    +0.155 HD
ATOM      9  C   UNL     1       7.010   3.565  27.196  0.00  0.00    +0.225 A 
ATOM     10  N   UNL     1       7.878   4.486  26.795  0.00  0.00    -0.181 NA
ATOM     11  C   UNL     1       7.457   5.753  26.695  0.00  0.00    +0.225 A 
ATOM     12  N   UNL     1       8.279   6.748  26.130  0.00  0.00    -0.282 N 
ATOM     13  H   UNL     1       7.724   7.599  26.023  0.00  0.00    +0.155 HD
ATOM     14  N   UNL     1       6.239   6.138  27.035  0.00  0.00    -0.184 NA
ATOM     15  C   UNL     1       5.470   5.142  27.454  0.00  0.00    +0.229 A 
ATOM     16 CL   UNL     1       3.847   5.538  27.819  0.00  0.00    -0.041 Cl
ATOM     17  N   UNL     1       5.771   3.860  27.546  0.00  0.00    -0.184 NA
BRANCH  12  18
ATOM     18  C   UNL     1       9.324   6.567  25.196  0.00  0.00    +0.061 A 
ATOM     19  C   UNL     1       9.135   6.084  23.887  0.00  0.00    +0.138 A 
ATOM     20  C   UNL     1      10.223   5.686  23.087  0.00  0.00    +0.031 A 
ATOM     21  C   UNL     1      11.525   5.864  23.539  0.00  0.00    +0.002 A 
ATOM     22  C   UNL     1      11.739   6.477  24.764  0.00  0.00    +0.002 A 
ATOM     23  C   UNL     1      10.654   6.825  25.570  0.00  0.00    +0.025 A 
BRANCH  19  24
ATOM     24  S   UNL     1       7.546   6.011  23.109  0.00  0.00    +0.111 S 
ATOM     25  O   UNL     1       6.752   7.107  23.626  0.00  0.00    -0.142 OA
ATOM     26  O   UNL     1       7.075   4.645  23.142  0.00  0.00    -0.142 OA
BRANCH  24  27
ATOM     27  O   UNL     1       7.839   6.313  21.551  0.00  0.00    -0.250 OA
ATOM     28  H   UNL     1       8.316   5.540  21.184  0.00  0.00    +0.245 HD
ENDBRANCH  24  27
ENDBRANCH  19  24
ENDBRANCH  12  18
ENDBRANCH   4   7
BRANCH   3  29
ATOM     29  S   UNL     1       8.367   0.217  24.971  0.00  0.00    +0.111 S 
ATOM     30  O   UNL     1       8.153   1.446  24.242  0.00  0.00    -0.142 OA
ATOM     31  O   UNL     1       8.580  -1.054  24.309  0.00  0.00    -0.142 OA
BRANCH  29  32
ATOM     32  O   UNL     1       9.661   0.408  25.919  0.00  0.00    -0.250 OA
ATOM     33  H   UNL     1      10.048  -0.475  26.095  0.00  0.00    +0.245 HD
ENDBRANCH  29  32
ENDBRANCH   3  29
BRANCH   1  34
ATOM     34  N   UNL     1       4.268  -2.438  26.583  0.00  0.00    -0.314 N 
ATOM     35  H   UNL     1       3.296  -2.263  26.872  0.00  0.00    +0.152 HD
BRANCH  34  49
ATOM     36  C   UNL     1       4.712  -5.372  23.510  0.00  0.00    +0.064 A 
ATOM     37  C   UNL     1       3.859  -5.633  24.617  0.00  0.00    +0.057 A 
ATOM     38  C   UNL     1       3.084  -6.899  24.659  0.00  0.00    +0.196 C 
ATOM     39  C   UNL     1       2.238  -7.213  25.818  0.00  0.00    +0.033 A 
ATOM     40  C   UNL     1       2.064  -6.280  26.832  0.00  0.00    +0.033 A 
ATOM     41  C   UNL     1       2.758  -4.976  26.772  0.00  0.00    +0.196 C 
ATOM     42  O   UNL     1       2.567  -4.149  27.658  0.00  0.00    -0.287 OA
ATOM     43  C   UNL     1       1.232  -6.589  27.918  0.00  0.00    +0.012 A 
ATOM     44  C   UNL     1       0.597  -7.832  27.985  0.00  0.00    +0.001 A 
ATOM     45  C   UNL     1       0.786  -8.770  26.972  0.00  0.00    +0.001 A 
ATOM     46  C   UNL     1       1.602  -8.461  25.885  0.00  0.00    +0.012 A 
ATOM     47  O   UNL     1       3.129  -7.692  23.722  0.00  0.00    -0.287 OA
ATOM     48  C   UNL     1       3.697  -4.685  25.653  0.00  0.00    +0.056 A 
ATOM     49  C   UNL     1       4.414  -3.467  25.614  0.00  0.00    +0.045 A 
ATOM     50  C   UNL     1       5.305  -3.258  24.547  0.00  0.00    +0.055 A 
ATOM     51  C   UNL     1       5.418  -4.168  23.499  0.00  0.00    +0.140 A 
BRANCH  36  52
ATOM     52  N   UNL     1       4.932  -6.323  22.475  0.00  0.00    -0.356 N 
ATOM     53  H   UNL     1       5.907  -6.674  22.511  0.00  0.00    +0.142 HD
ATOM     54  H   UNL     1       4.313  -7.137  22.575  0.00  0.00    +0.142 HD
ENDBRANCH  36  52
BRANCH  51  55
ATOM     55  S   UNL     1       6.458  -3.762  22.121  0.00  0.00    +0.111 S 
ATOM     56  O   UNL     1       5.644  -3.696  20.929  0.00  0.00    -0.142 OA
ATOM     57  O   UNL     1       7.610  -4.638  22.211  0.00  0.00    -0.142 OA
BRANCH  55  58
ATOM     58  O   UNL     1       6.965  -2.268  22.468  0.00  0.00    -0.250 OA
ATOM     59  H   UNL     1       7.249  -1.838  21.629  0.00  0.00    +0.245 HD
ENDBRANCH  55  58
ENDBRANCH  51  55
ENDBRANCH  34  49
ENDBRANCH   1  34
TORSDOF 11
ENDMDL
MODEL 3
REMARK VINA RESULT:      -6.6      3.396      5.160
REMARK  Name = 
REMARK  11 active torsions:
REMARK  status: ('A' for Active; 'I' for Inactive)
REMARK    1  A    between atoms: N_1  and  C_2
REMARK    2  A    between atoms: C_3  and  S_48
REMARK    3  A    between atoms: C_5  and  N_6
REMARK    4  A    between atoms: N_6  and  C_7
REMARK    5  A    between atoms: C_10  and  N_11
REMARK    6  A    between atoms: N_18  and  C_19
REMARK    7  A    between atoms: C_24  and  S_25
REMARK    8  A    between atoms: S_25  and  O_26
REMARK    9  A    between atoms: C_30  and  S_32
REMARK   10  A    between atoms: S_32  and  O_33
REMARK   11  A    between atoms: S_48  and  O_49
REMARK                            x       y       z     vdW  Elec       q    Type
REMARK                         _______ _______ _______ _____ _____    ______ ____
ROOT
ATOM      1  C   UNL     1       8.334  -2.842  26.101  0.00  0.00    +0.033 A 
ATOM      2  C   UNL     1       9.102  -2.128  25.179  0.00  0.00    +0.054 A 
ATOM      3  C   UNL     1       9.102  -0.709  25.187  0.00  0.00    +0.140 A 
ATOM      4  C   UNL     1       8.348   0.035  26.116  0.00  0.00    +0.061 A 
ATOM      5  C   UNL     1       7.650  -0.713  27.069  0.00  0.00    +0.027 A 
ATOM      6  C   UNL     1       7.659  -2.108  27.076  0.00  0.00    +0.025 A 
ENDROOT
BRANCH   4   7
ATOM      7  N   UNL     1       8.318   1.443  26.168  0.00  0.00    -0.282 N 
ATOM      8  H   UNL     1       9.006   1.943  25.606  0.00  0.00    +0.155 HD
ATOM      9  C   UNL     1       7.311   2.307  26.620  0.00  0.00    +0.225 A 
ATOM     10  N   UNL     1       7.242   3.511  26.066  0.00  0.00    -0.181 NA
ATOM     11  C   UNL     1       6.241   4.321  26.433  0.00  0.00    +0.225 A 
ATOM     12  N   UNL     1       6.021   5.547  25.773  0.00  0.00    -0.282 N 
ATOM     13  H   UNL     1       5.139   5.937  26.111  0.00  0.00    +0.155 HD
ATOM     14  N   UNL     1       5.358   4.002  27.364  0.00  0.00    -0.184 NA
ATOM     15  C   UNL     1       5.544   2.792  27.872  0.00  0.00    +0.229 A 
ATOM     16 CL   UNL     1       4.384   2.260  29.012  0.00  0.00    -0.041 Cl
ATOM     17  N   UNL     1       6.465   1.901  27.550  0.00  0.00    -0.184 NA
BRANCH  12  18
ATOM     18  C   UNL     1       6.385   5.885  24.450  0.00  0.00    +0.061 A 
ATOM     19  C   UNL     1       5.826   5.289  23.304  0.00  0.00    +0.138 A 
ATOM     20  C   UNL     1       6.393   5.475  22.030  0.00  0.00    +0.031 A 
ATOM     21  C   UNL     1       7.464   6.345  21.860  0.00  0.00    +0.002 A 
ATOM     22  C   UNL     1       7.935   7.059  22.952  0.00  0.00    +0.002 A 
ATOM     23  C   UNL     1       7.397   6.832  24.220  0.00  0.00    +0.025 A 
BRANCH  19  24
ATOM     24  S   UNL     1       4.336   4.333  23.346  0.00  0.00    +0.111 S 
ATOM     25  O   UNL     1       3.368   5.062  24.139  0.00  0.00    -0.142 OA
ATOM     26  O   UNL     1       4.675   2.957  23.629  0.00  0.00    -0.142 OA
BRANCH  24  27
ATOM     27  O   UNL     1       3.810   4.328  21.820  0.00  0.00    -0.250 OA
ATOM     28  H   UNL     1       3.038   3.725  21.774  0.00  0.00    +0.245 HD
ENDBRANCH  24  27
ENDBRANCH  19  24
ENDBRANCH  12  18
ENDBRANCH   4   7
BRANCH   3  29
ATOM     29  S   UNL     1      10.029   0.073  23.893  0.00  0.00    +0.111 S 
ATOM     30  O   UNL     1      10.429  -0.949  22.953  0.00  0.00    -0.142 OA
ATOM     31  O   UNL     1      10.975   0.990  24.496  0.00  0.00    -0.142 OA
BRANCH  29  32
ATOM     32  O   UNL     1       8.937   1.022  23.176  0.00  0.00    -0.250 OA
ATOM     33  H   UNL     1       9.127   1.951  23.421  0.00  0.00    +0.245 HD
ENDBRANCH  29  32
ENDBRANCH   3  29
BRANCH   1  34
ATOM     34  N   UNL     1       8.164  -4.237  25.989  0.00  0.00    -0.314 N 
ATOM     35  H   UNL     1       8.630  -4.785  26.725  0.00  0.00    +0.152 HD
BRANCH  34  49
ATOM     36  C   UNL     1       4.968  -6.120  23.871  0.00  0.00    +0.064 A 
ATOM     37  C   UNL     1       4.955  -6.097  25.292  0.00  0.00    +0.057 A 
ATOM     38  C   UNL     1       3.798  -6.675  26.021  0.00  0.00    +0.196 C 
ATOM     39  C   UNL     1       3.789  -6.710  27.490  0.00  0.00    +0.033 A 
ATOM     40  C   UNL     1       4.807  -6.100  28.212  0.00  0.00    +0.033 A 
ATOM     41  C   UNL     1       5.929  -5.444  27.508  0.00  0.00    +0.196 C 
ATOM     42  O   UNL     1       6.803  -4.880  28.159  0.00  0.00    -0.287 OA
ATOM     43  C   UNL     1       4.767  -6.123  29.613  0.00  0.00    +0.012 A 
ATOM     44  C   UNL     1       3.718  -6.767  30.276  0.00  0.00    +0.001 A 
ATOM     45  C   UNL     1       2.706  -7.388  29.547  0.00  0.00    +0.001 A 
ATOM     46  C   UNL     1       2.737  -7.356  28.154  0.00  0.00    +0.012 A 
ATOM     47  O   UNL     1       2.830  -7.117  25.409  0.00  0.00    -0.287 OA
ATOM     48  C   UNL     1       6.002  -5.488  26.022  0.00  0.00    +0.056 A 
ATOM     49  C   UNL     1       7.100  -4.917  25.338  0.00  0.00    +0.045 A 
ATOM     50  C   UNL     1       7.128  -5.011  23.935  0.00  0.00    +0.055 A 
ATOM     51  C   UNL     1       6.068  -5.560  23.218  0.00  0.00    +0.140 A 
BRANCH  36  52
ATOM     52  N   UNL     1       3.954  -6.765  23.109  0.00  0.00    -0.356 N 
ATOM     53  H   UNL     1       3.135  -6.140  23.000  0.00  0.00    +0.142 HD
ATOM     54  H   UNL     1       4.285  -6.998  22.164  0.00  0.00    +0.142 HD
ENDBRANCH  36  52
BRANCH  51  55
ATOM     55  S   UNL     1       6.118  -5.512  21.446  0.00  0.00    +0.111 S 
ATOM     56  O   UNL     1       5.096  -6.393  20.929  0.00  0.00    -0.142 OA
ATOM     57  O   UNL     1       7.512  -5.661  21.075  0.00  0.00    -0.142 OA
BRANCH  55  58
ATOM     58  O   UNL     1       5.693  -3.992  21.105  0.00  0.00    -0.250 OA
ATOM     59  H   UNL     1       4.919  -3.756  21.667  0.00  0.00    +0.245 HD
ENDBRANCH  55  58
ENDBRANCH  51  55
ENDBRANCH  34  49
ENDBRANCH   1  34
TORSDOF 11
ENDMDL
MODEL 4
REMARK VINA RESULT:      -6.4      3.519      5.158
REMARK  Name = 
REMARK  11 active torsions:
REMARK  status: ('A' for Active; 'I' for Inactive)
REMARK    1  A    between atoms: N_1  and  C_2
REMARK    2  A    between atoms: C_3  and  S_48
REMARK    3  A    between atoms: C_5  and  N_6
REMARK    4  A    between atoms: N_6  and  C_7
REMARK    5  A    between atoms: C_10  and  N_11
REMARK    6  A    between atoms: N_18  and  C_19
REMARK    7  A    between atoms: C_24  and  S_25
REMARK    8  A    between atoms: S_25  and  O_26
REMARK    9  A    between atoms: C_30  and  S_32
REMARK   10  A    between atoms: S_32  and  O_33
REMARK   11  A    between atoms: S_48  and  O_49
REMARK                            x       y       z     vdW  Elec       q    Type
REMARK                         _______ _______ _______ _____ _____    ______ ____
ROOT
ATOM      1  C   UNL     1       5.869  -2.061  27.043  0.00  0.00    +0.033 A 
ATOM      2  C   UNL     1       5.313  -1.355  28.112  0.00  0.00    +0.054 A 
ATOM      3  C   UNL     1       5.535   0.040  28.247  0.00  0.00    +0.140 A 
ATOM      4  C   UNL     1       6.307   0.769  27.321  0.00  0.00    +0.061 A 
ATOM      5  C   UNL     1       6.786   0.043  26.225  0.00  0.00    +0.027 A 
ATOM      6  C   UNL     1       6.557  -1.326  26.079  0.00  0.00    +0.025 A 
ENDROOT
BRANCH   4   7
ATOM      7  N   UNL     1       6.552   2.154  27.407  0.00  0.00    -0.282 N 
ATOM      8  H   UNL     1       7.503   2.443  27.634  0.00  0.00    +0.155 HD
ATOM      9  C   UNL     1       5.794   3.234  26.935  0.00  0.00    +0.225 A 
ATOM     10  N   UNL     1       6.445   4.344  26.608  0.00  0.00    -0.181 NA
ATOM     11  C   UNL     1       5.746   5.359  26.087  0.00  0.00    +0.225 A 
ATOM     12  N   UNL     1       6.395   6.501  25.577  0.00  0.00    -0.282 N 
ATOM     13  H   UNL     1       5.698   7.083  25.108  0.00  0.00    +0.155 HD
ATOM     14  N   UNL     1       4.432   5.331  25.940  0.00  0.00    -0.184 NA
ATOM     15  C   UNL     1       3.884   4.189  26.331  0.00  0.00    +0.229 A 
ATOM     16 CL   UNL     1       2.199   4.031  26.083  0.00  0.00    -0.041 Cl
ATOM     17  N   UNL     1       4.484   3.116  26.812  0.00  0.00    -0.184 NA
BRANCH  12  18
ATOM     18  C   UNL     1       7.713   6.584  25.074  0.00  0.00    +0.061 A 
ATOM     19  C   UNL     1       8.101   6.122  23.803  0.00  0.00    +0.138 A 
ATOM     20  C   UNL     1       9.458   5.998  23.450  0.00  0.00    +0.031 A 
ATOM     21  C   UNL     1      10.450   6.434  24.319  0.00  0.00    +0.002 A 
ATOM     22  C   UNL     1      10.086   7.032  25.516  0.00  0.00    +0.002 A 
ATOM     23  C   UNL     1       8.740   7.108  25.879  0.00  0.00    +0.025 A 
BRANCH  19  24
ATOM     24  S   UNL     1       6.939   5.739  22.523  0.00  0.00    +0.111 S 
ATOM     25  O   UNL     1       5.715   6.458  22.810  0.00  0.00    -0.142 OA
ATOM     26  O   UNL     1       6.952   4.311  22.297  0.00  0.00    -0.142 OA
BRANCH  24  27
ATOM     27  O   UNL     1       7.578   6.378  21.186  0.00  0.00    -0.250 OA
ATOM     28  H   UNL     1       6.843   6.554  20.561  0.00  0.00    +0.245 HD
ENDBRANCH  24  27
ENDBRANCH  19  24
ENDBRANCH  12  18
ENDBRANCH   4   7
BRANCH   3  29
ATOM     29  S   UNL     1       4.867   0.793  29.707  0.00  0.00    +0.111 S 
ATOM     30  O   UNL     1       5.881   1.656  30.267  0.00  0.00    -0.142 OA
ATOM     31  O   UNL     1       4.197  -0.229  30.485  0.00  0.00    -0.142 OA
BRANCH  29  32
ATOM     32  O   UNL     1       3.675   1.719  29.133  0.00  0.00    -0.250 OA
ATOM     33  H   UNL     1       3.129   1.178  28.524  0.00  0.00    +0.245 HD
ENDBRANCH  29  32
ENDBRANCH   3  29
BRANCH   1  34
ATOM     34  N   UNL     1       5.827  -3.470  26.995  0.00  0.00    -0.314 N 
ATOM     35  H   UNL     1       5.674  -3.925  27.905  0.00  0.00    +0.152 HD
BRANCH  34  49
ATOM     36  C   UNL     1       4.840  -5.708  23.493  0.00  0.00    +0.064 A 
ATOM     37  C   UNL     1       4.131  -5.942  24.703  0.00  0.00    +0.057 A 
ATOM     38  C   UNL     1       3.013  -6.919  24.716  0.00  0.00    +0.196 C 
ATOM     39  C   UNL     1       2.302  -7.215  25.967  0.00  0.00    +0.033 A 
ATOM     40  C   UNL     1       2.591  -6.501  27.124  0.00  0.00    +0.033 A 
ATOM     41  C   UNL     1       3.643  -5.463  27.114  0.00  0.00    +0.196 C 
ATOM     42  O   UNL     1       3.862  -4.818  28.135  0.00  0.00    -0.287 OA
ATOM     43  C   UNL     1       1.883  -6.782  28.301  0.00  0.00    +0.012 A 
ATOM     44  C   UNL     1       0.907  -7.782  28.313  0.00  0.00    +0.001 A 
ATOM     45  C   UNL     1       0.631  -8.504  27.154  0.00  0.00    +0.001 A 
ATOM     46  C   UNL     1       1.323  -8.219  25.979  0.00  0.00    +0.012 A 
ATOM     47  O   UNL     1       2.659  -7.481  23.683  0.00  0.00    -0.287 OA
ATOM     48  C   UNL     1       4.439  -5.222  25.880  0.00  0.00    +0.056 A 
ATOM     49  C   UNL     1       5.489  -4.275  25.874  0.00  0.00    +0.045 A 
ATOM     50  C   UNL     1       6.223  -4.108  24.687  0.00  0.00    +0.055 A 
ATOM     51  C   UNL     1       5.879  -4.776  23.514  0.00  0.00    +0.140 A 
BRANCH  36  52
ATOM     52  N   UNL     1       4.586  -6.447  22.304  0.00  0.00    -0.356 N 
ATOM     53  H   UNL     1       5.154  -6.075  21.521  0.00  0.00    +0.142 HD
ATOM     54  H   UNL     1       4.836  -7.437  22.416  0.00  0.00    +0.142 HD
ENDBRANCH  36  52
BRANCH  51  55
ATOM     55  S   UNL     1       6.767  -4.403  22.025  0.00  0.00    +0.111 S 
ATOM     56  O   UNL     1       7.236  -5.639  21.442  0.00  0.00    -0.142 OA
ATOM     57  O   UNL     1       7.676  -3.322  22.354  0.00  0.00    -0.142 OA
BRANCH  55  58
ATOM     58  O   UNL     1       5.627  -3.791  21.058  0.00  0.00    -0.250 OA
ATOM     59  H   UNL     1       6.036  -3.082  20.512  0.00  0.00    +0.245 HD
ENDBRANCH  55  58
ENDBRANCH  51  55
ENDBRANCH  34  49
ENDBRANCH   1  34
TORSDOF 11
ENDMDL
MODEL 5
REMARK VINA RESULT:      -6.2      3.340      5.485
REMARK  Name = 
REMARK  11 active torsions:
REMARK  status: ('A' for Active; 'I' for Inactive)
REMARK    1  A    between atoms: N_1  and  C_2
REMARK    2  A    between atoms: C_3  and  S_48
REMARK    3  A    between atoms: C_5  and  N_6
REMARK    4  A    between atoms: N_6  and  C_7
REMARK    5  A    between atoms: C_10  and  N_11
REMARK    6  A    between atoms: N_18  and  C_19
REMARK    7  A    between atoms: C_24  and  S_25
REMARK    8  A    between atoms: S_25  and  O_26
REMARK    9  A    between atoms: C_30  and  S_32
REMARK   10  A    between atoms: S_32  and  O_33
REMARK   11  A    between atoms: S_48  and  O_49
REMARK                            x       y       z     vdW  Elec       q    Type
REMARK                         _______ _______ _______ _____ _____    ______ ____
ROOT
ATOM      1  C   UNL     1       7.291  -1.192  25.077  0.00  0.00    +0.033 A 
ATOM      2  C   UNL     1       8.284  -0.534  24.349  0.00  0.00    +0.054 A 
ATOM      3  C   UNL     1       8.015   0.712  23.725  0.00  0.00    +0.140 A 
ATOM      4  C   UNL     1       6.757   1.340  23.819  0.00  0.00    +0.061 A 
ATOM      5  C   UNL     1       5.811   0.687  24.617  0.00  0.00    +0.027 A 
ATOM      6  C   UNL     1       6.076  -0.530  25.244  0.00  0.00    +0.025 A 
ENDROOT
BRANCH   4   7
ATOM      7  N   UNL     1       6.441   2.577  23.224  0.00  0.00    -0.282 N 
ATOM      8  H   UNL     1       5.981   2.551  22.314  0.00  0.00    +0.155 HD
ATOM      9  C   UNL     1       6.364   3.856  23.793  0.00  0.00    +0.225 A 
ATOM     10  N   UNL     1       5.526   4.724  23.239  0.00  0.00    -0.181 NA
ATOM     11  C   UNL     1       5.387   5.925  23.813  0.00  0.00    +0.225 A 
ATOM     12  N   UNL     1       4.403   6.832  23.369  0.00  0.00    -0.282 N 
ATOM     13  H   UNL     1       4.375   7.618  24.022  0.00  0.00    +0.155 HD
ATOM     14  N   UNL     1       6.089   6.308  24.866  0.00  0.00    -0.184 NA
ATOM     15  C   UNL     1       6.918   5.375  25.313  0.00  0.00    +0.229 A 
ATOM     16 CL   UNL     1       7.792   5.753  26.734  0.00  0.00    -0.041 Cl
ATOM     17  N   UNL     1       7.097   4.151  24.851  0.00  0.00    -0.184 NA
BRANCH  12  18
ATOM     18  C   UNL     1       3.190   6.526  22.713  0.00  0.00    +0.061 A 
ATOM     19  C   UNL     1       2.085   5.922  23.342  0.00  0.00    +0.138 A 
ATOM     20  C   UNL     1       1.005   5.413  22.597  0.00  0.00    +0.031 A 
ATOM     21  C   UNL     1       0.958   5.592  21.220  0.00  0.00    +0.002 A 
ATOM     22  C   UNL     1       1.963   6.316  20.597  0.00  0.00    +0.002 A 
ATOM     23  C   UNL     1       3.053   6.777  21.336  0.00  0.00    +0.025 A 
BRANCH  19  24
ATOM     24  S   UNL     1       1.916   5.824  25.102  0.00  0.00    +0.111 S 
ATOM     25  O   UNL     1       1.438   7.108  25.570  0.00  0.00    -0.142 OA
ATOM     26  O   UNL     1       3.102   5.203  25.648  0.00  0.00    -0.142 OA
BRANCH  24  27
ATOM     27  O   UNL     1       0.737   4.748  25.340  0.00  0.00    -0.250 OA
ATOM     28  H   UNL     1      -0.015   5.000  24.763  0.00  0.00    +0.245 HD
ENDBRANCH  24  27
ENDBRANCH  19  24
ENDBRANCH  12  18
ENDBRANCH   4   7
BRANCH   3  29
ATOM     29  S   UNL     1       9.326   1.384  22.739  0.00  0.00    +0.111 S 
ATOM     30  O   UNL     1       8.797   1.657  21.422  0.00  0.00    -0.142 OA
ATOM     31  O   UNL     1      10.516   0.585  22.950  0.00  0.00    -0.142 OA
BRANCH  29  32
ATOM     32  O   UNL     1       9.645   2.795  23.459  0.00  0.00    -0.250 OA
ATOM     33  H   UNL     1       9.017   2.911  24.202  0.00  0.00    +0.245 HD
ENDBRANCH  29  32
ENDBRANCH   3  29
BRANCH   1  34
ATOM     34  N   UNL     1       7.473  -2.513  25.536  0.00  0.00    -0.314 N 
ATOM     35  H   UNL     1       7.851  -2.586  26.490  0.00  0.00    +0.152 HD
BRANCH  34  49
ATOM     36  C   UNL     1       5.349  -5.887  24.003  0.00  0.00    +0.064 A 
ATOM     37  C   UNL     1       5.300  -5.595  25.394  0.00  0.00    +0.057 A 
ATOM     38  C   UNL     1       4.460  -6.433  26.287  0.00  0.00    +0.196 C 
ATOM     39  C   UNL     1       4.437  -6.182  27.734  0.00  0.00    +0.033 A 
ATOM     40  C   UNL     1       5.109  -5.089  28.267  0.00  0.00    +0.033 A 
ATOM     41  C   UNL     1       5.885  -4.190  27.386  0.00  0.00    +0.196 C 
ATOM     42  O   UNL     1       6.445  -3.210  27.867  0.00  0.00    -0.287 OA
ATOM     43  C   UNL     1       5.055  -4.853  29.648  0.00  0.00    +0.012 A 
ATOM     44  C   UNL     1       4.342  -5.720  30.481  0.00  0.00    +0.001 A 
ATOM     45  C   UNL     1       3.680  -6.822  29.944  0.00  0.00    +0.001 A 
ATOM     46  C   UNL     1       3.723  -7.052  28.569  0.00  0.00    +0.012 A 
ATOM     47  O   UNL     1       3.764  -7.334  25.828  0.00  0.00    -0.287 OA
ATOM     48  C   UNL     1       5.998  -4.490  25.932  0.00  0.00    +0.056 A 
ATOM     49  C   UNL     1       6.786  -3.674  25.088  0.00  0.00    +0.045 A 
ATOM     50  C   UNL     1       6.876  -4.019  23.729  0.00  0.00    +0.055 A 
ATOM     51  C   UNL     1       6.141  -5.073  23.192  0.00  0.00    +0.140 A 
BRANCH  36  52
ATOM     52  N   UNL     1       4.696  -7.017  23.437  0.00  0.00    -0.356 N 
ATOM     53  H   UNL     1       3.971  -6.713  22.761  0.00  0.00    +0.142 HD
ATOM     54  H   UNL     1       5.355  -7.616  22.925  0.00  0.00    +0.142 HD
ENDBRANCH  36  52
BRANCH  51  55
ATOM     55  S   UNL     1       6.202  -5.355  21.442  0.00  0.00    +0.111 S 
ATOM     56  O   UNL     1       7.430  -6.048  21.126  0.00  0.00    -0.142 OA
ATOM     57  O   UNL     1       5.855  -4.094  20.816  0.00  0.00    -0.142 OA
BRANCH  55  58
ATOM     58  O   UNL     1       4.971  -6.369  21.188  0.00  0.00    -0.250 OA
ATOM     59  H   UNL     1       4.999  -6.656  20.246  0.00  0.00    +0.245 HD
ENDBRANCH  55  58
ENDBRANCH  51  55
ENDBRANCH  34  49
ENDBRANCH   1  34
TORSDOF 11
ENDMDL
MODEL 6
REMARK VINA RESULT:      -6.2      3.018      4.782
REMARK  Name = 
REMARK  11 active torsions:
REMARK  status: ('A' for Active; 'I' for Inactive)
REMARK    1  A    between atoms: N_1  and  C_2
REMARK    2  A    between atoms: C_3  and  S_48
REMARK    3  A    between atoms: C_5  and  N_6
REMARK    4  A    between atoms: N_6  and  C_7
REMARK    5  A    between atoms: C_10  and  N_11
REMARK    6  A    between atoms: N_18  and  C_19
REMARK    7  A    between atoms: C_24  and  S_25
REMARK    8  A    between atoms: S_25  and  O_26
REMARK    9  A    between atoms: C_30  and  S_32
REMARK   10  A    between atoms: S_32  and  O_33
REMARK   11  A    between atoms: S_48  and  O_49
REMARK                            x       y       z     vdW  Elec       q    Type
REMARK                         _______ _______ _______ _____ _____    ______ ____
ROOT
ATOM      1  C   UNL     1       6.100  -3.991  23.710  0.00  0.00    +0.033 A 
ATOM      2  C   UNL     1       7.422  -3.571  23.553  0.00  0.00    +0.054 A 
ATOM      3  C   UNL     1       7.747  -2.189  23.580  0.00  0.00    +0.140 A 
ATOM      4  C   UNL     1       6.770  -1.194  23.773  0.00  0.00    +0.061 A 
ATOM      5  C   UNL     1       5.469  -1.656  24.000  0.00  0.00    +0.027 A 
ATOM      6  C   UNL     1       5.147  -3.013  23.990  0.00  0.00    +0.025 A 
ENDROOT
BRANCH   4   7
ATOM      7  N   UNL     1       7.041   0.188  23.814  0.00  0.00    -0.282 N 
ATOM      8  H   UNL     1       7.030   0.690  22.926  0.00  0.00    +0.155 HD
ATOM      9  C   UNL     1       7.027   1.078  24.897  0.00  0.00    +0.225 A 
ATOM     10  N   UNL     1       6.740   2.349  24.644  0.00  0.00    -0.181 NA
ATOM     11  C   UNL     1       6.651   3.197  25.675  0.00  0.00    +0.225 A 
ATOM     12  N   UNL     1       6.199   4.519  25.491  0.00  0.00    -0.282 N 
ATOM     13  H   UNL     1       6.075   4.946  26.411  0.00  0.00    +0.155 HD
ATOM     14  N   UNL     1       6.894   2.842  26.925  0.00  0.00    -0.184 NA
ATOM     15  C   UNL     1       7.205   1.559  27.056  0.00  0.00    +0.229 A 
ATOM     16 CL   UNL     1       7.437   0.994  28.654  0.00  0.00    -0.041 Cl
ATOM     17  N   UNL     1       7.275   0.634  26.116  0.00  0.00    -0.184 NA
BRANCH  12  18
ATOM     18  C   UNL     1       5.356   5.001  24.464  0.00  0.00    +0.061 A 
ATOM     19  C   UNL     1       5.822   5.625  23.292  0.00  0.00    +0.138 A 
ATOM     20  C   UNL     1       4.946   6.307  22.426  0.00  0.00    +0.031 A 
ATOM     21  C   UNL     1       3.576   6.286  22.657  0.00  0.00    +0.002 A 
ATOM     22  C   UNL     1       3.081   5.550  23.723  0.00  0.00    +0.002 A 
ATOM     23  C   UNL     1       3.960   4.917  24.603  0.00  0.00    +0.025 A 
BRANCH  19  24
ATOM     24  S   UNL     1       7.510   5.543  22.764  0.00  0.00    +0.111 S 
ATOM     25  O   UNL     1       8.344   5.590  23.947  0.00  0.00    -0.142 OA
ATOM     26  O   UNL     1       7.696   6.457  21.660  0.00  0.00    -0.142 OA
BRANCH  24  27
ATOM     27  O   UNL     1       7.665   4.073  22.117  0.00  0.00    -0.250 OA
ATOM     28  H   UNL     1       8.090   4.178  21.239  0.00  0.00    +0.245 HD
ENDBRANCH  24  27
ENDBRANCH  19  24
ENDBRANCH  12  18
ENDBRANCH   4   7
BRANCH   3  29
ATOM     29  S   UNL     1       9.443  -1.787  23.256  0.00  0.00    +0.111 S 
ATOM     30  O   UNL     1       9.493  -1.024  22.030  0.00  0.00    -0.142 OA
ATOM     31  O   UNL     1      10.246  -2.975  23.467  0.00  0.00    -0.142 OA
BRANCH  29  32
ATOM     32  O   UNL     1       9.831  -0.806  24.479  0.00  0.00    -0.250 OA
ATOM     33  H   UNL     1      10.134   0.048  24.106  0.00  0.00    +0.245 HD
ENDBRANCH  29  32
ENDBRANCH   3  29
BRANCH   1  34
ATOM     34  N   UNL     1       5.727  -5.333  23.492  0.00  0.00    -0.314 N 
ATOM     35  H   UNL     1       6.511  -5.969  23.296  0.00  0.00    +0.152 HD
BRANCH  34  49
ATOM     36  C   UNL     1       2.081  -7.159  24.766  0.00  0.00    +0.064 A 
ATOM     37  C   UNL     1       3.072  -6.816  25.727  0.00  0.00    +0.057 A 
ATOM     38  C   UNL     1       2.799  -7.042  27.169  0.00  0.00    +0.196 C 
ATOM     39  C   UNL     1       3.829  -6.745  28.173  0.00  0.00    +0.033 A 
ATOM     40  C   UNL     1       5.023  -6.143  27.796  0.00  0.00    +0.033 A 
ATOM     41  C   UNL     1       5.284  -5.831  26.375  0.00  0.00    +0.196 C 
ATOM     42  O   UNL     1       6.329  -5.269  26.063  0.00  0.00    -0.287 OA
ATOM     43  C   UNL     1       5.983  -5.845  28.774  0.00  0.00    +0.012 A 
ATOM     44  C   UNL     1       5.745  -6.165  30.114  0.00  0.00    +0.001 A 
ATOM     45  C   UNL     1       4.551  -6.780  30.485  0.00  0.00    +0.001 A 
ATOM     46  C   UNL     1       3.590  -7.067  29.517  0.00  0.00    +0.012 A 
ATOM     47  O   UNL     1       1.709  -7.465  27.541  0.00  0.00    -0.287 OA
ATOM     48  C   UNL     1       4.291  -6.218  25.335  0.00  0.00    +0.056 A 
ATOM     49  C   UNL     1       4.554  -5.980  23.966  0.00  0.00    +0.045 A 
ATOM     50  C   UNL     1       3.591  -6.390  23.027  0.00  0.00    +0.055 A 
ATOM     51  C   UNL     1       2.368  -6.925  23.420  0.00  0.00    +0.140 A 
BRANCH  36  52
ATOM     52  N   UNL     1       0.864  -7.804  25.122  0.00  0.00    -0.356 N 
ATOM     53  H   UNL     1       0.707  -8.633  24.520  0.00  0.00    +0.142 HD
ATOM     54  H   UNL     1       0.884  -8.136  26.094  0.00  0.00    +0.142 HD
ENDBRANCH  36  52
BRANCH  51  55
ATOM     55  S   UNL     1       1.152  -7.284  22.179  0.00  0.00    +0.111 S 
ATOM     56  O   UNL     1       0.443  -6.066  21.859  0.00  0.00    -0.142 OA
ATOM     57  O   UNL     1       0.457  -8.476  22.625  0.00  0.00    -0.142 OA
BRANCH  55  58
ATOM     58  O   UNL     1       2.043  -7.701  20.898  0.00  0.00    -0.250 OA
ATOM     59  H   UNL     1       2.531  -6.902  20.591  0.00  0.00    +0.245 HD
ENDBRANCH  55  58
ENDBRANCH  51  55
ENDBRANCH  34  49
ENDBRANCH   1  34
TORSDOF 11
ENDMDL
MODEL 7
REMARK VINA RESULT:      -6.1      2.407      3.090
REMARK  Name = 
REMARK  11 active torsions:
REMARK  status: ('A' for Active; 'I' for Inactive)
REMARK    1  A    between atoms: N_1  and  C_2
REMARK    2  A    between atoms: C_3  and  S_48
REMARK    3  A    between atoms: C_5  and  N_6
REMARK    4  A    between atoms: N_6  and  C_7
REMARK    5  A    between atoms: C_10  and  N_11
REMARK    6  A    between atoms: N_18  and  C_19
REMARK    7  A    between atoms: C_24  and  S_25
REMARK    8  A    between atoms: S_25  and  O_26
REMARK    9  A    between atoms: C_30  and  S_32
REMARK   10  A    between atoms: S_32  and  O_33
REMARK   11  A    between atoms: S_48  and  O_49
REMARK                            x       y       z     vdW  Elec       q    Type
REMARK                         _______ _______ _______ _____ _____    ______ ____
ROOT
ATOM      1  C   UNL     1       5.347  -2.549  25.041  0.00  0.00    +0.033 A 
ATOM      2  C   UNL     1       4.482  -1.871  25.903  0.00  0.00    +0.054 A 
ATOM      3  C   UNL     1       4.646  -0.483  26.144  0.00  0.00    +0.140 A 
ATOM      4  C   UNL     1       5.667   0.269  25.530  0.00  0.00    +0.061 A 
ATOM      5  C   UNL     1       6.468  -0.427  24.618  0.00  0.00    +0.027 A 
ATOM      6  C   UNL     1       6.300  -1.789  24.365  0.00  0.00    +0.025 A 
ENDROOT
BRANCH   4   7
ATOM      7  N   UNL     1       5.869   1.648  25.732  0.00  0.00    -0.282 N 
ATOM      8  H   UNL     1       6.562   1.919  26.430  0.00  0.00    +0.155 HD
ATOM      9  C   UNL     1       5.510   2.739  24.928  0.00  0.00    +0.225 A 
ATOM     10  N   UNL     1       6.267   3.827  24.996  0.00  0.00    -0.181 NA
ATOM     11  C   UNL     1       5.981   4.850  24.182  0.00  0.00    +0.225 A 
ATOM     12  N   UNL     1       6.835   5.968  24.094  0.00  0.00    -0.282 N 
ATOM     13  H   UNL     1       6.511   6.558  23.326  0.00  0.00    +0.155 HD
ATOM     14  N   UNL     1       4.946   4.851  23.359  0.00  0.00    -0.184 NA
ATOM     15  C   UNL     1       4.241   3.729  23.400  0.00  0.00    +0.229 A 
ATOM     16 CL   UNL     1       2.942   3.608  22.294  0.00  0.00    -0.041 Cl
ATOM     17  N   UNL     1       4.463   2.650  24.128  0.00  0.00    -0.184 NA
BRANCH  12  18
ATOM     18  C   UNL     1       8.220   6.011  24.369  0.00  0.00    +0.061 A 
ATOM     19  C   UNL     1       8.764   6.376  25.615  0.00  0.00    +0.138 A 
ATOM     20  C   UNL     1      10.138   6.645  25.765  0.00  0.00    +0.031 A 
ATOM     21  C   UNL     1      11.010   6.452  24.701  0.00  0.00    +0.002 A 
ATOM     22  C   UNL     1      10.518   5.949  23.505  0.00  0.00    +0.002 A 
ATOM     23  C   UNL     1       9.148   5.730  23.351  0.00  0.00    +0.025 A 
BRANCH  19  24
ATOM     24  S   UNL     1       7.803   6.447  27.101  0.00  0.00    +0.111 S 
ATOM     25  O   UNL     1       6.554   7.108  26.785  0.00  0.00    -0.142 OA
ATOM     26  O   UNL     1       8.653   6.893  28.182  0.00  0.00    -0.142 OA
BRANCH  24  27
ATOM     27  O   UNL     1       7.467   4.906  27.444  0.00  0.00    -0.250 OA
ATOM     28  H   UNL     1       8.009   4.650  28.220  0.00  0.00    +0.245 HD
ENDBRANCH  24  27
ENDBRANCH  19  24
ENDBRANCH  12  18
ENDBRANCH   4   7
BRANCH   3  29
ATOM     29  S   UNL     1       3.552   0.230  27.344  0.00  0.00    +0.111 S 
ATOM     30  O   UNL     1       4.358   0.899  28.339  0.00  0.00    -0.142 OA
ATOM     31  O   UNL     1       2.546  -0.754  27.689  0.00  0.00    -0.142 OA
BRANCH  29  32
ATOM     32  O   UNL     1       2.756   1.351  26.498  0.00  0.00    -0.250 OA
ATOM     33  H   UNL     1       3.373   2.087  26.302  0.00  0.00    +0.245 HD
ENDBRANCH  29  32
ENDBRANCH   3  29
BRANCH   1  34
ATOM     34  N   UNL     1       5.326  -3.955  24.938  0.00  0.00    -0.314 N 
ATOM     35  H   UNL     1       6.141  -4.360  24.459  0.00  0.00    +0.152 HD
BRANCH  34  49
ATOM     36  C   UNL     1       3.435  -6.709  27.599  0.00  0.00    +0.064 A 
ATOM     37  C   UNL     1       3.115  -6.734  26.214  0.00  0.00    +0.057 A 
ATOM     38  C   UNL     1       2.172  -7.759  25.700  0.00  0.00    +0.196 C 
ATOM     39  C   UNL     1       1.786  -7.769  24.283  0.00  0.00    +0.033 A 
ATOM     40  C   UNL     1       2.387  -6.893  23.387  0.00  0.00    +0.033 A 
ATOM     41  C   UNL     1       3.392  -5.918  23.860  0.00  0.00    +0.196 C 
ATOM     42  O   UNL     1       3.938  -5.174  23.051  0.00  0.00    -0.287 OA
ATOM     43  C   UNL     1       2.023  -6.935  22.034  0.00  0.00    +0.012 A 
ATOM     44  C   UNL     1       1.053  -7.841  21.594  0.00  0.00    +0.001 A 
ATOM     45  C   UNL     1       0.444  -8.708  22.499  0.00  0.00    +0.001 A 
ATOM     46  C   UNL     1       0.813  -8.677  23.843  0.00  0.00    +0.012 A 
ATOM     47  O   UNL     1       1.713  -8.619  26.448  0.00  0.00    -0.287 OA
ATOM     48  C   UNL     1       3.719  -5.830  25.310  0.00  0.00    +0.056 A 
ATOM     49  C   UNL     1       4.633  -4.862  25.784  0.00  0.00    +0.045 A 
ATOM     50  C   UNL     1       4.884  -4.809  27.166  0.00  0.00    +0.055 A 
ATOM     51  C   UNL     1       4.332  -5.738  28.045  0.00  0.00    +0.140 A 
BRANCH  36  52
ATOM     52  N   UNL     1       2.811  -7.573  28.542  0.00  0.00    -0.356 N 
ATOM     53  H   UNL     1       2.545  -7.045  29.392  0.00  0.00    +0.142 HD
ATOM     54  H   UNL     1       1.951  -7.988  28.161  0.00  0.00    +0.142 HD
ENDBRANCH  36  52
BRANCH  51  55
ATOM     55  S   UNL     1       4.810  -5.689  29.753  0.00  0.00    +0.111 S 
ATOM     56  O   UNL     1       3.839  -4.910  30.485  0.00  0.00    -0.142 OA
ATOM     57  O   UNL     1       6.222  -5.359  29.769  0.00  0.00    -0.142 OA
BRANCH  55  58
ATOM     58  O   UNL     1       4.675  -7.230  30.218  0.00  0.00    -0.250 OA
ATOM     59  H   UNL     1       3.886  -7.305  30.803  0.00  0.00    +0.245 HD
ENDBRANCH  55  58
ENDBRANCH  51  55
ENDBRANCH  34  49
ENDBRANCH   1  34
TORSDOF 11
ENDMDL
MODEL 8
REMARK VINA RESULT:      -5.8      3.256      4.934
REMARK  Name = 
REMARK  11 active torsions:
REMARK  status: ('A' for Active; 'I' for Inactive)
REMARK    1  A    between atoms: N_1  and  C_2
REMARK    2  A    between atoms: C_3  and  S_48
REMARK    3  A    between atoms: C_5  and  N_6
REMARK    4  A    between atoms: N_6  and  C_7
REMARK    5  A    between atoms: C_10  and  N_11
REMARK    6  A    between atoms: N_18  and  C_19
REMARK    7  A    between atoms: C_24  and  S_25
REMARK    8  A    between atoms: S_25  and  O_26
REMARK    9  A    between atoms: C_30  and  S_32
REMARK   10  A    between atoms: S_32  and  O_33
REMARK   11  A    between atoms: S_48  and  O_49
REMARK                            x       y       z     vdW  Elec       q    Type
REMARK                         _______ _______ _______ _____ _____    ______ ____
ROOT
ATOM      1  C   UNL     1       5.482  -1.935  27.204  0.00  0.00    +0.033 A 
ATOM      2  C   UNL     1       5.224  -0.988  28.197  0.00  0.00    +0.054 A 
ATOM      3  C   UNL     1       5.780   0.315  28.112  0.00  0.00    +0.140 A 
ATOM      4  C   UNL     1       6.597   0.712  27.035  0.00  0.00    +0.061 A 
ATOM      5  C   UNL     1       6.773  -0.239  26.024  0.00  0.00    +0.027 A 
ATOM      6  C   UNL     1       6.215  -1.515  26.095  0.00  0.00    +0.025 A 
ENDROOT
BRANCH   4   7
ATOM      7  N   UNL     1       7.168   1.993  26.901  0.00  0.00    -0.282 N 
ATOM      8  H   UNL     1       8.141   2.100  27.185  0.00  0.00    +0.155 HD
ATOM      9  C   UNL     1       6.734   3.099  26.157  0.00  0.00    +0.225 A 
ATOM     10  N   UNL     1       7.660   3.943  25.717  0.00  0.00    -0.181 NA
ATOM     11  C   UNL     1       7.271   4.964  24.944  0.00  0.00    +0.225 A 
ATOM     12  N   UNL     1       8.216   5.803  24.319  0.00  0.00    -0.282 N 
ATOM     13  H   UNL     1       7.719   6.420  23.675  0.00  0.00    +0.155 HD
ATOM     14  N   UNL     1       6.005   5.206  24.650  0.00  0.00    -0.184 NA
ATOM     15  C   UNL     1       5.166   4.321  25.170  0.00  0.00    +0.229 A 
ATOM     16 CL   UNL     1       3.516   4.502  24.755  0.00  0.00    -0.041 Cl
ATOM     17  N   UNL     1       5.448   3.258  25.903  0.00  0.00    -0.184 NA
BRANCH  12  18
ATOM     18  C   UNL     1       9.547   5.482  23.970  0.00  0.00    +0.061 A 
ATOM     19  C   UNL     1       9.940   4.249  23.415  0.00  0.00    +0.138 A 
ATOM     20  C   UNL     1      11.296   3.886  23.320  0.00  0.00    +0.031 A 
ATOM     21  C   UNL     1      12.290   4.790  23.677  0.00  0.00    +0.002 A 
ATOM     22  C   UNL     1      11.929   6.065  24.085  0.00  0.00    +0.002 A 
ATOM     23  C   UNL     1      10.581   6.400  24.221  0.00  0.00    +0.025 A 
BRANCH  19  24
ATOM     24  S   UNL     1       8.788   3.096  22.722  0.00  0.00    +0.111 S 
ATOM     25  O   UNL     1       7.669   3.852  22.199  0.00  0.00    -0.142 OA
ATOM     26  O   UNL     1       8.606   2.005  23.653  0.00  0.00    -0.142 OA
BRANCH  24  27
ATOM     27  O   UNL     1       9.567   2.446  21.467  0.00  0.00    -0.250 OA
ATOM     28  H   UNL     1      10.306   3.046  21.233  0.00  0.00    +0.245 HD
ENDBRANCH  24  27
ENDBRANCH  19  24
ENDBRANCH  12  18
ENDBRANCH   4   7
BRANCH   3  29
ATOM     29  S   UNL     1       5.467   1.382  29.493  0.00  0.00    +0.111 S 
ATOM     30  O   UNL     1       6.738   1.873  29.974  0.00  0.00    -0.142 OA
ATOM     31  O   UNL     1       4.501   0.739  30.361  0.00  0.00    -0.142 OA
BRANCH  29  32
ATOM     32  O   UNL     1       4.665   2.618  28.831  0.00  0.00    -0.250 OA
ATOM     33  H   UNL     1       4.324   2.333  27.957  0.00  0.00    +0.245 HD
ENDBRANCH  29  32
ENDBRANCH   3  29
BRANCH   1  34
ATOM     34  N   UNL     1       5.106  -3.284  27.363  0.00  0.00    -0.314 N 
ATOM     35  H   UNL     1       4.580  -3.483  28.224  0.00  0.00    +0.152 HD
BRANCH  34  49
ATOM     36  C   UNL     1       4.593  -6.013  24.116  0.00  0.00    +0.064 A 
ATOM     37  C   UNL     1       3.830  -6.178  25.304  0.00  0.00    +0.057 A 
ATOM     38  C   UNL     1       2.818  -7.263  25.376  0.00  0.00    +0.196 C 
ATOM     39  C   UNL     1       2.056  -7.485  26.612  0.00  0.00    +0.033 A 
ATOM     40  C   UNL     1       2.191  -6.613  27.686  0.00  0.00    +0.033 A 
ATOM     41  C   UNL     1       3.131  -5.475  27.607  0.00  0.00    +0.196 C 
ATOM     42  O   UNL     1       3.214  -4.694  28.550  0.00  0.00    -0.287 OA
ATOM     43  C   UNL     1       1.436  -6.828  28.847  0.00  0.00    +0.012 A 
ATOM     44  C   UNL     1       0.567  -7.920  28.929  0.00  0.00    +0.001 A 
ATOM     45  C   UNL     1       0.445  -8.799  27.855  0.00  0.00    +0.001 A 
ATOM     46  C   UNL     1       1.185  -8.581  26.694  0.00  0.00    +0.012 A 
ATOM     47  O   UNL     1       2.595  -7.977  24.403  0.00  0.00    -0.287 OA
ATOM     48  C   UNL     1       3.982  -5.296  26.398  0.00  0.00    +0.056 A 
ATOM     49  C   UNL     1       4.929  -4.248  26.333  0.00  0.00    +0.045 A 
ATOM     50  C   UNL     1       5.723  -4.143  25.178  0.00  0.00    +0.055 A 
ATOM     51  C   UNL     1       5.529  -4.978  24.080  0.00  0.00    +0.140 A 
BRANCH  36  52
ATOM     52  N   UNL     1       4.497  -6.910  23.016  0.00  0.00    -0.356 N 
ATOM     53  H   UNL     1       3.600  -6.770  22.516  0.00  0.00    +0.142 HD
ATOM     54  H   UNL     1       5.251  -6.753  22.336  0.00  0.00    +0.142 HD
ENDBRANCH  36  52
BRANCH  51  55
ATOM     55  S   UNL     1       6.475  -4.688  22.608  0.00  0.00    +0.111 S 
ATOM     56  O   UNL     1       5.566  -4.431  21.515  0.00  0.00    -0.142 OA
ATOM     57  O   UNL     1       7.463  -5.748  22.545  0.00  0.00    -0.142 OA
BRANCH  55  58
ATOM     58  O   UNL     1       7.265  -3.319  22.939  0.00  0.00    -0.250 OA
ATOM     59  H   UNL     1       6.698  -2.774  23.532  0.00  0.00    +0.245 HD
ENDBRANCH  55  58
ENDBRANCH  51  55
ENDBRANCH  34  49
ENDBRANCH   1  34
TORSDOF 11
ENDMDL
MODEL 9
REMARK VINA RESULT:      -5.7      3.038      4.330
REMARK  Name = 
REMARK  11 active torsions:
REMARK  status: ('A' for Active; 'I' for Inactive)
REMARK    1  A    between atoms: N_1  and  C_2
REMARK    2  A    between atoms: C_3  and  S_48
REMARK    3  A    between atoms: C_5  and  N_6
REMARK    4  A    between atoms: N_6  and  C_7
REMARK    5  A    between atoms: C_10  and  N_11
REMARK    6  A    between atoms: N_18  and  C_19
REMARK    7  A    between atoms: C_24  and  S_25
REMARK    8  A    between atoms: S_25  and  O_26
REMARK    9  A    between atoms: C_30  and  S_32
REMARK   10  A    between atoms: S_32  and  O_33
REMARK   11  A    between atoms: S_48  and  O_49
REMARK                            x       y       z     vdW  Elec       q    Type
REMARK                         _______ _______ _______ _____ _____    ______ ____
ROOT
ATOM      1  C   UNL     1       7.233  -1.206  26.110  0.00  0.00    +0.033 A 
ATOM      2  C   UNL     1       8.277  -0.500  25.510  0.00  0.00    +0.054 A 
ATOM      3  C   UNL     1       8.015   0.680  24.765  0.00  0.00    +0.140 A 
ATOM      4  C   UNL     1       6.713   1.191  24.607  0.00  0.00    +0.061 A 
ATOM      5  C   UNL     1       5.702   0.500  25.283  0.00  0.00    +0.027 A 
ATOM      6  C   UNL     1       5.957  -0.651  26.030  0.00  0.00    +0.025 A 
ENDROOT
BRANCH   4   7
ATOM      7  N   UNL     1       6.401   2.359  23.884  0.00  0.00    -0.282 N 
ATOM      8  H   UNL     1       5.980   2.237  22.963  0.00  0.00    +0.155 HD
ATOM      9  C   UNL     1       6.280   3.686  24.322  0.00  0.00    +0.225 A 
ATOM     10  N   UNL     1       5.451   4.479  23.654  0.00  0.00    -0.181 NA
ATOM     11  C   UNL     1       5.268   5.727  24.104  0.00  0.00    +0.225 A 
ATOM     12  N   UNL     1       4.289   6.566  23.535  0.00  0.00    -0.282 N 
ATOM     13  H   UNL     1       4.221   7.410  24.107  0.00  0.00    +0.155 HD
ATOM     14  N   UNL     1       5.919   6.223  25.142  0.00  0.00    -0.184 NA
ATOM     15  C   UNL     1       6.745   5.354  25.709  0.00  0.00    +0.229 A 
ATOM     16 CL   UNL     1       7.552   5.885  27.121  0.00  0.00    -0.041 Cl
ATOM     17  N   UNL     1       6.963   4.095  25.375  0.00  0.00    -0.184 NA
BRANCH  12  18
ATOM     18  C   UNL     1       3.109   6.174  22.864  0.00  0.00    +0.061 A 
ATOM     19  C   UNL     1       2.015   5.552  23.494  0.00  0.00    +0.138 A 
ATOM     20  C   UNL     1       0.979   4.958  22.748  0.00  0.00    +0.031 A 
ATOM     21  C   UNL     1       0.963   5.067  21.363  0.00  0.00    +0.002 A 
ATOM     22  C   UNL     1       1.952   5.805  20.730  0.00  0.00    +0.002 A 
ATOM     23  C   UNL     1       3.000   6.350  21.474  0.00  0.00    +0.025 A 
BRANCH  19  24
ATOM     24  S   UNL     1       1.801   5.532  25.252  0.00  0.00    +0.111 S 
ATOM     25  O   UNL     1       0.570   4.824  25.537  0.00  0.00    -0.142 OA
ATOM     26  O   UNL     1       2.056   6.859  25.765  0.00  0.00    -0.142 OA
BRANCH  24  27
ATOM     27  O   UNL     1       3.021   4.631  25.802  0.00  0.00    -0.250 OA
ATOM     28  H   UNL     1       3.583   4.393  25.035  0.00  0.00    +0.245 HD
ENDBRANCH  24  27
ENDBRANCH  19  24
ENDBRANCH  12  18
ENDBRANCH   4   7
BRANCH   3  29
ATOM     29  S   UNL     1       9.415   1.415  23.961  0.00  0.00    +0.111 S 
ATOM     30  O   UNL     1       9.099   1.556  22.558  0.00  0.00    -0.142 OA
ATOM     31  O   UNL     1      10.614   0.748  24.427  0.00  0.00    -0.142 OA
BRANCH  29  32
ATOM     32  O   UNL     1       9.484   2.889  24.616  0.00  0.00    -0.250 OA
ATOM     33  H   UNL     1       9.091   2.848  25.513  0.00  0.00    +0.245 HD
ENDBRANCH  29  32
ENDBRANCH   3  29
BRANCH   1  34
ATOM     34  N   UNL     1       7.442  -2.477  26.684  0.00  0.00    -0.314 N 
ATOM     35  H   UNL     1       8.122  -2.491  27.456  0.00  0.00    +0.152 HD
BRANCH  34  49
ATOM     36  C   UNL     1       4.812  -5.837  26.872  0.00  0.00    +0.064 A 
ATOM     37  C   UNL     1       5.397  -5.469  25.630  0.00  0.00    +0.057 A 
ATOM     38  C   UNL     1       5.135  -6.295  24.425  0.00  0.00    +0.196 C 
ATOM     39  C   UNL     1       5.686  -5.902  23.121  0.00  0.00    +0.033 A 
ATOM     40  C   UNL     1       6.551  -4.819  23.024  0.00  0.00    +0.033 A 
ATOM     41  C   UNL     1       6.896  -4.031  24.226  0.00  0.00    +0.196 C 
ATOM     42  O   UNL     1       7.688  -3.099  24.129  0.00  0.00    -0.287 OA
ATOM     43  C   UNL     1       7.086  -4.476  21.774  0.00  0.00    +0.012 A 
ATOM     44  C   UNL     1       6.739  -5.208  20.635  0.00  0.00    +0.001 A 
ATOM     45  C   UNL     1       5.860  -6.284  20.736  0.00  0.00    +0.001 A 
ATOM     46  C   UNL     1       5.336  -6.636  21.979  0.00  0.00    +0.012 A 
ATOM     47  O   UNL     1       4.467  -7.323  24.504  0.00  0.00    -0.287 OA
ATOM     48  C   UNL     1       6.266  -4.357  25.535  0.00  0.00    +0.056 A 
ATOM     49  C   UNL     1       6.539  -3.574  26.680  0.00  0.00    +0.045 A 
ATOM     50  C   UNL     1       5.896  -3.914  27.883  0.00  0.00    +0.055 A 
ATOM     51  C   UNL     1       5.088  -5.043  27.986  0.00  0.00    +0.140 A 
BRANCH  36  52
ATOM     52  N   UNL     1       3.898  -6.921  26.993  0.00  0.00    -0.356 N 
ATOM     53  H   UNL     1       3.349  -6.832  27.867  0.00  0.00    +0.142 HD
ATOM     54  H   UNL     1       3.228  -6.937  26.214  0.00  0.00    +0.142 HD
ENDBRANCH  36  52
BRANCH  51  55
ATOM     55  S   UNL     1       4.429  -5.481  29.574  0.00  0.00    +0.111 S 
ATOM     56  O   UNL     1       4.643  -4.380  30.485  0.00  0.00    -0.142 OA
ATOM     57  O   UNL     1       4.918  -6.816  29.861  0.00  0.00    -0.142 OA
BRANCH  55  58
ATOM     58  O   UNL     1       2.843  -5.603  29.294  0.00  0.00    -0.250 OA
ATOM     59  H   UNL     1       2.378  -4.960  29.878  0.00  0.00    +0.245 HD
ENDBRANCH  55  58
ENDBRANCH  51  55
ENDBRANCH  34  49
ENDBRANCH   1  34
TORSDOF 11
ENDMDL
