MODEL 1
REMARK VINA RESULT:      -7.4      0.000      0.000
REMARK  Name = 
REMARK  8 active torsions:
REMARK  status: ('A' for Active; 'I' for Inactive)
REMARK    1  A    between atoms: C_4  and  C_5
REMARK    2  A    between atoms: C_4  and  C_6
REMARK    3  A    between atoms: CA_7  and  C_28
REMARK    4  A    between atoms: CA_12  and  N_14
REMARK    5  A    between atoms: C_15  and  C_17
REMARK    6  A    between atoms: C_17  and  N_19
REMARK    7  A    between atoms: C_17  and  C_22
REMARK    8  A    between atoms: C_28  and  O_29
REMARK                            x       y       z     vdW  Elec       q    Type
REMARK                         _______ _______ _______ _____ _____    ______ ____
ROOT
ATOM      1  C   UNL     1       7.321  -1.186  22.658  0.00  0.00    +0.165 C 
ATOM      2  CA  UNL     1       7.683  -2.638  23.069  0.00  0.00    +0.190 C 
ATOM      3  C   UNL     1       9.143  -2.142  22.979  0.00  0.00    +0.240 C 
ATOM      4  O   UNL     1      10.223  -2.506  23.384  0.00  0.00    -0.273 OA
ATOM      5  N   UNL     1       8.764  -0.949  22.421  0.00  0.00    -0.271 N 
ATOM      6  CA  UNL     1       9.317   0.316  22.944  0.00  0.00    +0.201 C 
ATOM      7  C   UNL     1       8.548   0.645  24.249  0.00  0.00    +0.042 C 
ATOM      8  C   UNL     1       9.131  -0.103  25.467  0.00  0.00    +0.025 C 
ATOM      9  C   UNL     1       8.485   2.129  24.625  0.00  0.00    +0.025 C 
ATOM     10  S   UNL     1       6.838  -0.007  23.987  0.00  0.00    -0.127 S 
ENDROOT
BRANCH   2  11
ATOM     11  N   UNL     1       7.208  -3.100  24.394  0.00  0.00    -0.300 N 
ATOM     12  H   UNL     1       6.660  -2.502  25.008  0.00  0.00    +0.150 HD
ATOM     13  C   UNL     1       7.365  -4.412  24.790  0.00  0.00    +0.250 C 
ATOM     14  O   UNL     1       7.978  -5.218  24.093  0.00  0.00    -0.273 OA
BRANCH  13  15
ATOM     15  C   UNL     1       6.712  -4.778  26.138  0.00  0.00    +0.306 C 
BRANCH  15  16
ATOM     16  C   UNL     1       5.278  -5.237  25.958  0.00  0.00    -0.007 A 
ATOM     17  C   UNL     1       4.956  -6.377  25.204  0.00  0.00    +0.006 A 
ATOM     18  C   UNL     1       3.625  -6.776  25.053  0.00  0.00    +0.000 A 
ATOM     19  C   UNL     1       2.601  -6.039  25.642  0.00  0.00    +0.000 A 
ATOM     20  C   UNL     1       2.903  -4.895  26.377  0.00  0.00    +0.000 A 
ATOM     21  C   UNL     1       4.232  -4.496  26.530  0.00  0.00    +0.006 A 
ENDBRANCH  15  16
BRANCH  15  22
ATOM     22  N   UNL     1       7.564  -5.794  26.812  0.00  0.00    +0.094 NA
ATOM     23  N   UNL     1       7.147  -6.177  27.919  0.00  0.00    -0.014 NA
ATOM     24  N   UNL     1       6.781  -6.519  28.941  0.00  0.00    -0.328 NA
ENDBRANCH  15  22
ENDBRANCH  13  15
ENDBRANCH   2  11
BRANCH   6  25
ATOM     25  C   UNL     1       9.222   1.371  21.826  0.00  0.00    +0.327 C 
ATOM     26  OXT UNL     1       8.233   1.575  21.137  0.00  0.00    -0.249 OA
BRANCH  25  27
ATOM     27  O   UNL     1      10.330   2.148  21.714  0.00  0.00    -0.479 OA
ATOM     28  H   UNL     1      11.113   1.676  22.069  0.00  0.00    +0.295 HD
ENDBRANCH  25  27
ENDBRANCH   6  25
TORSDOF 6
ENDMDL
MODEL 2
REMARK VINA RESULT:      -7.3      2.289      3.172
REMARK  Name = 
REMARK  8 active torsions:
REMARK  status: ('A' for Active; 'I' for Inactive)
REMARK    1  A    between atoms: C_4  and  C_5
REMARK    2  A    between atoms: C_4  and  C_6
REMARK    3  A    between atoms: CA_7  and  C_28
REMARK    4  A    between atoms: CA_12  and  N_14
REMARK    5  A    between atoms: C_15  and  C_17
REMARK    6  A    between atoms: C_17  and  N_19
REMARK    7  A    between atoms: C_17  and  C_22
REMARK    8  A    between atoms: C_28  and  O_29
REMARK                            x       y       z     vdW  Elec       q    Type
REMARK                         _______ _______ _______ _____ _____    ______ ____
ROOT
ATOM      1  C   UNL     1       9.474  -0.565  25.435  0.00  0.00    +0.165 C 
ATOM      2  CA  UNL     1       8.279  -1.140  26.241  0.00  0.00    +0.190 C 
ATOM      3  C   UNL     1       7.483   0.022  25.606  0.00  0.00    +0.240 C 
ATOM      4  O   UNL     1       6.320   0.295  25.422  0.00  0.00    -0.273 OA
ATOM      5  N   UNL     1       8.618   0.594  25.091  0.00  0.00    -0.271 N 
ATOM      6  CA  UNL     1       8.644   1.037  23.683  0.00  0.00    +0.201 C 
ATOM      7  C   UNL     1       8.847  -0.228  22.811  0.00  0.00    +0.042 C 
ATOM      8  C   UNL     1       7.519  -0.965  22.544  0.00  0.00    +0.025 C 
ATOM      9  C   UNL     1       9.509   0.006  21.449  0.00  0.00    +0.025 C 
ATOM     10  S   UNL     1       9.896  -1.361  23.830  0.00  0.00    -0.127 S 
ENDROOT
BRANCH   2  11
ATOM     11  N   UNL     1       7.845  -2.516  25.910  0.00  0.00    -0.300 N 
ATOM     12  H   UNL     1       8.400  -3.127  25.315  0.00  0.00    +0.150 HD
ATOM     13  C   UNL     1       6.738  -3.079  26.510  0.00  0.00    +0.250 C 
ATOM     14  O   UNL     1       6.029  -2.428  27.275  0.00  0.00    -0.273 OA
BRANCH  13  15
ATOM     15  C   UNL     1       6.477  -4.558  26.162  0.00  0.00    +0.306 C 
BRANCH  15  16
ATOM     16  C   UNL     1       6.403  -4.775  24.663  0.00  0.00    -0.007 A 
ATOM     17  C   UNL     1       7.477  -5.318  23.940  0.00  0.00    +0.006 A 
ATOM     18  C   UNL     1       7.382  -5.505  22.558  0.00  0.00    +0.000 A 
ATOM     19  C   UNL     1       6.219  -5.143  21.881  0.00  0.00    +0.000 A 
ATOM     20  C   UNL     1       5.153  -4.586  22.581  0.00  0.00    +0.000 A 
ATOM     21  C   UNL     1       5.246  -4.400  23.962  0.00  0.00    +0.006 A 
ENDBRANCH  15  16
BRANCH  15  22
ATOM     22  N   UNL     1       7.528  -5.385  26.814  0.00  0.00    +0.094 NA
ATOM     23  N   UNL     1       7.166  -5.973  27.849  0.00  0.00    -0.014 NA
ATOM     24  N   UNL     1       6.847  -6.500  28.806  0.00  0.00    -0.328 NA
ENDBRANCH  15  22
ENDBRANCH  13  15
ENDBRANCH   2  11
BRANCH   6  25
ATOM     25  C   UNL     1       9.727   2.124  23.551  0.00  0.00    +0.327 C 
ATOM     26  OXT UNL     1      10.858   2.047  24.007  0.00  0.00    -0.249 OA
BRANCH  25  27
ATOM     27  O   UNL     1       9.349   3.180  22.784  0.00  0.00    -0.479 OA
ATOM     28  H   UNL     1       9.857   3.189  21.946  0.00  0.00    +0.295 HD
ENDBRANCH  25  27
ENDBRANCH   6  25
TORSDOF 6
ENDMDL
MODEL 3
REMARK VINA RESULT:      -7.2      1.998      2.693
REMARK  Name = 
REMARK  8 active torsions:
REMARK  status: ('A' for Active; 'I' for Inactive)
REMARK    1  A    between atoms: C_4  and  C_5
REMARK    2  A    between atoms: C_4  and  C_6
REMARK    3  A    between atoms: CA_7  and  C_28
REMARK    4  A    between atoms: CA_12  and  N_14
REMARK    5  A    between atoms: C_15  and  C_17
REMARK    6  A    between atoms: C_17  and  N_19
REMARK    7  A    between atoms: C_17  and  C_22
REMARK    8  A    between atoms: C_28  and  O_29
REMARK                            x       y       z     vdW  Elec       q    Type
REMARK                         _______ _______ _______ _____ _____    ______ ____
ROOT
ATOM      1  C   UNL     1       9.505  -0.965  23.513  0.00  0.00    +0.165 C 
ATOM      2  CA  UNL     1       9.454  -1.730  24.863  0.00  0.00    +0.190 C 
ATOM      3  C   UNL     1       9.386  -0.320  25.490  0.00  0.00    +0.240 C 
ATOM      4  O   UNL     1       9.058   0.157  26.551  0.00  0.00    -0.273 OA
ATOM      5  N   UNL     1       9.643   0.289  24.288  0.00  0.00    -0.271 N 
ATOM      6  CA  UNL     1       8.813   1.428  23.850  0.00  0.00    +0.201 C 
ATOM      7  C   UNL     1       7.485   0.843  23.306  0.00  0.00    +0.042 C 
ATOM      8  C   UNL     1       6.475   0.555  24.436  0.00  0.00    +0.025 C 
ATOM      9  C   UNL     1       6.758   1.702  22.267  0.00  0.00    +0.025 C 
ATOM     10  S   UNL     1       7.939  -0.788  22.561  0.00  0.00    -0.127 S 
ENDROOT
BRANCH   2  11
ATOM     11  N   UNL     1       8.295  -2.624  25.086  0.00  0.00    -0.300 N 
ATOM     12  H   UNL     1       7.349  -2.356  24.823  0.00  0.00    +0.150 HD
ATOM     13  C   UNL     1       8.467  -3.919  25.529  0.00  0.00    +0.250 C 
ATOM     14  O   UNL     1       9.580  -4.344  25.833  0.00  0.00    -0.273 OA
BRANCH  13  15
ATOM     15  C   UNL     1       7.185  -4.771  25.597  0.00  0.00    +0.306 C 
BRANCH  15  16
ATOM     16  C   UNL     1       6.717  -5.188  24.215  0.00  0.00    -0.007 A 
ATOM     17  C   UNL     1       7.622  -5.423  23.168  0.00  0.00    +0.006 A 
ATOM     18  C   UNL     1       7.164  -5.804  21.904  0.00  0.00    +0.000 A 
ATOM     19  C   UNL     1       5.798  -5.946  21.667  0.00  0.00    +0.000 A 
ATOM     20  C   UNL     1       4.888  -5.698  22.691  0.00  0.00    +0.000 A 
ATOM     21  C   UNL     1       5.344  -5.318  23.955  0.00  0.00    +0.006 A 
ENDBRANCH  15  16
BRANCH  15  22
ATOM     22  N   UNL     1       7.437  -5.929  26.495  0.00  0.00    +0.094 NA
ATOM     23  N   UNL     1       7.004  -5.798  27.654  0.00  0.00    -0.014 NA
ATOM     24  N   UNL     1       6.626  -5.678  28.721  0.00  0.00    -0.328 NA
ENDBRANCH  15  22
ENDBRANCH  13  15
ENDBRANCH   2  11
BRANCH   6  25
ATOM     25  C   UNL     1       9.640   2.257  22.849  0.00  0.00    +0.327 C 
ATOM     26  OXT UNL     1      10.218   1.804  21.872  0.00  0.00    -0.249 OA
BRANCH  25  27
ATOM     27  O   UNL     1       9.608   3.594  23.089  0.00  0.00    -0.479 OA
ATOM     28  H   UNL     1       9.893   3.779  24.009  0.00  0.00    +0.295 HD
ENDBRANCH  25  27
ENDBRANCH   6  25
TORSDOF 6
ENDMDL
MODEL 4
REMARK VINA RESULT:      -7.2      2.579      8.316
REMARK  Name = 
REMARK  8 active torsions:
REMARK  status: ('A' for Active; 'I' for Inactive)
REMARK    1  A    between atoms: C_4  and  C_5
REMARK    2  A    between atoms: C_4  and  C_6
REMARK    3  A    between atoms: CA_7  and  C_28
REMARK    4  A    between atoms: CA_12  and  N_14
REMARK    5  A    between atoms: C_15  and  C_17
REMARK    6  A    between atoms: C_17  and  N_19
REMARK    7  A    between atoms: C_17  and  C_22
REMARK    8  A    between atoms: C_28  and  O_29
REMARK                            x       y       z     vdW  Elec       q    Type
REMARK                         _______ _______ _______ _____ _____    ______ ____
ROOT
ATOM      1  C   UNL     1       8.265  -1.641  26.116  0.00  0.00    +0.165 C 
ATOM      2  CA  UNL     1       9.428  -1.048  25.276  0.00  0.00    +0.190 C 
ATOM      3  C   UNL     1       9.543  -2.476  24.699  0.00  0.00    +0.240 C 
ATOM      4  O   UNL     1      10.038  -2.995  23.726  0.00  0.00    -0.273 OA
ATOM      5  N   UNL     1       8.654  -2.979  25.614  0.00  0.00    -0.271 N 
ATOM      6  CA  UNL     1       7.557  -3.858  25.166  0.00  0.00    +0.201 C 
ATOM      7  C   UNL     1       6.462  -2.947  24.556  0.00  0.00    +0.042 C 
ATOM      8  C   UNL     1       6.762  -2.588  23.085  0.00  0.00    +0.025 C 
ATOM      9  C   UNL     1       5.036  -3.505  24.596  0.00  0.00    +0.025 C 
ATOM     10  S   UNL     1       6.544  -1.371  25.521  0.00  0.00    -0.127 S 
ENDROOT
BRANCH   2  11
ATOM     11  N   UNL     1       9.086   0.037  24.328  0.00  0.00    -0.300 N 
ATOM     12  H   UNL     1       8.149   0.143  23.945  0.00  0.00    +0.150 HD
ATOM     13  C   UNL     1       9.989   1.038  24.034  0.00  0.00    +0.250 C 
ATOM     14  O   UNL     1      11.132   1.016  24.485  0.00  0.00    -0.273 OA
BRANCH  13  15
ATOM     15  C   UNL     1       9.454   2.166  23.129  0.00  0.00    +0.306 C 
BRANCH  15  16
ATOM     16  C   UNL     1      10.100   3.499  23.456  0.00  0.00    -0.007 A 
ATOM     17  C   UNL     1      11.444   3.764  23.149  0.00  0.00    +0.006 A 
ATOM     18  C   UNL     1      12.015   5.001  23.464  0.00  0.00    +0.000 A 
ATOM     19  C   UNL     1      11.255   5.982  24.098  0.00  0.00    +0.000 A 
ATOM     20  C   UNL     1       9.927   5.726  24.427  0.00  0.00    +0.000 A 
ATOM     21  C   UNL     1       9.354   4.492  24.111  0.00  0.00    +0.006 A 
ENDBRANCH  15  16
BRANCH  15  22
ATOM     22  N   UNL     1       9.648   1.763  21.711  0.00  0.00    +0.094 NA
ATOM     23  N   UNL     1       9.530   0.544  21.491  0.00  0.00    -0.014 NA
ATOM     24  N   UNL     1       9.440  -0.572  21.285  0.00  0.00    -0.328 NA
ENDBRANCH  15  22
ENDBRANCH  13  15
ENDBRANCH   2  11
BRANCH   6  25
ATOM     25  C   UNL     1       7.120  -4.718  26.367  0.00  0.00    +0.327 C 
ATOM     26  OXT UNL     1       6.918  -4.295  27.496  0.00  0.00    -0.249 OA
BRANCH  25  27
ATOM     27  O   UNL     1       6.881  -6.017  26.050  0.00  0.00    -0.479 OA
ATOM     28  H   UNL     1       7.253  -6.224  25.167  0.00  0.00    +0.295 HD
ENDBRANCH  25  27
ENDBRANCH   6  25
TORSDOF 6
ENDMDL
MODEL 5
REMARK VINA RESULT:      -7.1      2.874      7.529
REMARK  Name = 
REMARK  8 active torsions:
REMARK  status: ('A' for Active; 'I' for Inactive)
REMARK    1  A    between atoms: C_4  and  C_5
REMARK    2  A    between atoms: C_4  and  C_6
REMARK    3  A    between atoms: CA_7  and  C_28
REMARK    4  A    between atoms: CA_12  and  N_14
REMARK    5  A    between atoms: C_15  and  C_17
REMARK    6  A    between atoms: C_17  and  N_19
REMARK    7  A    between atoms: C_17  and  C_22
REMARK    8  A    between atoms: C_28  and  O_29
REMARK                            x       y       z     vdW  Elec       q    Type
REMARK                         _______ _______ _______ _____ _____    ______ ____
ROOT
ATOM      1  C   UNL     1       4.937  -3.125  23.912  0.00  0.00    +0.165 C 
ATOM      2  CA  UNL     1       5.867  -2.507  24.990  0.00  0.00    +0.190 C 
ATOM      3  C   UNL     1       6.036  -3.965  25.469  0.00  0.00    +0.240 C 
ATOM      4  O   UNL     1       6.818  -4.581  26.154  0.00  0.00    -0.273 OA
ATOM      5  N   UNL     1       5.050  -4.416  24.630  0.00  0.00    -0.271 N 
ATOM      6  CA  UNL     1       5.282  -5.613  23.798  0.00  0.00    +0.201 C 
ATOM      7  C   UNL     1       6.149  -5.170  22.593  0.00  0.00    +0.042 C 
ATOM      8  C   UNL     1       7.651  -5.135  22.944  0.00  0.00    +0.025 C 
ATOM      9  C   UNL     1       6.008  -6.021  21.326  0.00  0.00    +0.025 C 
ATOM     10  S   UNL     1       5.639  -3.429  22.237  0.00  0.00    -0.127 S 
ENDROOT
BRANCH   2  11
ATOM     11  N   UNL     1       7.081  -1.809  24.509  0.00  0.00    -0.300 N 
ATOM     12  H   UNL     1       7.944  -2.308  24.306  0.00  0.00    +0.150 HD
ATOM     13  C   UNL     1       7.051  -0.470  24.180  0.00  0.00    +0.250 C 
ATOM     14  O   UNL     1       6.038   0.206  24.353  0.00  0.00    -0.273 OA
BRANCH  13  15
ATOM     15  C   UNL     1       8.354   0.093  23.578  0.00  0.00    +0.306 C 
BRANCH  15  16
ATOM     16  C   UNL     1       8.340   1.609  23.533  0.00  0.00    -0.007 A 
ATOM     17  C   UNL     1       7.782   2.313  22.454  0.00  0.00    +0.006 A 
ATOM     18  C   UNL     1       7.786   3.710  22.438  0.00  0.00    +0.000 A 
ATOM     19  C   UNL     1       8.355   4.421  23.493  0.00  0.00    +0.000 A 
ATOM     20  C   UNL     1       8.929   3.737  24.561  0.00  0.00    +0.000 A 
ATOM     21  C   UNL     1       8.925   2.341  24.579  0.00  0.00    +0.006 A 
ENDBRANCH  15  16
BRANCH  15  22
ATOM     22  N   UNL     1       9.501  -0.452  24.351  0.00  0.00    +0.094 NA
ATOM     23  N   UNL     1       9.902  -1.569  23.979  0.00  0.00    -0.014 NA
ATOM     24  N   UNL     1      10.262  -2.599  23.655  0.00  0.00    -0.328 NA
ENDBRANCH  15  22
ENDBRANCH  13  15
ENDBRANCH   2  11
BRANCH   6  25
ATOM     25  C   UNL     1       3.910  -6.220  23.450  0.00  0.00    +0.327 C 
ATOM     26  OXT UNL     1       3.008  -5.629  22.874  0.00  0.00    -0.249 OA
BRANCH  25  27
ATOM     27  O   UNL     1       3.800  -7.537  23.763  0.00  0.00    -0.479 OA
ATOM     28  H   UNL     1       3.090  -7.954  23.231  0.00  0.00    +0.295 HD
ENDBRANCH  25  27
ENDBRANCH   6  25
TORSDOF 6
ENDMDL
MODEL 6
REMARK VINA RESULT:      -7.0      2.925      7.347
REMARK  Name = 
REMARK  8 active torsions:
REMARK  status: ('A' for Active; 'I' for Inactive)
REMARK    1  A    between atoms: C_4  and  C_5
REMARK    2  A    between atoms: C_4  and  C_6
REMARK    3  A    between atoms: CA_7  and  C_28
REMARK    4  A    between atoms: CA_12  and  N_14
REMARK    5  A    between atoms: C_15  and  C_17
REMARK    6  A    between atoms: C_17  and  N_19
REMARK    7  A    between atoms: C_17  and  C_22
REMARK    8  A    between atoms: C_28  and  O_29
REMARK                            x       y       z     vdW  Elec       q    Type
REMARK                         _______ _______ _______ _____ _____    ______ ____
ROOT
ATOM      1  C   UNL     1       6.748  -5.296  24.251  0.00  0.00    +0.165 C 
ATOM      2  CA  UNL     1       7.343  -4.229  23.294  0.00  0.00    +0.190 C 
ATOM      3  C   UNL     1       5.979  -4.329  22.575  0.00  0.00    +0.240 C 
ATOM      4  O   UNL     1       5.344  -3.658  21.795  0.00  0.00    -0.273 OA
ATOM      5  N   UNL     1       5.597  -5.411  23.325  0.00  0.00    -0.271 N 
ATOM      6  CA  UNL     1       4.257  -5.441  23.942  0.00  0.00    +0.201 C 
ATOM      7  C   UNL     1       4.315  -4.545  25.205  0.00  0.00    +0.042 C 
ATOM      8  C   UNL     1       4.114  -3.054  24.866  0.00  0.00    +0.025 C 
ATOM      9  C   UNL     1       3.311  -4.890  26.310  0.00  0.00    +0.025 C 
ATOM     10  S   UNL     1       6.039  -4.722  25.851  0.00  0.00    -0.127 S 
ENDROOT
BRANCH   2  11
ATOM     11  N   UNL     1       7.700  -2.920  23.886  0.00  0.00    -0.300 N 
ATOM     12  H   UNL     1       6.998  -2.213  24.092  0.00  0.00    +0.150 HD
ATOM     13  C   UNL     1       8.984  -2.658  24.315  0.00  0.00    +0.250 C 
ATOM     14  O   UNL     1       9.891  -3.471  24.144  0.00  0.00    -0.273 OA
BRANCH  13  15
ATOM     15  C   UNL     1       9.182  -1.302  25.022  0.00  0.00    +0.306 C 
BRANCH  15  16
ATOM     16  C   UNL     1       9.532  -0.204  24.036  0.00  0.00    -0.007 A 
ATOM     17  C   UNL     1      10.028   1.039  24.460  0.00  0.00    +0.006 A 
ATOM     18  C   UNL     1      10.340   2.035  23.529  0.00  0.00    +0.000 A 
ATOM     19  C   UNL     1      10.151   1.806  22.168  0.00  0.00    +0.000 A 
ATOM     20  C   UNL     1       9.641   0.585  21.735  0.00  0.00    +0.000 A 
ATOM     21  C   UNL     1       9.330  -0.411  22.662  0.00  0.00    +0.006 A 
ENDBRANCH  15  16
BRANCH  15  22
ATOM     22  N   UNL     1       7.957  -1.002  25.810  0.00  0.00    +0.094 NA
ATOM     23  N   UNL     1       7.006  -0.545  25.150  0.00  0.00    -0.014 NA
ATOM     24  N   UNL     1       6.139  -0.111  24.555  0.00  0.00    -0.328 NA
ENDBRANCH  15  22
ENDBRANCH  13  15
ENDBRANCH   2  11
BRANCH   6  25
ATOM     25  C   UNL     1       3.881  -6.916  24.183  0.00  0.00    +0.327 C 
ATOM     26  OXT UNL     1       4.461  -7.671  24.949  0.00  0.00    -0.249 OA
BRANCH  25  27
ATOM     27  O   UNL     1       2.761  -7.308  23.522  0.00  0.00    -0.479 OA
ATOM     28  H   UNL     1       2.155  -7.779  24.132  0.00  0.00    +0.295 HD
ENDBRANCH  25  27
ENDBRANCH   6  25
TORSDOF 6
ENDMDL
MODEL 7
REMARK VINA RESULT:      -7.0      3.571      4.444
REMARK  Name = 
REMARK  8 active torsions:
REMARK  status: ('A' for Active; 'I' for Inactive)
REMARK    1  A    between atoms: C_4  and  C_5
REMARK    2  A    between atoms: C_4  and  C_6
REMARK    3  A    between atoms: CA_7  and  C_28
REMARK    4  A    between atoms: CA_12  and  N_14
REMARK    5  A    between atoms: C_15  and  C_17
REMARK    6  A    between atoms: C_17  and  N_19
REMARK    7  A    between atoms: C_17  and  C_22
REMARK    8  A    between atoms: C_28  and  O_29
REMARK                            x       y       z     vdW  Elec       q    Type
REMARK                         _______ _______ _______ _____ _____    ______ ____
ROOT
ATOM      1  C   UNL     1       8.436   2.075  22.069  0.00  0.00    +0.165 C 
ATOM      2  CA  UNL     1       9.151   0.702  21.960  0.00  0.00    +0.190 C 
ATOM      3  C   UNL     1      10.111   1.284  23.021  0.00  0.00    +0.240 C 
ATOM      4  O   UNL     1      10.916   0.850  23.812  0.00  0.00    -0.273 OA
ATOM      5  N   UNL     1       9.562   2.536  22.915  0.00  0.00    -0.271 N 
ATOM      6  CA  UNL     1       9.203   3.287  24.134  0.00  0.00    +0.201 C 
ATOM      7  C   UNL     1       7.862   2.707  24.650  0.00  0.00    +0.042 C 
ATOM      8  C   UNL     1       8.071   1.440  25.505  0.00  0.00    +0.025 C 
ATOM      9  C   UNL     1       7.000   3.666  25.478  0.00  0.00    +0.025 C 
ATOM     10  S   UNL     1       6.939   2.187  23.134  0.00  0.00    -0.127 S 
ENDROOT
BRANCH   2  11
ATOM     11  N   UNL     1       8.368  -0.496  22.342  0.00  0.00    -0.300 N 
ATOM     12  H   UNL     1       7.368  -0.450  22.522  0.00  0.00    +0.150 HD
ATOM     13  C   UNL     1       8.936  -1.752  22.330  0.00  0.00    +0.250 C 
ATOM     14  O   UNL     1      10.130  -1.909  22.082  0.00  0.00    -0.273 OA
BRANCH  13  15
ATOM     15  C   UNL     1       7.971  -2.917  22.629  0.00  0.00    +0.306 C 
BRANCH  15  16
ATOM     16  C   UNL     1       8.189  -3.480  24.021  0.00  0.00    -0.007 A 
ATOM     17  C   UNL     1       8.235  -2.653  25.155  0.00  0.00    +0.006 A 
ATOM     18  C   UNL     1       8.439  -3.198  26.425  0.00  0.00    +0.000 A 
ATOM     19  C   UNL     1       8.611  -4.572  26.578  0.00  0.00    +0.000 A 
ATOM     20  C   UNL     1       8.588  -5.403  25.461  0.00  0.00    +0.000 A 
ATOM     21  C   UNL     1       8.382  -4.860  24.191  0.00  0.00    +0.006 A 
ENDBRANCH  15  16
BRANCH  15  22
ATOM     22  N   UNL     1       6.579  -2.441  22.410  0.00  0.00    +0.094 NA
ATOM     23  N   UNL     1       5.713  -3.334  22.411  0.00  0.00    -0.014 NA
ATOM     24  N   UNL     1       4.918  -4.148  22.393  0.00  0.00    -0.328 NA
ENDBRANCH  15  22
ENDBRANCH  13  15
ENDBRANCH   2  11
BRANCH   6  25
ATOM     25  C   UNL     1       9.193   4.786  23.779  0.00  0.00    +0.327 C 
ATOM     26  OXT UNL     1       9.714   5.668  24.445  0.00  0.00    -0.249 OA
BRANCH  25  27
ATOM     27  O   UNL     1       8.617   5.058  22.579  0.00  0.00    -0.479 OA
ATOM     28  H   UNL     1       8.037   5.845  22.652  0.00  0.00    +0.295 HD
ENDBRANCH  25  27
ENDBRANCH   6  25
TORSDOF 6
ENDMDL
MODEL 8
REMARK VINA RESULT:      -7.0      1.674      2.057
REMARK  Name = 
REMARK  8 active torsions:
REMARK  status: ('A' for Active; 'I' for Inactive)
REMARK    1  A    between atoms: C_4  and  C_5
REMARK    2  A    between atoms: C_4  and  C_6
REMARK    3  A    between atoms: CA_7  and  C_28
REMARK    4  A    between atoms: CA_12  and  N_14
REMARK    5  A    between atoms: C_15  and  C_17
REMARK    6  A    between atoms: C_17  and  N_19
REMARK    7  A    between atoms: C_17  and  C_22
REMARK    8  A    between atoms: C_28  and  O_29
REMARK                            x       y       z     vdW  Elec       q    Type
REMARK                         _______ _______ _______ _____ _____    ______ ____
ROOT
ATOM      1  C   UNL     1       7.676  -2.172  22.900  0.00  0.00    +0.165 C 
ATOM      2  CA  UNL     1       7.732  -3.674  23.290  0.00  0.00    +0.190 C 
ATOM      3  C   UNL     1       9.133  -3.327  23.838  0.00  0.00    +0.240 C 
ATOM      4  O   UNL     1       9.924  -3.820  24.608  0.00  0.00    -0.273 OA
ATOM      5  N   UNL     1       9.103  -2.073  23.285  0.00  0.00    -0.271 N 
ATOM      6  CA  UNL     1       9.485  -0.901  24.098  0.00  0.00    +0.201 C 
ATOM      7  C   UNL     1       8.277  -0.564  25.008  0.00  0.00    +0.042 C 
ATOM      8  C   UNL     1       8.256  -1.430  26.285  0.00  0.00    +0.025 C 
ATOM      9  C   UNL     1       8.174   0.897  25.459  0.00  0.00    +0.025 C 
ATOM     10  S   UNL     1       6.780  -1.021  24.023  0.00  0.00    -0.127 S 
ENDROOT
BRANCH   2  11
ATOM     11  N   UNL     1       6.725  -4.153  24.265  0.00  0.00    -0.300 N 
ATOM     12  H   UNL     1       6.463  -3.605  25.081  0.00  0.00    +0.150 HD
ATOM     13  C   UNL     1       5.995  -5.299  24.030  0.00  0.00    +0.250 C 
ATOM     14  O   UNL     1       6.214  -6.003  23.046  0.00  0.00    -0.273 OA
BRANCH  13  15
ATOM     15  C   UNL     1       4.898  -5.608  25.069  0.00  0.00    +0.306 C 
BRANCH  15  16
ATOM     16  C   UNL     1       3.655  -6.181  24.415  0.00  0.00    -0.007 A 
ATOM     17  C   UNL     1       3.287  -7.526  24.576  0.00  0.00    +0.006 A 
ATOM     18  C   UNL     1       2.138  -8.028  23.960  0.00  0.00    +0.000 A 
ATOM     19  C   UNL     1       1.348  -7.198  23.169  0.00  0.00    +0.000 A 
ATOM     20  C   UNL     1       1.710  -5.866  22.983  0.00  0.00    +0.000 A 
ATOM     21  C   UNL     1       2.857  -5.363  23.599  0.00  0.00    +0.006 A 
ENDBRANCH  15  16
BRANCH  15  22
ATOM     22  N   UNL     1       5.472  -6.508  26.104  0.00  0.00    +0.094 NA
ATOM     23  N   UNL     1       6.530  -6.105  26.621  0.00  0.00    -0.014 NA
ATOM     24  N   UNL     1       7.507  -5.752  27.086  0.00  0.00    -0.328 NA
ENDBRANCH  15  22
ENDBRANCH  13  15
ENDBRANCH   2  11
BRANCH   6  25
ATOM     25  C   UNL     1       9.932   0.215  23.135  0.00  0.00    +0.327 C 
ATOM     26  OXT UNL     1       9.482   0.396  22.013  0.00  0.00    -0.249 OA
BRANCH  25  27
ATOM     27  O   UNL     1      10.835   1.073  23.677  0.00  0.00    -0.479 OA
ATOM     28  H   UNL     1      11.415   1.440  22.977  0.00  0.00    +0.295 HD
ENDBRANCH  25  27
ENDBRANCH   6  25
TORSDOF 6
ENDMDL
MODEL 9
REMARK VINA RESULT:      -6.9      3.074      8.169
REMARK  Name = 
REMARK  8 active torsions:
REMARK  status: ('A' for Active; 'I' for Inactive)
REMARK    1  A    between atoms: C_4  and  C_5
REMARK    2  A    between atoms: C_4  and  C_6
REMARK    3  A    between atoms: CA_7  and  C_28
REMARK    4  A    between atoms: CA_12  and  N_14
REMARK    5  A    between atoms: C_15  and  C_17
REMARK    6  A    between atoms: C_17  and  N_19
REMARK    7  A    between atoms: C_17  and  C_22
REMARK    8  A    between atoms: C_28  and  O_29
REMARK                            x       y       z     vdW  Elec       q    Type
REMARK                         _______ _______ _______ _____ _____    ______ ____
ROOT
ATOM      1  C   UNL     1       6.435  -1.895  25.408  0.00  0.00    +0.165 C 
ATOM      2  CA  UNL     1       7.052  -0.485  25.611  0.00  0.00    +0.190 C 
ATOM      3  C   UNL     1       8.032  -1.214  26.557  0.00  0.00    +0.240 C 
ATOM      4  O   UNL     1       9.115  -0.988  27.045  0.00  0.00    -0.273 OA
ATOM      5  N   UNL     1       7.316  -2.381  26.494  0.00  0.00    -0.271 N 
ATOM      6  CA  UNL     1       8.013  -3.659  26.254  0.00  0.00    +0.201 C 
ATOM      7  C   UNL     1       8.324  -3.731  24.737  0.00  0.00    +0.042 C 
ATOM      8  C   UNL     1       9.616  -2.970  24.376  0.00  0.00    +0.025 C 
ATOM      9  C   UNL     1       8.460  -5.142  24.155  0.00  0.00    +0.025 C 
ATOM     10  S   UNL     1       6.928  -2.845  23.910  0.00  0.00    -0.127 S 
ENDROOT
BRANCH   2  11
ATOM     11  N   UNL     1       7.629   0.175  24.418  0.00  0.00    -0.300 N 
ATOM     12  H   UNL     1       7.621  -0.267  23.501  0.00  0.00    +0.150 HD
ATOM     13  C   UNL     1       8.075   1.479  24.470  0.00  0.00    +0.250 C 
ATOM     14  O   UNL     1       8.084   2.107  25.527  0.00  0.00    -0.273 OA
BRANCH  13  15
ATOM     15  C   UNL     1       8.535   2.074  23.125  0.00  0.00    +0.306 C 
BRANCH  15  16
ATOM     16  C   UNL     1       8.766   3.570  23.225  0.00  0.00    -0.007 A 
ATOM     17  C   UNL     1       9.968   4.102  23.717  0.00  0.00    +0.006 A 
ATOM     18  C   UNL     1      10.153   5.485  23.801  0.00  0.00    +0.000 A 
ATOM     19  C   UNL     1       9.137   6.352  23.406  0.00  0.00    +0.000 A 
ATOM     20  C   UNL     1       7.932   5.840  22.934  0.00  0.00    +0.000 A 
ATOM     21  C   UNL     1       7.746   4.459  22.848  0.00  0.00    +0.006 A 
ENDBRANCH  15  16
BRANCH  15  22
ATOM     22  N   UNL     1       9.742   1.333  22.671  0.00  0.00    +0.094 NA
ATOM     23  N   UNL     1       9.510   0.252  22.101  0.00  0.00    -0.014 NA
ATOM     24  N   UNL     1       9.307  -0.747  21.595  0.00  0.00    -0.328 NA
ENDBRANCH  15  22
ENDBRANCH  13  15
ENDBRANCH   2  11
BRANCH   6  25
ATOM     25  C   UNL     1       7.130  -4.791  26.812  0.00  0.00    +0.327 C 
ATOM     26  OXT UNL     1       5.929  -4.904  26.617  0.00  0.00    -0.249 OA
BRANCH  25  27
ATOM     27  O   UNL     1       7.825  -5.742  27.490  0.00  0.00    -0.479 OA
ATOM     28  H   UNL     1       7.210  -6.404  27.870  0.00  0.00    +0.295 HD
ENDBRANCH  25  27
ENDBRANCH   6  25
TORSDOF 6
ENDMDL
