MODEL 1
REMARK VINA RESULT:      -7.2      0.000      0.000
REMARK  Name = 
REMARK  15 active torsions:
REMARK  status: ('A' for Active; 'I' for Inactive)
REMARK    1  A    between atoms: C_1  and  C_2
REMARK    2  A    between atoms: C_2  and  C_3
REMARK    3  A    between atoms: C_3  and  C_4
REMARK    4  A    between atoms: C_4  and  C_5
REMARK    5  A    between atoms: C_5  and  C_6
REMARK    6  A    between atoms: C_6  and  C_7
REMARK    7  A    between atoms: C_16  and  C_17
REMARK    8  A    between atoms: C_17  and  C_19
REMARK    9  A    between atoms: C_17  and  C_21
REMARK   10  A    between atoms: C_19  and  C_20
REMARK   11  A    between atoms: C_23  and  N_24
REMARK   12  A    between atoms: N_24  and  S_25
REMARK   13  A    between atoms: S_25  and  C_28
REMARK   14  A    between atoms: C_31  and  C_34
REMARK   15  A    between atoms: C_41  and  O_42
REMARK                            x       y       z     vdW  Elec       q    Type
REMARK                         _______ _______ _______ _____ _____    ______ ____
ROOT
ATOM      1  C   UNL     1       6.207   0.204  26.207  0.00  0.00    +0.059 C 
ENDROOT
BRANCH   1   5
ATOM      2  C   UNL     1       9.199  -2.541  24.416  0.00  0.00    +0.121 C 
ATOM      3  O   UNL     1       9.494  -1.690  25.537  0.00  0.00    -0.457 OA
ATOM      4  C   UNL     1       8.535  -0.946  26.150  0.00  0.00    +0.287 C 
ATOM      5  C   UNL     1       7.362  -0.586  25.595  0.00  0.00    +0.082 C 
ATOM      6  C   UNL     1       7.142  -1.078  24.210  0.00  0.00    +0.170 C 
ATOM      7  O   UNL     1       6.338  -0.520  23.465  0.00  0.00    -0.292 OA
ATOM      8  C   UNL     1       7.807  -2.357  23.805  0.00  0.00    +0.127 C 
BRANCH   4   9
ATOM      9  O   UNL     1       8.824  -0.639  27.460  0.00  0.00    -0.480 OA
ATOM     10  H   UNL     1       9.704  -0.228  27.465  0.00  0.00    +0.295 HD
ENDBRANCH   4   9
BRANCH   2  11
ATOM     11  C   UNL     1       9.349  -3.978  24.997  0.00  0.00    +0.048 C 
BRANCH  11  13
ATOM     12  C   UNL     1       7.667  -4.738  26.703  0.00  0.00    +0.004 C 
ATOM     13  C   UNL     1       8.062  -4.771  25.231  0.00  0.00    +0.000 C 
ENDBRANCH  11  13
ENDBRANCH   2  11
BRANCH   2  14
ATOM     14  C   UNL     1      10.315  -2.254  23.374  0.00  0.00    +0.053 C 
BRANCH  14  15
ATOM     15  C   UNL     1       9.827  -1.418  22.179  0.00  0.00    +0.039 C 
BRANCH  15  16
ATOM     16  C   UNL     1       9.817   0.061  22.475  0.00  0.00    -0.047 A 
ATOM     17  C   UNL     1      10.600   0.585  23.513  0.00  0.00    +0.003 A 
ATOM     18  C   UNL     1      10.581   1.952  23.793  0.00  0.00    +0.000 A 
ATOM     19  C   UNL     1       9.785   2.809  23.036  0.00  0.00    +0.000 A 
ATOM     20  C   UNL     1       9.006   2.300  21.998  0.00  0.00    +0.000 A 
ATOM     21  C   UNL     1       9.023   0.932  21.717  0.00  0.00    +0.003 A 
ENDBRANCH  15  16
ENDBRANCH  14  15
ENDBRANCH   2  14
ENDBRANCH   1   5
BRANCH   1  22
ATOM     22  C   UNL     1       5.452  -0.656  27.226  0.00  0.00    -0.038 A 
ATOM     23  C   UNL     1       4.923  -0.061  28.384  0.00  0.00    +0.004 A 
ATOM     24  C   UNL     1       4.188  -0.814  29.304  0.00  0.00    +0.002 A 
ATOM     25  C   UNL     1       3.941  -2.161  29.053  0.00  0.00    +0.024 A 
ATOM     26  C   UNL     1       4.437  -2.760  27.895  0.00  0.00    +0.048 A 
ATOM     27  C   UNL     1       5.229  -2.030  27.013  0.00  0.00    +0.028 A 
BRANCH  26  28
ATOM     28  N   UNL     1       4.136  -4.132  27.638  0.00  0.00    -0.215 N 
ATOM     29  H   UNL     1       3.927  -4.669  28.484  0.00  0.00    +0.174 HD
BRANCH  28  30
ATOM     30  S   UNL     1       2.883  -4.432  26.523  0.00  0.00    +0.090 S 
ATOM     31  O   UNL     1       2.203  -3.173  26.296  0.00  0.00    -0.148 OA
ATOM     32  O   UNL     1       2.146  -5.615  26.919  0.00  0.00    -0.148 OA
BRANCH  30  33
ATOM     33  C   UNL     1       3.776  -4.812  25.010  0.00  0.00    +0.197 A 
ATOM     34  C   UNL     1       4.081  -3.816  24.100  0.00  0.00    +0.050 A 
ATOM     35  C   UNL     1       4.913  -4.156  23.036  0.00  0.00    +0.017 A 
ATOM     36  C   UNL     1       5.411  -5.463  22.927  0.00  0.00    +0.073 A 
ATOM     37  C   UNL     1       4.996  -6.398  23.869  0.00  0.00    +0.125 A 
ATOM     38  N   UNL     1       4.168  -6.115  24.905  0.00  0.00    -0.235 NA
BRANCH  36  39
ATOM     39  C   UNL     1       6.388  -5.832  21.848  0.00  0.00    +0.419 C 
ATOM     40  F   UNL     1       7.507  -5.056  21.879  0.00  0.00    -0.166 F 
ATOM     41  F   UNL     1       5.869  -5.683  20.599  0.00  0.00    -0.166 F 
ATOM     42  F   UNL     1       6.828  -7.117  21.922  0.00  0.00    -0.166 F 
ENDBRANCH  36  39
ENDBRANCH  30  33
ENDBRANCH  28  30
ENDBRANCH  26  28
ENDBRANCH   1  22
BRANCH   1  43
ATOM     43  C   UNL     1       6.584   1.593  26.774  0.00  0.00    +0.010 C 
ATOM     44  C   UNL     1       7.305   2.501  25.786  0.00  0.00    +0.005 C 
ENDBRANCH   1  43
TORSDOF 13
ENDMDL
MODEL 2
REMARK VINA RESULT:      -6.9      2.845      5.209
REMARK  Name = 
REMARK  15 active torsions:
REMARK  status: ('A' for Active; 'I' for Inactive)
REMARK    1  A    between atoms: C_1  and  C_2
REMARK    2  A    between atoms: C_2  and  C_3
REMARK    3  A    between atoms: C_3  and  C_4
REMARK    4  A    between atoms: C_4  and  C_5
REMARK    5  A    between atoms: C_5  and  C_6
REMARK    6  A    between atoms: C_6  and  C_7
REMARK    7  A    between atoms: C_16  and  C_17
REMARK    8  A    between atoms: C_17  and  C_19
REMARK    9  A    between atoms: C_17  and  C_21
REMARK   10  A    between atoms: C_19  and  C_20
REMARK   11  A    between atoms: C_23  and  N_24
REMARK   12  A    between atoms: N_24  and  S_25
REMARK   13  A    between atoms: S_25  and  C_28
REMARK   14  A    between atoms: C_31  and  C_34
REMARK   15  A    between atoms: C_41  and  O_42
REMARK                            x       y       z     vdW  Elec       q    Type
REMARK                         _______ _______ _______ _____ _____    ______ ____
ROOT
ATOM      1  C   UNL     1       6.143  -5.703  23.303  0.00  0.00    +0.059 C 
ENDROOT
BRANCH   1   5
ATOM      2  C   UNL     1       8.636  -2.091  23.957  0.00  0.00    +0.121 C 
ATOM      3  O   UNL     1       8.999  -3.390  24.456  0.00  0.00    -0.457 OA
ATOM      4  C   UNL     1       8.287  -4.507  24.145  0.00  0.00    +0.287 C 
ATOM      5  C   UNL     1       7.011  -4.517  23.718  0.00  0.00    +0.082 C 
ATOM      6  C   UNL     1       6.380  -3.179  23.580  0.00  0.00    +0.170 C 
ATOM      7  O   UNL     1       5.157  -3.056  23.590  0.00  0.00    -0.292 OA
ATOM      8  C   UNL     1       7.268  -2.013  23.273  0.00  0.00    +0.127 C 
BRANCH   4   9
ATOM      9  O   UNL     1       9.020  -5.669  24.224  0.00  0.00    -0.480 OA
ATOM     10  H   UNL     1       8.512  -6.355  23.759  0.00  0.00    +0.295 HD
ENDBRANCH   4   9
BRANCH   2  11
ATOM     11  C   UNL     1       9.769  -1.760  22.940  0.00  0.00    +0.048 C 
BRANCH  11  13
ATOM     12  C   UNL     1       9.373   0.138  21.340  0.00  0.00    +0.004 C 
ATOM     13  C   UNL     1       9.340  -1.375  21.522  0.00  0.00    +0.000 C 
ENDBRANCH  11  13
ENDBRANCH   2  11
BRANCH   2  14
ATOM     14  C   UNL     1       8.710  -1.141  25.184  0.00  0.00    +0.053 C 
BRANCH  14  15
ATOM     15  C   UNL     1       9.849  -0.113  25.086  0.00  0.00    +0.039 C 
BRANCH  15  16
ATOM     16  C   UNL     1       9.347   1.281  24.800  0.00  0.00    -0.047 A 
ATOM     17  C   UNL     1       8.070   1.676  25.221  0.00  0.00    +0.003 A 
ATOM     18  C   UNL     1       7.601   2.962  24.946  0.00  0.00    +0.000 A 
ATOM     19  C   UNL     1       8.405   3.865  24.255  0.00  0.00    +0.000 A 
ATOM     20  C   UNL     1       9.679   3.484  23.836  0.00  0.00    +0.000 A 
ATOM     21  C   UNL     1      10.150   2.198  24.110  0.00  0.00    +0.003 A 
ENDBRANCH  15  16
ENDBRANCH  14  15
ENDBRANCH   2  14
ENDBRANCH   1   5
BRANCH   1  22
ATOM     22  C   UNL     1       5.112  -6.017  24.392  0.00  0.00    -0.038 A 
ATOM     23  C   UNL     1       3.740  -5.971  24.087  0.00  0.00    +0.004 A 
ATOM     24  C   UNL     1       2.782  -6.302  25.049  0.00  0.00    +0.002 A 
ATOM     25  C   UNL     1       3.188  -6.722  26.313  0.00  0.00    +0.024 A 
ATOM     26  C   UNL     1       4.546  -6.797  26.623  0.00  0.00    +0.048 A 
ATOM     27  C   UNL     1       5.501  -6.401  25.689  0.00  0.00    +0.028 A 
BRANCH  26  28
ATOM     28  N   UNL     1       4.941  -7.270  27.911  0.00  0.00    -0.215 N 
ATOM     29  H   UNL     1       5.457  -8.154  27.880  0.00  0.00    +0.174 HD
BRANCH  28  30
ATOM     30  S   UNL     1       5.845  -6.187  28.867  0.00  0.00    +0.090 S 
ATOM     31  O   UNL     1       7.245  -6.447  28.597  0.00  0.00    -0.148 OA
ATOM     32  O   UNL     1       5.337  -6.186  30.223  0.00  0.00    -0.148 OA
BRANCH  30  33
ATOM     33  C   UNL     1       5.468  -4.592  28.128  0.00  0.00    +0.197 A 
ATOM     34  C   UNL     1       4.255  -3.971  28.370  0.00  0.00    +0.050 A 
ATOM     35  C   UNL     1       4.100  -2.669  27.898  0.00  0.00    +0.017 A 
ATOM     36  C   UNL     1       5.155  -2.040  27.220  0.00  0.00    +0.073 A 
ATOM     37  C   UNL     1       6.311  -2.778  26.986  0.00  0.00    +0.125 A 
ATOM     38  N   UNL     1       6.493  -4.055  27.406  0.00  0.00    -0.235 NA
BRANCH  36  39
ATOM     39  C   UNL     1       5.052  -0.605  26.789  0.00  0.00    +0.419 C 
ATOM     40  F   UNL     1       5.977   0.184  27.403  0.00  0.00    -0.166 F 
ATOM     41  F   UNL     1       3.843  -0.056  27.084  0.00  0.00    -0.166 F 
ATOM     42  F   UNL     1       5.235  -0.419  25.454  0.00  0.00    -0.166 F 
ENDBRANCH  36  39
ENDBRANCH  30  33
ENDBRANCH  28  30
ENDBRANCH  26  28
ENDBRANCH   1  22
BRANCH   1  43
ATOM     43  C   UNL     1       5.501  -5.592  21.900  0.00  0.00    +0.010 C 
ATOM     44  C   UNL     1       6.493  -5.672  20.746  0.00  0.00    +0.005 C 
ENDBRANCH   1  43
TORSDOF 13
ENDMDL
MODEL 3
REMARK VINA RESULT:      -6.9      1.101      3.725
REMARK  Name = 
REMARK  15 active torsions:
REMARK  status: ('A' for Active; 'I' for Inactive)
REMARK    1  A    between atoms: C_1  and  C_2
REMARK    2  A    between atoms: C_2  and  C_3
REMARK    3  A    between atoms: C_3  and  C_4
REMARK    4  A    between atoms: C_4  and  C_5
REMARK    5  A    between atoms: C_5  and  C_6
REMARK    6  A    between atoms: C_6  and  C_7
REMARK    7  A    between atoms: C_16  and  C_17
REMARK    8  A    between atoms: C_17  and  C_19
REMARK    9  A    between atoms: C_17  and  C_21
REMARK   10  A    between atoms: C_19  and  C_20
REMARK   11  A    between atoms: C_23  and  N_24
REMARK   12  A    between atoms: N_24  and  S_25
REMARK   13  A    between atoms: S_25  and  C_28
REMARK   14  A    between atoms: C_31  and  C_34
REMARK   15  A    between atoms: C_41  and  O_42
REMARK                            x       y       z     vdW  Elec       q    Type
REMARK                         _______ _______ _______ _____ _____    ______ ____
ROOT
ATOM      1  C   UNL     1       6.134   1.274  26.424  0.00  0.00    +0.059 C 
ENDROOT
BRANCH   1   5
ATOM      2  C   UNL     1       9.368  -0.306  23.828  0.00  0.00    +0.121 C 
ATOM      3  O   UNL     1       8.019  -0.118  23.367  0.00  0.00    -0.457 OA
ATOM      4  C   UNL     1       7.070   0.479  24.136  0.00  0.00    +0.287 C 
ATOM      5  C   UNL     1       7.117   0.590  25.476  0.00  0.00    +0.082 C 
ATOM      6  C   UNL     1       8.327   0.010  26.115  0.00  0.00    +0.170 C 
ATOM      7  O   UNL     1       8.320  -0.310  27.303  0.00  0.00    -0.292 OA
ATOM      8  C   UNL     1       9.593  -0.026  25.317  0.00  0.00    +0.127 C 
BRANCH   4   9
ATOM      9  O   UNL     1       6.053   1.058  23.411  0.00  0.00    -0.480 OA
ATOM     10  H   UNL     1       5.998   0.577  22.569  0.00  0.00    +0.295 HD
ENDBRANCH   4   9
BRANCH   2  11
ATOM     11  C   UNL     1      10.194   0.689  22.960  0.00  0.00    +0.048 C 
BRANCH  11  13
ATOM     12  C   UNL     1       9.565   3.079  23.418  0.00  0.00    +0.004 C 
ATOM     13  C   UNL     1      10.622   2.000  23.623  0.00  0.00    +0.000 C 
ENDBRANCH  11  13
ENDBRANCH   2  11
BRANCH   2  14
ATOM     14  C   UNL     1       9.727  -1.773  23.468  0.00  0.00    +0.053 C 
BRANCH  14  15
ATOM     15  C   UNL     1       8.493  -2.677  23.311  0.00  0.00    +0.039 C 
BRANCH  15  16
ATOM     16  C   UNL     1       8.259  -3.550  24.520  0.00  0.00    -0.047 A 
ATOM     17  C   UNL     1       8.868  -4.808  24.617  0.00  0.00    +0.003 A 
ATOM     18  C   UNL     1       8.642  -5.619  25.730  0.00  0.00    +0.000 A 
ATOM     19  C   UNL     1       7.812  -5.178  26.758  0.00  0.00    +0.000 A 
ATOM     20  C   UNL     1       7.204  -3.926  26.674  0.00  0.00    +0.000 A 
ATOM     21  C   UNL     1       7.429  -3.114  25.561  0.00  0.00    +0.003 A 
ENDBRANCH  15  16
ENDBRANCH  14  15
ENDBRANCH   2  14
ENDBRANCH   1   5
BRANCH   1  22
ATOM     22  C   UNL     1       5.275   0.232  27.148  0.00  0.00    -0.038 A 
ATOM     23  C   UNL     1       5.171   0.267  28.549  0.00  0.00    +0.004 A 
ATOM     24  C   UNL     1       4.355  -0.642  29.229  0.00  0.00    +0.002 A 
ATOM     25  C   UNL     1       3.603  -1.567  28.509  0.00  0.00    +0.024 A 
ATOM     26  C   UNL     1       3.676  -1.597  27.116  0.00  0.00    +0.048 A 
ATOM     27  C   UNL     1       4.541  -0.740  26.442  0.00  0.00    +0.028 A 
BRANCH  26  28
ATOM     28  N   UNL     1       2.865  -2.527  26.397  0.00  0.00    -0.215 N 
ATOM     29  H   UNL     1       2.851  -2.359  25.388  0.00  0.00    +0.174 HD
BRANCH  28  30
ATOM     30  S   UNL     1       3.220  -4.177  26.633  0.00  0.00    +0.090 S 
ATOM     31  O   UNL     1       1.956  -4.883  26.676  0.00  0.00    -0.148 OA
ATOM     32  O   UNL     1       4.192  -4.324  27.696  0.00  0.00    -0.148 OA
BRANCH  30  33
ATOM     33  C   UNL     1       4.012  -4.639  25.086  0.00  0.00    +0.197 A 
ATOM     34  C   UNL     1       4.154  -3.719  24.062  0.00  0.00    +0.050 A 
ATOM     35  C   UNL     1       4.918  -4.102  22.962  0.00  0.00    +0.017 A 
ATOM     36  C   UNL     1       5.516  -5.371  22.932  0.00  0.00    +0.073 A 
ATOM     37  C   UNL     1       5.262  -6.235  23.992  0.00  0.00    +0.125 A 
ATOM     38  N   UNL     1       4.504  -5.912  25.069  0.00  0.00    -0.235 NA
BRANCH  36  39
ATOM     39  C   UNL     1       6.426  -5.772  21.807  0.00  0.00    +0.419 C 
ATOM     40  F   UNL     1       7.310  -6.738  22.181  0.00  0.00    -0.166 F 
ATOM     41  F   UNL     1       7.180  -4.736  21.350  0.00  0.00    -0.166 F 
ATOM     42  F   UNL     1       5.771  -6.269  20.723  0.00  0.00    -0.166 F 
ENDBRANCH  36  39
ENDBRANCH  30  33
ENDBRANCH  28  30
ENDBRANCH  26  28
ENDBRANCH   1  22
BRANCH   1  43
ATOM     43  C   UNL     1       6.760   2.299  27.398  0.00  0.00    +0.010 C 
ATOM     44  C   UNL     1       7.207   3.600  26.741  0.00  0.00    +0.005 C 
ENDBRANCH   1  43
TORSDOF 13
ENDMDL
MODEL 4
REMARK VINA RESULT:      -6.9      3.022      5.329
REMARK  Name = 
REMARK  15 active torsions:
REMARK  status: ('A' for Active; 'I' for Inactive)
REMARK    1  A    between atoms: C_1  and  C_2
REMARK    2  A    between atoms: C_2  and  C_3
REMARK    3  A    between atoms: C_3  and  C_4
REMARK    4  A    between atoms: C_4  and  C_5
REMARK    5  A    between atoms: C_5  and  C_6
REMARK    6  A    between atoms: C_6  and  C_7
REMARK    7  A    between atoms: C_16  and  C_17
REMARK    8  A    between atoms: C_17  and  C_19
REMARK    9  A    between atoms: C_17  and  C_21
REMARK   10  A    between atoms: C_19  and  C_20
REMARK   11  A    between atoms: C_23  and  N_24
REMARK   12  A    between atoms: N_24  and  S_25
REMARK   13  A    between atoms: S_25  and  C_28
REMARK   14  A    between atoms: C_31  and  C_34
REMARK   15  A    between atoms: C_41  and  O_42
REMARK                            x       y       z     vdW  Elec       q    Type
REMARK                         _______ _______ _______ _____ _____    ______ ____
ROOT
ATOM      1  C   UNL     1       6.167  -5.639  23.227  0.00  0.00    +0.059 C 
ENDROOT
BRANCH   1   5
ATOM      2  C   UNL     1       8.679  -2.175  24.405  0.00  0.00    +0.121 C 
ATOM      3  O   UNL     1       7.646  -2.086  23.408  0.00  0.00    -0.457 OA
ATOM      4  C   UNL     1       6.806  -3.123  23.146  0.00  0.00    +0.287 C 
ATOM      5  C   UNL     1       7.054  -4.413  23.437  0.00  0.00    +0.082 C 
ATOM      6  C   UNL     1       8.355  -4.669  24.110  0.00  0.00    +0.170 C 
ATOM      7  O   UNL     1       8.873  -5.784  24.074  0.00  0.00    -0.292 OA
ATOM      8  C   UNL     1       8.932  -3.579  24.960  0.00  0.00    +0.127 C 
BRANCH   4   9
ATOM      9  O   UNL     1       5.598  -2.736  22.610  0.00  0.00    -0.480 OA
ATOM     10  H   UNL     1       4.906  -3.187  23.121  0.00  0.00    +0.295 HD
ENDBRANCH   4   9
BRANCH   2  11
ATOM     11  C   UNL     1       8.178  -1.229  25.537  0.00  0.00    +0.048 C 
BRANCH  11  13
ATOM     12  C   UNL     1       7.249   1.096  25.768  0.00  0.00    +0.004 C 
ATOM     13  C   UNL     1       7.011  -0.299  25.199  0.00  0.00    +0.000 C 
ENDBRANCH  11  13
ENDBRANCH   2  11
BRANCH   2  14
ATOM     14  C   UNL     1       9.953  -1.595  23.732  0.00  0.00    +0.053 C 
BRANCH  14  15
ATOM     15  C   UNL     1       9.654  -0.825  22.434  0.00  0.00    +0.039 C 
BRANCH  15  16
ATOM     16  C   UNL     1       9.404   0.643  22.678  0.00  0.00    -0.047 A 
ATOM     17  C   UNL     1       8.339   1.297  22.045  0.00  0.00    +0.003 A 
ATOM     18  C   UNL     1       8.114   2.658  22.263  0.00  0.00    +0.000 A 
ATOM     19  C   UNL     1       8.947   3.374  23.119  0.00  0.00    +0.000 A 
ATOM     20  C   UNL     1      10.007   2.733  23.758  0.00  0.00    +0.000 A 
ATOM     21  C   UNL     1      10.233   1.372  23.541  0.00  0.00    +0.003 A 
ENDBRANCH  15  16
ENDBRANCH  14  15
ENDBRANCH   2  14
ENDBRANCH   1   5
BRANCH   1  22
ATOM     22  C   UNL     1       5.167  -5.778  24.379  0.00  0.00    -0.038 A 
ATOM     23  C   UNL     1       3.835  -5.365  24.199  0.00  0.00    +0.004 A 
ATOM     24  C   UNL     1       2.891  -5.527  25.218  0.00  0.00    +0.002 A 
ATOM     25  C   UNL     1       3.262  -6.142  26.411  0.00  0.00    +0.024 A 
ATOM     26  C   UNL     1       4.574  -6.580  26.595  0.00  0.00    +0.048 A 
ATOM     27  C   UNL     1       5.532  -6.356  25.610  0.00  0.00    +0.028 A 
BRANCH  26  28
ATOM     28  N   UNL     1       4.921  -7.245  27.810  0.00  0.00    -0.215 N 
ATOM     29  H   UNL     1       5.413  -8.130  27.663  0.00  0.00    +0.174 HD
BRANCH  28  30
ATOM     30  S   UNL     1       5.829  -6.339  28.932  0.00  0.00    +0.090 S 
ATOM     31  O   UNL     1       7.212  -6.391  28.502  0.00  0.00    -0.148 OA
ATOM     32  O   UNL     1       5.455  -6.709  30.281  0.00  0.00    -0.148 OA
BRANCH  30  33
ATOM     33  C   UNL     1       5.265  -4.657  28.638  0.00  0.00    +0.197 A 
ATOM     34  C   UNL     1       5.876  -3.863  27.683  0.00  0.00    +0.050 A 
ATOM     35  C   UNL     1       5.282  -2.635  27.400  0.00  0.00    +0.017 A 
ATOM     36  C   UNL     1       4.107  -2.256  28.066  0.00  0.00    +0.073 A 
ATOM     37  C   UNL     1       3.610  -3.108  29.046  0.00  0.00    +0.125 A 
ATOM     38  N   UNL     1       4.171  -4.299  29.370  0.00  0.00    -0.235 NA
BRANCH  36  39
ATOM     39  C   UNL     1       3.391  -0.985  27.709  0.00  0.00    +0.419 C 
ATOM     40  F   UNL     1       3.062  -0.254  28.810  0.00  0.00    -0.166 F 
ATOM     41  F   UNL     1       2.222  -1.210  27.050  0.00  0.00    -0.166 F 
ATOM     42  F   UNL     1       4.117  -0.151  26.915  0.00  0.00    -0.166 F 
ENDBRANCH  36  39
ENDBRANCH  30  33
ENDBRANCH  28  30
ENDBRANCH  26  28
ENDBRANCH   1  22
BRANCH   1  43
ATOM     43  C   UNL     1       5.486  -5.731  21.842  0.00  0.00    +0.010 C 
ATOM     44  C   UNL     1       6.445  -5.979  20.684  0.00  0.00    +0.005 C 
ENDBRANCH   1  43
TORSDOF 13
ENDMDL
MODEL 5
REMARK VINA RESULT:      -6.8      2.711      4.870
REMARK  Name = 
REMARK  15 active torsions:
REMARK  status: ('A' for Active; 'I' for Inactive)
REMARK    1  A    between atoms: C_1  and  C_2
REMARK    2  A    between atoms: C_2  and  C_3
REMARK    3  A    between atoms: C_3  and  C_4
REMARK    4  A    between atoms: C_4  and  C_5
REMARK    5  A    between atoms: C_5  and  C_6
REMARK    6  A    between atoms: C_6  and  C_7
REMARK    7  A    between atoms: C_16  and  C_17
REMARK    8  A    between atoms: C_17  and  C_19
REMARK    9  A    between atoms: C_17  and  C_21
REMARK   10  A    between atoms: C_19  and  C_20
REMARK   11  A    between atoms: C_23  and  N_24
REMARK   12  A    between atoms: N_24  and  S_25
REMARK   13  A    between atoms: S_25  and  C_28
REMARK   14  A    between atoms: C_31  and  C_34
REMARK   15  A    between atoms: C_41  and  O_42
REMARK                            x       y       z     vdW  Elec       q    Type
REMARK                         _______ _______ _______ _____ _____    ______ ____
ROOT
ATOM      1  C   UNL     1       8.068  -3.239  22.820  0.00  0.00    +0.059 C 
ENDROOT
BRANCH   1   5
ATOM      2  C   UNL     1       8.862   1.050  23.636  0.00  0.00    +0.121 C 
ATOM      3  O   UNL     1       7.577   0.561  23.213  0.00  0.00    -0.457 OA
ATOM      4  C   UNL     1       7.318  -0.768  23.085  0.00  0.00    +0.287 C 
ATOM      5  C   UNL     1       8.249  -1.727  22.928  0.00  0.00    +0.082 C 
ATOM      6  C   UNL     1       9.655  -1.245  22.915  0.00  0.00    +0.170 C 
ATOM      7  O   UNL     1      10.546  -1.918  22.399  0.00  0.00    -0.292 OA
ATOM      8  C   UNL     1       9.977   0.001  23.680  0.00  0.00    +0.127 C 
BRANCH   4   9
ATOM      9  O   UNL     1       5.984  -1.087  23.211  0.00  0.00    -0.480 OA
ATOM     10  H   UNL     1       5.773  -1.044  24.159  0.00  0.00    +0.295 HD
ENDBRANCH   4   9
BRANCH   2  11
ATOM     11  C   UNL     1       8.590   1.611  25.063  0.00  0.00    +0.048 C 
BRANCH  11  13
ATOM     12  C   UNL     1       7.360   3.465  26.232  0.00  0.00    +0.004 C 
ATOM     13  C   UNL     1       7.227   2.262  25.305  0.00  0.00    +0.000 C 
ENDBRANCH  11  13
ENDBRANCH   2  11
BRANCH   2  14
ATOM     14  C   UNL     1       9.209   2.202  22.653  0.00  0.00    +0.053 C 
BRANCH  14  15
ATOM     15  C   UNL     1      10.693   2.604  22.691  0.00  0.00    +0.039 C 
BRANCH  15  16
ATOM     16  C   UNL     1      10.908   3.961  23.315  0.00  0.00    -0.047 A 
ATOM     17  C   UNL     1      12.184   4.538  23.339  0.00  0.00    +0.003 A 
ATOM     18  C   UNL     1      12.385   5.788  23.927  0.00  0.00    +0.000 A 
ATOM     19  C   UNL     1      11.312   6.475  24.489  0.00  0.00    +0.000 A 
ATOM     20  C   UNL     1      10.036   5.913  24.467  0.00  0.00    +0.000 A 
ATOM     21  C   UNL     1       9.834   4.662  23.879  0.00  0.00    +0.003 A 
ENDBRANCH  15  16
ENDBRANCH  14  15
ENDBRANCH   2  14
ENDBRANCH   1   5
BRANCH   1  22
ATOM     22  C   UNL     1       8.182  -3.891  24.201  0.00  0.00    -0.038 A 
ATOM     23  C   UNL     1       9.304  -4.680  24.509  0.00  0.00    +0.004 A 
ATOM     24  C   UNL     1       9.456  -5.245  25.779  0.00  0.00    +0.002 A 
ATOM     25  C   UNL     1       8.506  -4.992  26.765  0.00  0.00    +0.024 A 
ATOM     26  C   UNL     1       7.399  -4.190  26.483  0.00  0.00    +0.048 A 
ATOM     27  C   UNL     1       7.210  -3.684  25.199  0.00  0.00    +0.028 A 
BRANCH  26  28
ATOM     28  N   UNL     1       6.460  -3.910  27.520  0.00  0.00    -0.215 N 
ATOM     29  H   UNL     1       5.683  -3.316  27.217  0.00  0.00    +0.174 HD
BRANCH  28  30
ATOM     30  S   UNL     1       5.787  -5.261  28.312  0.00  0.00    +0.090 S 
ATOM     31  O   UNL     1       4.997  -4.757  29.418  0.00  0.00    -0.148 OA
ATOM     32  O   UNL     1       6.807  -6.266  28.524  0.00  0.00    -0.148 OA
BRANCH  30  33
ATOM     33  C   UNL     1       4.622  -5.896  27.098  0.00  0.00    +0.197 A 
ATOM     34  C   UNL     1       3.328  -5.411  27.039  0.00  0.00    +0.050 A 
ATOM     35  C   UNL     1       2.537  -5.833  25.973  0.00  0.00    +0.017 A 
ATOM     36  C   UNL     1       3.066  -6.705  25.010  0.00  0.00    +0.073 A 
ATOM     37  C   UNL     1       4.363  -7.172  25.198  0.00  0.00    +0.125 A 
ATOM     38  N   UNL     1       5.157  -6.807  26.235  0.00  0.00    -0.235 NA
BRANCH  36  39
ATOM     39  C   UNL     1       2.271  -7.096  23.798  0.00  0.00    +0.419 C 
ATOM     40  F   UNL     1       2.265  -8.444  23.600  0.00  0.00    -0.166 F 
ATOM     41  F   UNL     1       2.764  -6.555  22.652  0.00  0.00    -0.166 F 
ATOM     42  F   UNL     1       0.963  -6.726  23.858  0.00  0.00    -0.166 F 
ENDBRANCH  36  39
ENDBRANCH  30  33
ENDBRANCH  28  30
ENDBRANCH  26  28
ENDBRANCH   1  22
BRANCH   1  43
ATOM     43  C   UNL     1       6.806  -3.701  22.054  0.00  0.00    +0.010 C 
ATOM     44  C   UNL     1       6.715  -5.208  21.844  0.00  0.00    +0.005 C 
ENDBRANCH   1  43
TORSDOF 13
ENDMDL
MODEL 6
REMARK VINA RESULT:      -6.7      2.957      5.440
REMARK  Name = 
REMARK  15 active torsions:
REMARK  status: ('A' for Active; 'I' for Inactive)
REMARK    1  A    between atoms: C_1  and  C_2
REMARK    2  A    between atoms: C_2  and  C_3
REMARK    3  A    between atoms: C_3  and  C_4
REMARK    4  A    between atoms: C_4  and  C_5
REMARK    5  A    between atoms: C_5  and  C_6
REMARK    6  A    between atoms: C_6  and  C_7
REMARK    7  A    between atoms: C_16  and  C_17
REMARK    8  A    between atoms: C_17  and  C_19
REMARK    9  A    between atoms: C_17  and  C_21
REMARK   10  A    between atoms: C_19  and  C_20
REMARK   11  A    between atoms: C_23  and  N_24
REMARK   12  A    between atoms: N_24  and  S_25
REMARK   13  A    between atoms: S_25  and  C_28
REMARK   14  A    between atoms: C_31  and  C_34
REMARK   15  A    between atoms: C_41  and  O_42
REMARK                            x       y       z     vdW  Elec       q    Type
REMARK                         _______ _______ _______ _____ _____    ______ ____
ROOT
ATOM      1  C   UNL     1       7.923  -3.940  23.159  0.00  0.00    +0.059 C 
ENDROOT
BRANCH   1   5
ATOM      2  C   UNL     1       8.607   0.377  23.929  0.00  0.00    +0.121 C 
ATOM      3  O   UNL     1       7.378  -0.133  23.383  0.00  0.00    -0.457 OA
ATOM      4  C   UNL     1       7.139  -1.467  23.267  0.00  0.00    +0.287 C 
ATOM      5  C   UNL     1       8.085  -2.423  23.241  0.00  0.00    +0.082 C 
ATOM      6  C   UNL     1       9.482  -1.933  23.367  0.00  0.00    +0.170 C 
ATOM      7  O   UNL     1      10.427  -2.615  22.973  0.00  0.00    -0.292 OA
ATOM      8  C   UNL     1       9.714  -0.662  24.126  0.00  0.00    +0.127 C 
BRANCH   4   9
ATOM      9  O   UNL     1       5.801  -1.791  23.256  0.00  0.00    -0.480 OA
ATOM     10  H   UNL     1       5.339  -1.064  22.806  0.00  0.00    +0.295 HD
ENDBRANCH   4   9
BRANCH   2  11
ATOM     11  C   UNL     1       8.178   0.977  25.300  0.00  0.00    +0.048 C 
BRANCH  11  13
ATOM     12  C   UNL     1       7.133   3.039  26.286  0.00  0.00    +0.004 C 
ATOM     13  C   UNL     1       6.948   1.886  25.307  0.00  0.00    +0.000 C 
ENDBRANCH  11  13
ENDBRANCH   2  11
BRANCH   2  14
ATOM     14  C   UNL     1       9.055   1.502  22.956  0.00  0.00    +0.053 C 
BRANCH  14  15
ATOM     15  C   UNL     1      10.500   1.970  23.196  0.00  0.00    +0.039 C 
BRANCH  15  16
ATOM     16  C   UNL     1      10.590   3.452  23.464  0.00  0.00    -0.047 A 
ATOM     17  C   UNL     1      11.816   4.122  23.353  0.00  0.00    +0.003 A 
ATOM     18  C   UNL     1      11.901   5.491  23.611  0.00  0.00    +0.000 A 
ATOM     19  C   UNL     1      10.762   6.204  23.977  0.00  0.00    +0.000 A 
ATOM     20  C   UNL     1       9.536   5.549  24.086  0.00  0.00    +0.000 A 
ATOM     21  C   UNL     1       9.449   4.180  23.828  0.00  0.00    +0.003 A 
ENDBRANCH  15  16
ENDBRANCH  14  15
ENDBRANCH   2  14
ENDBRANCH   1   5
BRANCH   1  22
ATOM     22  C   UNL     1       7.441  -4.499  24.502  0.00  0.00    -0.038 A 
ATOM     23  C   UNL     1       8.324  -4.547  25.594  0.00  0.00    +0.004 A 
ATOM     24  C   UNL     1       7.895  -5.007  26.843  0.00  0.00    +0.002 A 
ATOM     25  C   UNL     1       6.567  -5.384  27.020  0.00  0.00    +0.024 A 
ATOM     26  C   UNL     1       5.671  -5.319  25.952  0.00  0.00    +0.048 A 
ATOM     27  C   UNL     1       6.113  -4.928  24.691  0.00  0.00    +0.028 A 
BRANCH  26  28
ATOM     28  N   UNL     1       4.305  -5.671  26.167  0.00  0.00    -0.215 N 
ATOM     29  H   UNL     1       4.095  -5.914  27.140  0.00  0.00    +0.174 HD
BRANCH  28  30
ATOM     30  S   UNL     1       3.144  -4.528  25.668  0.00  0.00    +0.090 S 
ATOM     31  O   UNL     1       1.869  -4.947  26.216  0.00  0.00    -0.148 OA
ATOM     32  O   UNL     1       3.293  -4.261  24.252  0.00  0.00    -0.148 OA
BRANCH  30  33
ATOM     33  C   UNL     1       3.627  -3.049  26.568  0.00  0.00    +0.197 A 
ATOM     34  C   UNL     1       3.551  -3.005  27.949  0.00  0.00    +0.050 A 
ATOM     35  C   UNL     1       4.092  -1.889  28.583  0.00  0.00    +0.017 A 
ATOM     36  C   UNL     1       4.694  -0.875  27.823  0.00  0.00    +0.073 A 
ATOM     37  C   UNL     1       4.666  -0.997  26.437  0.00  0.00    +0.125 A 
ATOM     38  N   UNL     1       4.127  -2.054  25.780  0.00  0.00    -0.235 NA
BRANCH  36  39
ATOM     39  C   UNL     1       5.374   0.288  28.484  0.00  0.00    +0.419 C 
ATOM     40  F   UNL     1       6.711   0.319  28.224  0.00  0.00    -0.166 F 
ATOM     41  F   UNL     1       5.261   0.259  29.839  0.00  0.00    -0.166 F 
ATOM     42  F   UNL     1       4.893   1.500  28.092  0.00  0.00    -0.166 F 
ENDBRANCH  36  39
ENDBRANCH  30  33
ENDBRANCH  28  30
ENDBRANCH  26  28
ENDBRANCH   1  22
BRANCH   1  43
ATOM     43  C   UNL     1       7.074  -4.451  21.972  0.00  0.00    +0.010 C 
ATOM     44  C   UNL     1       7.208  -5.944  21.700  0.00  0.00    +0.005 C 
ENDBRANCH   1  43
TORSDOF 13
ENDMDL
MODEL 7
REMARK VINA RESULT:      -6.6      4.821      7.948
REMARK  Name = 
REMARK  15 active torsions:
REMARK  status: ('A' for Active; 'I' for Inactive)
REMARK    1  A    between atoms: C_1  and  C_2
REMARK    2  A    between atoms: C_2  and  C_3
REMARK    3  A    between atoms: C_3  and  C_4
REMARK    4  A    between atoms: C_4  and  C_5
REMARK    5  A    between atoms: C_5  and  C_6
REMARK    6  A    between atoms: C_6  and  C_7
REMARK    7  A    between atoms: C_16  and  C_17
REMARK    8  A    between atoms: C_17  and  C_19
REMARK    9  A    between atoms: C_17  and  C_21
REMARK   10  A    between atoms: C_19  and  C_20
REMARK   11  A    between atoms: C_23  and  N_24
REMARK   12  A    between atoms: N_24  and  S_25
REMARK   13  A    between atoms: S_25  and  C_28
REMARK   14  A    between atoms: C_31  and  C_34
REMARK   15  A    between atoms: C_41  and  O_42
REMARK                            x       y       z     vdW  Elec       q    Type
REMARK                         _______ _______ _______ _____ _____    ______ ____
ROOT
ATOM      1  C   UNL     1       6.083   0.684  26.693  0.00  0.00    +0.059 C 
ENDROOT
BRANCH   1   5
ATOM      2  C   UNL     1       9.291  -0.565  23.892  0.00  0.00    +0.121 C 
ATOM      3  O   UNL     1       7.908  -0.482  23.507  0.00  0.00    -0.457 OA
ATOM      4  C   UNL     1       6.955   0.018  24.340  0.00  0.00    +0.287 C 
ATOM      5  C   UNL     1       7.066   0.104  25.679  0.00  0.00    +0.082 C 
ATOM      6  C   UNL     1       8.354  -0.385  26.238  0.00  0.00    +0.170 C 
ATOM      7  O   UNL     1       8.437  -0.729  27.416  0.00  0.00    -0.292 OA
ATOM      8  C   UNL     1       9.573  -0.298  25.374  0.00  0.00    +0.127 C 
BRANCH   4   9
ATOM      9  O   UNL     1       5.856   0.524  23.684  0.00  0.00    -0.480 OA
ATOM     10  H   UNL     1       5.169  -0.163  23.715  0.00  0.00    +0.295 HD
ENDBRANCH   4   9
BRANCH   2  11
ATOM     11  C   UNL     1       9.983   0.513  23.007  0.00  0.00    +0.048 C 
BRANCH  11  13
ATOM     12  C   UNL     1       8.585   1.538  21.186  0.00  0.00    +0.004 C 
ATOM     13  C   UNL     1       9.654   0.501  21.513  0.00  0.00    +0.000 C 
ENDBRANCH  11  13
ENDBRANCH   2  11
BRANCH   2  14
ATOM     14  C   UNL     1       9.750  -1.990  23.477  0.00  0.00    +0.053 C 
BRANCH  14  15
ATOM     15  C   UNL     1       8.580  -2.969  23.281  0.00  0.00    +0.039 C 
BRANCH  15  16
ATOM     16  C   UNL     1       8.164  -3.637  24.569  0.00  0.00    -0.047 A 
ATOM     17  C   UNL     1       9.124  -4.205  25.417  0.00  0.00    +0.003 A 
ATOM     18  C   UNL     1       8.737  -4.832  26.603  0.00  0.00    +0.000 A 
ATOM     19  C   UNL     1       7.390  -4.891  26.954  0.00  0.00    +0.000 A 
ATOM     20  C   UNL     1       6.428  -4.324  26.120  0.00  0.00    +0.000 A 
ATOM     21  C   UNL     1       6.813  -3.697  24.934  0.00  0.00    +0.003 A 
ENDBRANCH  15  16
ENDBRANCH  14  15
ENDBRANCH   2  14
ENDBRANCH   1   5
BRANCH   1  22
ATOM     22  C   UNL     1       6.209   2.210  26.747  0.00  0.00    -0.038 A 
ATOM     23  C   UNL     1       6.949   2.813  27.779  0.00  0.00    +0.004 A 
ATOM     24  C   UNL     1       7.120   4.200  27.822  0.00  0.00    +0.002 A 
ATOM     25  C   UNL     1       6.586   4.993  26.810  0.00  0.00    +0.024 A 
ATOM     26  C   UNL     1       5.871   4.408  25.765  0.00  0.00    +0.048 A 
ATOM     27  C   UNL     1       5.640   3.034  25.757  0.00  0.00    +0.028 A 
BRANCH  26  28
ATOM     28  N   UNL     1       5.369   5.236  24.716  0.00  0.00    -0.215 N 
ATOM     29  H   UNL     1       5.440   6.237  24.918  0.00  0.00    +0.174 HD
BRANCH  28  30
ATOM     30  S   UNL     1       6.038   4.982  23.169  0.00  0.00    +0.090 S 
ATOM     31  O   UNL     1       5.723   6.150  22.372  0.00  0.00    -0.148 OA
ATOM     32  O   UNL     1       5.708   3.651  22.702  0.00  0.00    -0.148 OA
BRANCH  30  33
ATOM     33  C   UNL     1       7.807   5.038  23.485  0.00  0.00    +0.197 A 
ATOM     34  C   UNL     1       8.530   3.873  23.667  0.00  0.00    +0.050 A 
ATOM     35  C   UNL     1       9.916   3.987  23.745  0.00  0.00    +0.017 A 
ATOM     36  C   UNL     1      10.522   5.246  23.628  0.00  0.00    +0.073 A 
ATOM     37  C   UNL     1       9.695   6.357  23.501  0.00  0.00    +0.125 A 
ATOM     38  N   UNL     1       8.342   6.293  23.446  0.00  0.00    -0.235 NA
BRANCH  36  39
ATOM     39  C   UNL     1      12.017   5.387  23.607  0.00  0.00    +0.419 C 
ATOM     40  F   UNL     1      12.462   5.987  22.468  0.00  0.00    -0.166 F 
ATOM     41  F   UNL     1      12.656   4.188  23.668  0.00  0.00    -0.166 F 
ATOM     42  F   UNL     1      12.512   6.131  24.634  0.00  0.00    -0.166 F 
ENDBRANCH  36  39
ENDBRANCH  30  33
ENDBRANCH  28  30
ENDBRANCH  26  28
ENDBRANCH   1  22
BRANCH   1  43
ATOM     43  C   UNL     1       4.617   0.221  26.532  0.00  0.00    +0.010 C 
ATOM     44  C   UNL     1       4.400  -1.270  26.762  0.00  0.00    +0.005 C 
ENDBRANCH   1  43
TORSDOF 13
ENDMDL
MODEL 8
REMARK VINA RESULT:      -6.6      1.729      3.886
REMARK  Name = 
REMARK  15 active torsions:
REMARK  status: ('A' for Active; 'I' for Inactive)
REMARK    1  A    between atoms: C_1  and  C_2
REMARK    2  A    between atoms: C_2  and  C_3
REMARK    3  A    between atoms: C_3  and  C_4
REMARK    4  A    between atoms: C_4  and  C_5
REMARK    5  A    between atoms: C_5  and  C_6
REMARK    6  A    between atoms: C_6  and  C_7
REMARK    7  A    between atoms: C_16  and  C_17
REMARK    8  A    between atoms: C_17  and  C_19
REMARK    9  A    between atoms: C_17  and  C_21
REMARK   10  A    between atoms: C_19  and  C_20
REMARK   11  A    between atoms: C_23  and  N_24
REMARK   12  A    between atoms: N_24  and  S_25
REMARK   13  A    between atoms: S_25  and  C_28
REMARK   14  A    between atoms: C_31  and  C_34
REMARK   15  A    between atoms: C_41  and  O_42
REMARK                            x       y       z     vdW  Elec       q    Type
REMARK                         _______ _______ _______ _____ _____    ______ ____
ROOT
ATOM      1  C   UNL     1       8.265  -2.664  25.332  0.00  0.00    +0.059 C 
ENDROOT
BRANCH   1   5
ATOM      2  C   UNL     1       8.202   1.197  23.145  0.00  0.00    +0.121 C 
ATOM      3  O   UNL     1       7.986  -0.069  22.498  0.00  0.00    -0.457 OA
ATOM      4  C   UNL     1       7.888  -1.230  23.200  0.00  0.00    +0.287 C 
ATOM      5  C   UNL     1       8.361  -1.424  24.445  0.00  0.00    +0.082 C 
ATOM      6  C   UNL     1       9.020  -0.243  25.061  0.00  0.00    +0.170 C 
ATOM      7  O   UNL     1       9.819  -0.379  25.987  0.00  0.00    -0.292 OA
ATOM      8  C   UNL     1       8.567   1.118  24.630  0.00  0.00    +0.127 C 
BRANCH   4   9
ATOM      9  O   UNL     1       7.172  -2.211  22.552  0.00  0.00    -0.480 OA
ATOM     10  H   UNL     1       6.291  -1.842  22.370  0.00  0.00    +0.295 HD
ENDBRANCH   4   9
BRANCH   2  11
ATOM     11  C   UNL     1       6.845   1.939  22.961  0.00  0.00    +0.048 C 
BRANCH  11  13
ATOM     12  C   UNL     1       6.152   4.337  22.661  0.00  0.00    +0.004 C 
ATOM     13  C   UNL     1       6.832   3.138  22.010  0.00  0.00    +0.000 C 
ENDBRANCH  11  13
ENDBRANCH   2  11
BRANCH   2  14
ATOM     14  C   UNL     1       9.321   1.894  22.324  0.00  0.00    +0.053 C 
BRANCH  14  15
ATOM     15  C   UNL     1      10.590   2.175  23.147  0.00  0.00    +0.039 C 
BRANCH  15  16
ATOM     16  C   UNL     1      10.755   3.639  23.472  0.00  0.00    -0.047 A 
ATOM     17  C   UNL     1      12.009   4.255  23.360  0.00  0.00    +0.003 A 
ATOM     18  C   UNL     1      12.163   5.607  23.672  0.00  0.00    +0.000 A 
ATOM     19  C   UNL     1      11.067   6.356  24.091  0.00  0.00    +0.000 A 
ATOM     20  C   UNL     1       9.814   5.755  24.202  0.00  0.00    +0.000 A 
ATOM     21  C   UNL     1       9.657   4.403  23.890  0.00  0.00    +0.003 A 
ENDBRANCH  15  16
ENDBRANCH  14  15
ENDBRANCH   2  14
ENDBRANCH   1   5
BRANCH   1  22
ATOM     22  C   UNL     1       6.954  -2.654  26.125  0.00  0.00    -0.038 A 
ATOM     23  C   UNL     1       6.280  -1.440  26.341  0.00  0.00    +0.004 A 
ATOM     24  C   UNL     1       5.057  -1.411  27.018  0.00  0.00    +0.002 A 
ATOM     25  C   UNL     1       4.479  -2.601  27.450  0.00  0.00    +0.024 A 
ATOM     26  C   UNL     1       5.123  -3.817  27.221  0.00  0.00    +0.048 A 
ATOM     27  C   UNL     1       6.374  -3.842  26.609  0.00  0.00    +0.028 A 
BRANCH  26  28
ATOM     28  N   UNL     1       4.492  -5.028  27.635  0.00  0.00    -0.215 N 
ATOM     29  H   UNL     1       4.140  -4.996  28.596  0.00  0.00    +0.174 HD
BRANCH  28  30
ATOM     30  S   UNL     1       3.222  -5.592  26.648  0.00  0.00    +0.090 S 
ATOM     31  O   UNL     1       2.181  -4.585  26.675  0.00  0.00    -0.148 OA
ATOM     32  O   UNL     1       2.929  -6.975  26.966  0.00  0.00    -0.148 OA
BRANCH  30  33
ATOM     33  C   UNL     1       3.943  -5.541  25.002  0.00  0.00    +0.197 A 
ATOM     34  C   UNL     1       3.744  -4.447  24.178  0.00  0.00    +0.050 A 
ATOM     35  C   UNL     1       4.464  -4.407  22.986  0.00  0.00    +0.017 A 
ATOM     36  C   UNL     1       5.354  -5.445  22.670  0.00  0.00    +0.073 A 
ATOM     37  C   UNL     1       5.435  -6.522  23.547  0.00  0.00    +0.125 A 
ATOM     38  N   UNL     1       4.733  -6.612  24.704  0.00  0.00    -0.235 NA
BRANCH  36  39
ATOM     39  C   UNL     1       6.216  -5.380  21.443  0.00  0.00    +0.419 C 
ATOM     40  F   UNL     1       5.948  -6.392  20.571  0.00  0.00    -0.166 F 
ATOM     41  F   UNL     1       7.542  -5.479  21.729  0.00  0.00    -0.166 F 
ATOM     42  F   UNL     1       6.069  -4.230  20.730  0.00  0.00    -0.166 F 
ENDBRANCH  36  39
ENDBRANCH  30  33
ENDBRANCH  28  30
ENDBRANCH  26  28
ENDBRANCH   1  22
BRANCH   1  43
ATOM     43  C   UNL     1       8.507  -4.011  24.612  0.00  0.00    +0.010 C 
ATOM     44  C   UNL     1       9.608  -4.865  25.229  0.00  0.00    +0.005 C 
ENDBRANCH   1  43
TORSDOF 13
ENDMDL
MODEL 9
REMARK VINA RESULT:      -6.5      2.523      4.802
REMARK  Name = 
REMARK  15 active torsions:
REMARK  status: ('A' for Active; 'I' for Inactive)
REMARK    1  A    between atoms: C_1  and  C_2
REMARK    2  A    between atoms: C_2  and  C_3
REMARK    3  A    between atoms: C_3  and  C_4
REMARK    4  A    between atoms: C_4  and  C_5
REMARK    5  A    between atoms: C_5  and  C_6
REMARK    6  A    between atoms: C_6  and  C_7
REMARK    7  A    between atoms: C_16  and  C_17
REMARK    8  A    between atoms: C_17  and  C_19
REMARK    9  A    between atoms: C_17  and  C_21
REMARK   10  A    between atoms: C_19  and  C_20
REMARK   11  A    between atoms: C_23  and  N_24
REMARK   12  A    between atoms: N_24  and  S_25
REMARK   13  A    between atoms: S_25  and  C_28
REMARK   14  A    between atoms: C_31  and  C_34
REMARK   15  A    between atoms: C_41  and  O_42
REMARK                            x       y       z     vdW  Elec       q    Type
REMARK                         _______ _______ _______ _____ _____    ______ ____
ROOT
ATOM      1  C   UNL     1       9.133  -1.525  23.246  0.00  0.00    +0.059 C 
ENDROOT
BRANCH   1   5
ATOM      2  C   UNL     1       7.195   1.302  26.064  0.00  0.00    +0.121 C 
ATOM      3  O   UNL     1       6.699   1.062  24.735  0.00  0.00    -0.457 OA
ATOM      4  C   UNL     1       7.231   0.105  23.929  0.00  0.00    +0.287 C 
ATOM      5  C   UNL     1       8.461  -0.424  24.063  0.00  0.00    +0.082 C 
ATOM      6  C   UNL     1       9.254   0.102  25.205  0.00  0.00    +0.170 C 
ATOM      7  O   UNL     1      10.480   0.015  25.213  0.00  0.00    -0.292 OA
ATOM      8  C   UNL     1       8.509   0.596  26.407  0.00  0.00    +0.127 C 
BRANCH   4   9
ATOM      9  O   UNL     1       6.358  -0.362  22.972  0.00  0.00    -0.480 OA
ATOM     10  H   UNL     1       5.533   0.142  23.074  0.00  0.00    +0.295 HD
ENDBRANCH   4   9
BRANCH   2  11
ATOM     11  C   UNL     1       6.047   0.787  26.982  0.00  0.00    +0.048 C 
BRANCH  11  13
ATOM     12  C   UNL     1       4.408  -1.044  26.454  0.00  0.00    +0.004 C 
ATOM     13  C   UNL     1       5.795  -0.722  26.998  0.00  0.00    +0.000 C 
ENDBRANCH  11  13
ENDBRANCH   2  11
BRANCH   2  14
ATOM     14  C   UNL     1       7.335   2.845  26.179  0.00  0.00    +0.053 C 
BRANCH  14  15
ATOM     15  C   UNL     1       7.312   3.559  24.817  0.00  0.00    +0.039 C 
BRANCH  15  16
ATOM     16  C   UNL     1       8.669   4.084  24.418  0.00  0.00    -0.047 A 
ATOM     17  C   UNL     1       9.612   3.237  23.820  0.00  0.00    +0.003 A 
ATOM     18  C   UNL     1      10.871   3.722  23.461  0.00  0.00    +0.000 A 
ATOM     19  C   UNL     1      11.196   5.057  23.689  0.00  0.00    +0.000 A 
ATOM     20  C   UNL     1      10.264   5.910  24.278  0.00  0.00    +0.000 A 
ATOM     21  C   UNL     1       9.004   5.427  24.638  0.00  0.00    +0.003 A 
ENDBRANCH  15  16
ENDBRANCH  14  15
ENDBRANCH   2  14
ENDBRANCH   1   5
BRANCH   1  22
ATOM     22  C   UNL     1       8.409  -2.860  23.451  0.00  0.00    -0.038 A 
ATOM     23  C   UNL     1       7.665  -3.418  22.397  0.00  0.00    +0.004 A 
ATOM     24  C   UNL     1       7.036  -4.659  22.543  0.00  0.00    +0.002 A 
ATOM     25  C   UNL     1       7.181  -5.370  23.731  0.00  0.00    +0.024 A 
ATOM     26  C   UNL     1       7.937  -4.841  24.777  0.00  0.00    +0.048 A 
ATOM     27  C   UNL     1       8.506  -3.575  24.660  0.00  0.00    +0.028 A 
BRANCH  26  28
ATOM     28  N   UNL     1       8.106  -5.607  25.970  0.00  0.00    -0.215 N 
ATOM     29  H   UNL     1       9.051  -5.551  26.360  0.00  0.00    +0.174 HD
BRANCH  28  30
ATOM     30  S   UNL     1       7.015  -5.279  27.237  0.00  0.00    +0.090 S 
ATOM     31  O   UNL     1       7.082  -3.856  27.500  0.00  0.00    -0.148 OA
ATOM     32  O   UNL     1       7.196  -6.242  28.303  0.00  0.00    -0.148 OA
BRANCH  30  33
ATOM     33  C   UNL     1       5.415  -5.585  26.476  0.00  0.00    +0.197 A 
ATOM     34  C   UNL     1       4.608  -4.532  26.080  0.00  0.00    +0.050 A 
ATOM     35  C   UNL     1       3.462  -4.846  25.354  0.00  0.00    +0.017 A 
ATOM     36  C   UNL     1       3.173  -6.183  25.043  0.00  0.00    +0.073 A 
ATOM     37  C   UNL     1       4.025  -7.165  25.538  0.00  0.00    +0.125 A 
ATOM     38  N   UNL     1       5.137  -6.904  26.270  0.00  0.00    -0.235 NA
BRANCH  36  39
ATOM     39  C   UNL     1       2.000  -6.541  24.178  0.00  0.00    +0.419 C 
ATOM     40  F   UNL     1       2.319  -7.478  23.241  0.00  0.00    -0.166 F 
ATOM     41  F   UNL     1       1.516  -5.475  23.485  0.00  0.00    -0.166 F 
ATOM     42  F   UNL     1       0.945  -7.053  24.868  0.00  0.00    -0.166 F 
ENDBRANCH  36  39
ENDBRANCH  30  33
ENDBRANCH  28  30
ENDBRANCH  26  28
ENDBRANCH   1  22
BRANCH   1  43
ATOM     43  C   UNL     1       9.351  -1.199  21.750  0.00  0.00    +0.010 C 
ATOM     44  C   UNL     1       9.612   0.274  21.459  0.00  0.00    +0.005 C 
ENDBRANCH   1  43
TORSDOF 13
ENDMDL
