MODEL 1
REMARK VINA RESULT:      -7.8      0.000      0.000
REMARK  Name = 
REMARK  13 active torsions:
REMARK  status: ('A' for Active; 'I' for Inactive)
REMARK    1  A    between atoms: C_1  and  N_2
REMARK    2  A    between atoms: N_2  and  C_3
REMARK    3  A    between atoms: N_2  and  C_4
REMARK    4  A    between atoms: N_2  and  C_5
REMARK    5  A    between atoms: C_8  and  C_9
REMARK    6  A    between atoms: C_9  and  N_10
REMARK    7  A    between atoms: C_11  and  C_13
REMARK    8  A    between atoms: C_19  and  O_20
REMARK    9  A    between atoms: O_20  and  C_21
REMARK   10  A    between atoms: C_21  and  C_22
REMARK   11  A    between atoms: N_29  and  C_30
REMARK   12  A    between atoms: C_30  and  C_31
REMARK   13  A    between atoms: C_35  and  C_37
REMARK                            x       y       z     vdW  Elec       q    Type
REMARK                         _______ _______ _______ _____ _____    ______ ____
ROOT
ATOM      1  C   UNL     1       8.069  -3.421  23.189  0.00  0.00    +0.106 A 
ATOM      2  N   UNL     1       8.805  -2.884  24.245  0.00  0.00    -0.332 N 
ATOM      3  C   UNL     1       9.279  -1.621  23.900  0.00  0.00    +0.050 A 
ATOM      4  C   UNL     1      10.152  -0.727  24.546  0.00  0.00    +0.030 A 
ATOM      5  C   UNL     1      10.344   0.540  23.970  0.00  0.00    +0.048 A 
ATOM      6  C   UNL     1       9.687   0.913  22.799  0.00  0.00    +0.122 A 
ATOM      7  C   UNL     1       8.899  -0.016  22.124  0.00  0.00    +0.055 A 
ATOM      8  C   UNL     1       8.687  -1.286  22.687  0.00  0.00    +0.004 A 
ATOM      9  C   UNL     1       7.944  -2.401  22.256  0.00  0.00    +0.041 A 
ENDROOT
BRANCH   1  12
ATOM     10  N   UNL     1       6.156  -4.827  23.368  0.00  0.00    -0.306 N 
ATOM     11  H   UNL     1       5.625  -3.970  23.401  0.00  0.00    +0.149 HD
ATOM     12  C   UNL     1       7.514  -4.761  23.112  0.00  0.00    +0.261 C 
ATOM     13  O   UNL     1       8.169  -5.769  22.868  0.00  0.00    -0.269 OA
BRANCH  10  14
ATOM     14  C   UNL     1       5.410  -6.057  23.348  0.00  0.00    +0.140 C 
BRANCH  14  18
ATOM     15  C   UNL     1       2.382  -5.989  26.377  0.00  0.00    +0.145 A 
ATOM     16  C   UNL     1       2.615  -4.833  25.633  0.00  0.00    +0.072 A 
ATOM     17  C   UNL     1       3.503  -4.864  24.559  0.00  0.00    +0.011 A 
ATOM     18  C   UNL     1       4.157  -6.047  24.198  0.00  0.00    -0.030 A 
ATOM     19  C   UNL     1       3.740  -7.240  24.800  0.00  0.00    +0.011 A 
ATOM     20  C   UNL     1       2.835  -7.214  25.864  0.00  0.00    +0.072 A 
BRANCH  15  22
ATOM     21  C   UNL     1       1.751  -4.476  28.297  0.00  0.00    +0.360 C 
ATOM     22  N   UNL     1       1.826  -5.924  27.785  0.00  0.00    -0.383 NA
ATOM     23  C   UNL     1       2.807  -6.647  28.717  0.00  0.00    +0.360 C 
ATOM     24  C   UNL     1       0.445  -6.539  27.805  0.00  0.00    +0.360 C 
ENDBRANCH  15  22
ENDBRANCH  14  18
ENDBRANCH  10  14
ENDBRANCH   1  12
BRANCH   2  25
ATOM     25  C   UNL     1       9.058  -3.536  25.535  0.00  0.00    +0.157 C 
BRANCH  25  26
ATOM     26  C   UNL     1       7.780  -3.798  26.313  0.00  0.00    -0.027 A 
ATOM     27  C   UNL     1       6.772  -2.818  26.399  0.00  0.00    +0.021 A 
ATOM     28  C   UNL     1       5.602  -3.049  27.140  0.00  0.00    +0.065 A 
ATOM     29  C   UNL     1       5.405  -4.292  27.749  0.00  0.00    +0.016 A 
ATOM     30  C   UNL     1       6.380  -5.285  27.642  0.00  0.00    +0.001 A 
ATOM     31  C   UNL     1       7.559  -5.037  26.937  0.00  0.00    +0.005 A 
BRANCH  28  32
ATOM     32  C   UNL     1       4.576  -1.974  27.326  0.00  0.00    +0.308 C 
ATOM     33  N   UNL     1       3.999  -1.369  26.331  0.00  0.00    -0.099 NA
ATOM     34  H   UNL     1       4.337  -1.755  25.442  0.00  0.00    +0.363 HD
ATOM     35  N   UNL     1       4.220  -1.569  28.580  0.00  0.00    -0.247 N 
ATOM     36  H   UNL     1       3.350  -1.046  28.574  0.00  0.00    +0.288 HD
ATOM     37  H   UNL     1       4.229  -2.283  29.301  0.00  0.00    +0.288 HD
ENDBRANCH  28  32
ENDBRANCH  25  26
ENDBRANCH   2  25
BRANCH   6  38
ATOM     38  O   UNL     1       9.873   2.206  22.384  0.00  0.00    -0.487 OA
BRANCH  38  39
ATOM     39  C   UNL     1       9.247   3.196  23.211  0.00  0.00    +0.264 C 
BRANCH  39  40
ATOM     40  C   UNL     1      10.250   4.250  23.601  0.00  0.00    -0.010 A 
ATOM     41  C   UNL     1       9.830   5.407  24.272  0.00  0.00    +0.007 A 
ATOM     42  C   UNL     1      10.747   6.401  24.613  0.00  0.00    +0.000 A 
ATOM     43  C   UNL     1      12.091   6.254  24.278  0.00  0.00    +0.000 A 
ATOM     44  C   UNL     1      12.518   5.117  23.592  0.00  0.00    +0.000 A 
ATOM     45  C   UNL     1      11.601   4.121  23.250  0.00  0.00    +0.007 A 
ENDBRANCH  39  40
ENDBRANCH  38  39
ENDBRANCH   6  38
TORSDOF 10
ENDMDL
MODEL 2
REMARK VINA RESULT:      -7.8      1.650      3.451
REMARK  Name = 
REMARK  13 active torsions:
REMARK  status: ('A' for Active; 'I' for Inactive)
REMARK    1  A    between atoms: C_1  and  N_2
REMARK    2  A    between atoms: N_2  and  C_3
REMARK    3  A    between atoms: N_2  and  C_4
REMARK    4  A    between atoms: N_2  and  C_5
REMARK    5  A    between atoms: C_8  and  C_9
REMARK    6  A    between atoms: C_9  and  N_10
REMARK    7  A    between atoms: C_11  and  C_13
REMARK    8  A    between atoms: C_19  and  O_20
REMARK    9  A    between atoms: O_20  and  C_21
REMARK   10  A    between atoms: C_21  and  C_22
REMARK   11  A    between atoms: N_29  and  C_30
REMARK   12  A    between atoms: C_30  and  C_31
REMARK   13  A    between atoms: C_35  and  C_37
REMARK                            x       y       z     vdW  Elec       q    Type
REMARK                         _______ _______ _______ _____ _____    ______ ____
ROOT
ATOM      1  C   UNL     1       8.942  -3.021  24.052  0.00  0.00    +0.106 A 
ATOM      2  N   UNL     1       8.211  -2.493  22.989  0.00  0.00    -0.332 N 
ATOM      3  C   UNL     1       8.584  -1.170  22.766  0.00  0.00    +0.050 A 
ATOM      4  C   UNL     1       8.078  -0.173  21.913  0.00  0.00    +0.030 A 
ATOM      5  C   UNL     1       8.765   1.051  21.846  0.00  0.00    +0.048 A 
ATOM      6  C   UNL     1       9.919   1.276  22.594  0.00  0.00    +0.122 A 
ATOM      7  C   UNL     1      10.353   0.313  23.502  0.00  0.00    +0.055 A 
ATOM      8  C   UNL     1       9.686  -0.920  23.577  0.00  0.00    +0.004 A 
ATOM      9  C   UNL     1       9.899  -2.067  24.366  0.00  0.00    +0.041 A 
ENDROOT
BRANCH   1  12
ATOM     10  N   UNL     1       7.860  -4.337  25.716  0.00  0.00    -0.306 N 
ATOM     11  H   UNL     1       7.272  -3.530  25.861  0.00  0.00    +0.149 HD
ATOM     12  C   UNL     1       8.761  -4.326  24.666  0.00  0.00    +0.261 C 
ATOM     13  O   UNL     1       9.357  -5.341  24.323  0.00  0.00    -0.269 OA
BRANCH  10  14
ATOM     14  C   UNL     1       7.537  -5.522  26.463  0.00  0.00    +0.140 C 
BRANCH  14  18
ATOM     15  C   UNL     1       3.645  -4.937  28.152  0.00  0.00    +0.145 A 
ATOM     16  C   UNL     1       4.055  -6.232  27.840  0.00  0.00    +0.072 A 
ATOM     17  C   UNL     1       5.360  -6.465  27.409  0.00  0.00    +0.011 A 
ATOM     18  C   UNL     1       6.281  -5.417  27.301  0.00  0.00    -0.030 A 
ATOM     19  C   UNL     1       5.928  -4.172  27.836  0.00  0.00    +0.011 A 
ATOM     20  C   UNL     1       4.626  -3.943  28.286  0.00  0.00    +0.072 A 
BRANCH  15  22
ATOM     21  C   UNL     1       1.374  -5.361  27.134  0.00  0.00    +0.360 C 
ATOM     22  N   UNL     1       2.179  -4.553  28.165  0.00  0.00    -0.383 NA
ATOM     23  C   UNL     1       2.068  -3.086  27.728  0.00  0.00    +0.360 C 
ATOM     24  C   UNL     1       1.613  -4.792  29.547  0.00  0.00    +0.360 C 
ENDBRANCH  15  22
ENDBRANCH  14  18
ENDBRANCH  10  14
ENDBRANCH   1  12
BRANCH   2  25
ATOM     25  C   UNL     1       7.191  -3.205  22.209  0.00  0.00    +0.157 C 
BRANCH  25  26
ATOM     26  C   UNL     1       5.984  -3.590  23.047  0.00  0.00    -0.027 A 
ATOM     27  C   UNL     1       5.445  -4.889  22.982  0.00  0.00    +0.021 A 
ATOM     28  C   UNL     1       4.313  -5.240  23.735  0.00  0.00    +0.065 A 
ATOM     29  C   UNL     1       3.750  -4.306  24.610  0.00  0.00    +0.016 A 
ATOM     30  C   UNL     1       4.296  -3.025  24.710  0.00  0.00    +0.001 A 
ATOM     31  C   UNL     1       5.398  -2.670  23.931  0.00  0.00    +0.005 A 
BRANCH  28  32
ATOM     32  C   UNL     1       3.669  -6.584  23.590  0.00  0.00    +0.308 C 
ATOM     33  N   UNL     1       4.096  -7.643  24.212  0.00  0.00    -0.099 NA
ATOM     34  H   UNL     1       4.898  -7.400  24.807  0.00  0.00    +0.363 HD
ATOM     35  N   UNL     1       2.597  -6.751  22.761  0.00  0.00    -0.247 N 
ATOM     36  H   UNL     1       2.103  -7.616  22.954  0.00  0.00    +0.288 HD
ATOM     37  H   UNL     1       1.965  -5.962  22.683  0.00  0.00    +0.288 HD
ENDBRANCH  28  32
ENDBRANCH  25  26
ENDBRANCH   2  25
BRANCH   6  38
ATOM     38  O   UNL     1      10.561   2.468  22.375  0.00  0.00    -0.487 OA
BRANCH  38  39
ATOM     39  C   UNL     1      11.000   3.138  23.563  0.00  0.00    +0.264 C 
BRANCH  39  40
ATOM     40  C   UNL     1      10.045   4.252  23.908  0.00  0.00    -0.010 A 
ATOM     41  C   UNL     1       8.840   3.966  24.566  0.00  0.00    +0.007 A 
ATOM     42  C   UNL     1       7.937   4.985  24.865  0.00  0.00    +0.000 A 
ATOM     43  C   UNL     1       8.225   6.300  24.503  0.00  0.00    +0.000 A 
ATOM     44  C   UNL     1       9.411   6.594  23.830  0.00  0.00    +0.000 A 
ATOM     45  C   UNL     1      10.316   5.574  23.529  0.00  0.00    +0.007 A 
ENDBRANCH  39  40
ENDBRANCH  38  39
ENDBRANCH   6  38
TORSDOF 10
ENDMDL
MODEL 3
REMARK VINA RESULT:      -7.7      2.911      4.494
REMARK  Name = 
REMARK  13 active torsions:
REMARK  status: ('A' for Active; 'I' for Inactive)
REMARK    1  A    between atoms: C_1  and  N_2
REMARK    2  A    between atoms: N_2  and  C_3
REMARK    3  A    between atoms: N_2  and  C_4
REMARK    4  A    between atoms: N_2  and  C_5
REMARK    5  A    between atoms: C_8  and  C_9
REMARK    6  A    between atoms: C_9  and  N_10
REMARK    7  A    between atoms: C_11  and  C_13
REMARK    8  A    between atoms: C_19  and  O_20
REMARK    9  A    between atoms: O_20  and  C_21
REMARK   10  A    between atoms: C_21  and  C_22
REMARK   11  A    between atoms: N_29  and  C_30
REMARK   12  A    between atoms: C_30  and  C_31
REMARK   13  A    between atoms: C_35  and  C_37
REMARK                            x       y       z     vdW  Elec       q    Type
REMARK                         _______ _______ _______ _____ _____    ______ ____
ROOT
ATOM      1  C   UNL     1       8.536  -0.014  22.685  0.00  0.00    +0.106 A 
ATOM      2  N   UNL     1       8.955   0.587  23.872  0.00  0.00    -0.332 N 
ATOM      3  C   UNL     1       8.792   1.967  23.790  0.00  0.00    +0.050 A 
ATOM      4  C   UNL     1       9.164   3.019  24.645  0.00  0.00    +0.030 A 
ATOM      5  C   UNL     1       8.745   4.319  24.316  0.00  0.00    +0.048 A 
ATOM      6  C   UNL     1       7.977   4.568  23.181  0.00  0.00    +0.122 A 
ATOM      7  C   UNL     1       7.695   3.530  22.296  0.00  0.00    +0.055 A 
ATOM      8  C   UNL     1       8.097   2.221  22.611  0.00  0.00    +0.004 A 
ATOM      9  C   UNL     1       7.944   0.994  21.938  0.00  0.00    +0.041 A 
ENDROOT
BRANCH   1  12
ATOM     10  N   UNL     1       7.519  -2.165  22.582  0.00  0.00    -0.306 N 
ATOM     11  H   UNL     1       6.659  -1.684  22.797  0.00  0.00    +0.149 HD
ATOM     12  C   UNL     1       8.657  -1.419  22.334  0.00  0.00    +0.261 C 
ATOM     13  O   UNL     1       9.673  -1.932  21.880  0.00  0.00    -0.269 OA
BRANCH  10  14
ATOM     14  C   UNL     1       7.428  -3.574  22.312  0.00  0.00    +0.140 C 
BRANCH  14  18
ATOM     15  C   UNL     1       4.361  -5.312  24.744  0.00  0.00    +0.145 A 
ATOM     16  C   UNL     1       4.112  -4.092  24.118  0.00  0.00    +0.072 A 
ATOM     17  C   UNL     1       5.041  -3.567  23.222  0.00  0.00    +0.011 A 
ATOM     18  C   UNL     1       6.221  -4.256  22.921  0.00  0.00    -0.030 A 
ATOM     19  C   UNL     1       6.347  -5.575  23.372  0.00  0.00    +0.011 A 
ATOM     20  C   UNL     1       5.406  -6.110  24.256  0.00  0.00    +0.072 A 
BRANCH  15  22
ATOM     21  C   UNL     1       2.309  -6.378  25.757  0.00  0.00    +0.360 C 
ATOM     22  N   UNL     1       3.659  -5.698  26.031  0.00  0.00    -0.383 NA
ATOM     23  C   UNL     1       3.332  -4.410  26.798  0.00  0.00    +0.360 C 
ATOM     24  C   UNL     1       4.546  -6.634  26.821  0.00  0.00    +0.360 C 
ENDBRANCH  15  22
ENDBRANCH  14  18
ENDBRANCH  10  14
ENDBRANCH   1  12
BRANCH   2  25
ATOM     25  C   UNL     1       9.495  -0.111  25.045  0.00  0.00    +0.157 C 
BRANCH  25  26
ATOM     26  C   UNL     1       8.550  -1.177  25.572  0.00  0.00    -0.027 A 
ATOM     27  C   UNL     1       9.001  -2.490  25.807  0.00  0.00    +0.021 A 
ATOM     28  C   UNL     1       8.124  -3.483  26.269  0.00  0.00    +0.065 A 
ATOM     29  C   UNL     1       6.797  -3.151  26.559  0.00  0.00    +0.016 A 
ATOM     30  C   UNL     1       6.345  -1.845  26.362  0.00  0.00    +0.001 A 
ATOM     31  C   UNL     1       7.212  -0.870  25.867  0.00  0.00    +0.005 A 
BRANCH  28  32
ATOM     32  C   UNL     1       8.569  -4.905  26.419  0.00  0.00    +0.308 C 
ATOM     33  N   UNL     1       8.001  -5.741  27.235  0.00  0.00    -0.099 NA
ATOM     34  H   UNL     1       7.218  -5.283  27.717  0.00  0.00    +0.363 HD
ATOM     35  N   UNL     1       9.629  -5.376  25.699  0.00  0.00    -0.247 N 
ATOM     36  H   UNL     1       9.656  -6.391  25.688  0.00  0.00    +0.288 HD
ATOM     37  H   UNL     1       9.750  -4.984  24.771  0.00  0.00    +0.288 HD
ENDBRANCH  28  32
ENDBRANCH  25  26
ENDBRANCH   2  25
BRANCH   6  38
ATOM     38  O   UNL     1       7.542   5.857  23.012  0.00  0.00    -0.487 OA
BRANCH  38  39
ATOM     39  C   UNL     1       6.684   6.340  24.055  0.00  0.00    +0.264 C 
BRANCH  39  40
ATOM     40  C   UNL     1       5.303   5.761  23.894  0.00  0.00    -0.010 A 
ATOM     41  C   UNL     1       4.776   4.914  24.880  0.00  0.00    +0.007 A 
ATOM     42  C   UNL     1       3.510   4.351  24.728  0.00  0.00    +0.000 A 
ATOM     43  C   UNL     1       2.761   4.619  23.584  0.00  0.00    +0.000 A 
ATOM     44  C   UNL     1       3.282   5.443  22.587  0.00  0.00    +0.000 A 
ATOM     45  C   UNL     1       4.550   6.008  22.738  0.00  0.00    +0.007 A 
ENDBRANCH  39  40
ENDBRANCH  38  39
ENDBRANCH   6  38
TORSDOF 10
ENDMDL
MODEL 4
REMARK VINA RESULT:      -7.6      1.284      2.054
REMARK  Name = 
REMARK  13 active torsions:
REMARK  status: ('A' for Active; 'I' for Inactive)
REMARK    1  A    between atoms: C_1  and  N_2
REMARK    2  A    between atoms: N_2  and  C_3
REMARK    3  A    between atoms: N_2  and  C_4
REMARK    4  A    between atoms: N_2  and  C_5
REMARK    5  A    between atoms: C_8  and  C_9
REMARK    6  A    between atoms: C_9  and  N_10
REMARK    7  A    between atoms: C_11  and  C_13
REMARK    8  A    between atoms: C_19  and  O_20
REMARK    9  A    between atoms: O_20  and  C_21
REMARK   10  A    between atoms: C_21  and  C_22
REMARK   11  A    between atoms: N_29  and  C_30
REMARK   12  A    between atoms: C_30  and  C_31
REMARK   13  A    between atoms: C_35  and  C_37
REMARK                            x       y       z     vdW  Elec       q    Type
REMARK                         _______ _______ _______ _____ _____    ______ ____
ROOT
ATOM      1  C   UNL     1       7.950  -3.624  23.069  0.00  0.00    +0.106 A 
ATOM      2  N   UNL     1       8.708  -3.134  24.133  0.00  0.00    -0.332 N 
ATOM      3  C   UNL     1       9.217  -1.878  23.815  0.00  0.00    +0.050 A 
ATOM      4  C   UNL     1      10.120  -1.026  24.475  0.00  0.00    +0.030 A 
ATOM      5  C   UNL     1      10.346   0.249  23.928  0.00  0.00    +0.048 A 
ATOM      6  C   UNL     1       9.694   0.668  22.771  0.00  0.00    +0.122 A 
ATOM      7  C   UNL     1       8.875  -0.221  22.079  0.00  0.00    +0.055 A 
ATOM      8  C   UNL     1       8.629  -1.497  22.613  0.00  0.00    +0.004 A 
ATOM      9  C   UNL     1       7.849  -2.579  22.162  0.00  0.00    +0.041 A 
ENDROOT
BRANCH   1  12
ATOM     10  N   UNL     1       6.027  -5.000  23.350  0.00  0.00    -0.306 N 
ATOM     11  H   UNL     1       5.525  -4.136  23.488  0.00  0.00    +0.149 HD
ATOM     12  C   UNL     1       7.355  -4.945  22.965  0.00  0.00    +0.261 C 
ATOM     13  O   UNL     1       7.956  -5.948  22.596  0.00  0.00    -0.269 OA
BRANCH  10  14
ATOM     14  C   UNL     1       5.251  -6.210  23.328  0.00  0.00    +0.140 C 
BRANCH  14  18
ATOM     15  C   UNL     1       2.114  -5.933  26.231  0.00  0.00    +0.145 A 
ATOM     16  C   UNL     1       2.353  -4.844  25.394  0.00  0.00    +0.072 A 
ATOM     17  C   UNL     1       3.280  -4.953  24.358  0.00  0.00    +0.011 A 
ATOM     18  C   UNL     1       3.968  -6.151  24.129  0.00  0.00    -0.030 A 
ATOM     19  C   UNL     1       3.551  -7.293  24.822  0.00  0.00    +0.011 A 
ATOM     20  C   UNL     1       2.607  -7.189  25.848  0.00  0.00    +0.072 A 
BRANCH  15  22
ATOM     21  C   UNL     1       2.547  -5.971  28.718  0.00  0.00    +0.360 C 
ATOM     22  N   UNL     1       1.507  -5.752  27.608  0.00  0.00    -0.383 NA
ATOM     23  C   UNL     1       0.446  -6.843  27.807  0.00  0.00    +0.360 C 
ATOM     24  C   UNL     1       0.933  -4.358  27.720  0.00  0.00    +0.360 C 
ENDBRANCH  15  22
ENDBRANCH  14  18
ENDBRANCH  10  14
ENDBRANCH   1  12
BRANCH   2  25
ATOM     25  C   UNL     1       8.949  -3.823  25.406  0.00  0.00    +0.157 C 
BRANCH  25  26
ATOM     26  C   UNL     1       7.694  -3.928  26.256  0.00  0.00    -0.027 A 
ATOM     27  C   UNL     1       7.516  -5.001  27.151  0.00  0.00    +0.021 A 
ATOM     28  C   UNL     1       6.346  -5.114  27.918  0.00  0.00    +0.065 A 
ATOM     29  C   UNL     1       5.370  -4.117  27.838  0.00  0.00    +0.016 A 
ATOM     30  C   UNL     1       5.549  -3.030  26.980  0.00  0.00    +0.001 A 
ATOM     31  C   UNL     1       6.698  -2.941  26.192  0.00  0.00    +0.005 A 
BRANCH  28  32
ATOM     32  C   UNL     1       6.102  -6.307  28.790  0.00  0.00    +0.308 C 
ATOM     33  N   UNL     1       6.373  -6.319  30.061  0.00  0.00    -0.099 NA
ATOM     34  H   UNL     1       6.744  -5.406  30.350  0.00  0.00    +0.363 HD
ATOM     35  N   UNL     1       5.592  -7.457  28.261  0.00  0.00    -0.247 N 
ATOM     36  H   UNL     1       5.232  -8.075  28.981  0.00  0.00    +0.288 HD
ATOM     37  H   UNL     1       4.938  -7.346  27.494  0.00  0.00    +0.288 HD
ENDBRANCH  28  32
ENDBRANCH  25  26
ENDBRANCH   2  25
BRANCH   6  38
ATOM     38  O   UNL     1       9.916   1.965  22.385  0.00  0.00    -0.487 OA
BRANCH  38  39
ATOM     39  C   UNL     1      10.836   2.687  23.214  0.00  0.00    +0.264 C 
BRANCH  39  40
ATOM     40  C   UNL     1      10.239   4.012  23.611  0.00  0.00    -0.010 A 
ATOM     41  C   UNL     1       8.861   4.120  23.845  0.00  0.00    +0.007 A 
ATOM     42  C   UNL     1       8.295   5.348  24.187  0.00  0.00    +0.000 A 
ATOM     43  C   UNL     1       9.098   6.482  24.288  0.00  0.00    +0.000 A 
ATOM     44  C   UNL     1      10.467   6.391  24.037  0.00  0.00    +0.000 A 
ATOM     45  C   UNL     1      11.035   5.162  23.694  0.00  0.00    +0.007 A 
ENDBRANCH  39  40
ENDBRANCH  38  39
ENDBRANCH   6  38
TORSDOF 10
ENDMDL
MODEL 5
REMARK VINA RESULT:      -7.5      2.930      9.728
REMARK  Name = 
REMARK  13 active torsions:
REMARK  status: ('A' for Active; 'I' for Inactive)
REMARK    1  A    between atoms: C_1  and  N_2
REMARK    2  A    between atoms: N_2  and  C_3
REMARK    3  A    between atoms: N_2  and  C_4
REMARK    4  A    between atoms: N_2  and  C_5
REMARK    5  A    between atoms: C_8  and  C_9
REMARK    6  A    between atoms: C_9  and  N_10
REMARK    7  A    between atoms: C_11  and  C_13
REMARK    8  A    between atoms: C_19  and  O_20
REMARK    9  A    between atoms: O_20  and  C_21
REMARK   10  A    between atoms: C_21  and  C_22
REMARK   11  A    between atoms: N_29  and  C_30
REMARK   12  A    between atoms: C_30  and  C_31
REMARK   13  A    between atoms: C_35  and  C_37
REMARK                            x       y       z     vdW  Elec       q    Type
REMARK                         _______ _______ _______ _____ _____    ______ ____
ROOT
ATOM      1  C   UNL     1       8.909  -2.533  24.327  0.00  0.00    +0.106 A 
ATOM      2  N   UNL     1       7.624  -2.705  23.814  0.00  0.00    -0.332 N 
ATOM      3  C   UNL     1       7.010  -3.795  24.424  0.00  0.00    +0.050 A 
ATOM      4  C   UNL     1       5.789  -4.450  24.188  0.00  0.00    +0.030 A 
ATOM      5  C   UNL     1       5.405  -5.472  25.073  0.00  0.00    +0.048 A 
ATOM      6  C   UNL     1       6.200  -5.827  26.161  0.00  0.00    +0.122 A 
ATOM      7  C   UNL     1       7.448  -5.231  26.327  0.00  0.00    +0.055 A 
ATOM      8  C   UNL     1       7.847  -4.202  25.458  0.00  0.00    +0.004 A 
ATOM      9  C   UNL     1       9.015  -3.418  25.390  0.00  0.00    +0.041 A 
ENDROOT
BRANCH   1  12
ATOM     10  N   UNL     1       9.983  -0.427  24.619  0.00  0.00    -0.306 N 
ATOM     11  H   UNL     1       9.505  -0.394  25.506  0.00  0.00    +0.149 HD
ATOM     12  C   UNL     1       9.908  -1.585  23.864  0.00  0.00    +0.261 C 
ATOM     13  O   UNL     1      10.621  -1.756  22.881  0.00  0.00    -0.269 OA
BRANCH  10  14
ATOM     14  C   UNL     1      10.901   0.641  24.331  0.00  0.00    +0.140 C 
BRANCH  14  18
ATOM     15  C   UNL     1       9.448   4.669  24.418  0.00  0.00    +0.145 A 
ATOM     16  C   UNL     1      10.451   4.336  23.509  0.00  0.00    +0.072 A 
ATOM     17  C   UNL     1      10.852   3.008  23.371  0.00  0.00    +0.011 A 
ATOM     18  C   UNL     1      10.249   1.992  24.121  0.00  0.00    -0.030 A 
ATOM     19  C   UNL     1       9.096   2.306  24.849  0.00  0.00    +0.011 A 
ATOM     20  C   UNL     1       8.681   3.634  24.973  0.00  0.00    +0.072 A 
BRANCH  15  22
ATOM     21  C   UNL     1       8.605   6.998  23.926  0.00  0.00    +0.360 C 
ATOM     22  N   UNL     1       9.298   6.082  24.947  0.00  0.00    -0.383 NA
ATOM     23  C   UNL     1      10.704   6.665  25.147  0.00  0.00    +0.360 C 
ATOM     24  C   UNL     1       8.494   6.052  26.227  0.00  0.00    +0.360 C 
ENDBRANCH  15  22
ENDBRANCH  14  18
ENDBRANCH  10  14
ENDBRANCH   1  12
BRANCH   2  25
ATOM     25  C   UNL     1       6.993  -1.876  22.780  0.00  0.00    +0.157 C 
BRANCH  25  26
ATOM     26  C   UNL     1       6.506  -0.543  23.323  0.00  0.00    -0.027 A 
ATOM     27  C   UNL     1       6.591   0.628  22.545  0.00  0.00    +0.021 A 
ATOM     28  C   UNL     1       6.166   1.865  23.055  0.00  0.00    +0.065 A 
ATOM     29  C   UNL     1       5.592   1.926  24.328  0.00  0.00    +0.016 A 
ATOM     30  C   UNL     1       5.470   0.767  25.096  0.00  0.00    +0.001 A 
ATOM     31  C   UNL     1       5.929  -0.455  24.599  0.00  0.00    +0.005 A 
BRANCH  28  32
ATOM     32  C   UNL     1       6.353   3.131  22.277  0.00  0.00    +0.308 C 
ATOM     33  N   UNL     1       5.417   4.023  22.144  0.00  0.00    -0.099 NA
ATOM     34  H   UNL     1       4.578   3.730  22.659  0.00  0.00    +0.363 HD
ATOM     35  N   UNL     1       7.537   3.387  21.648  0.00  0.00    -0.247 N 
ATOM     36  H   UNL     1       7.625   4.365  21.394  0.00  0.00    +0.288 HD
ATOM     37  H   UNL     1       8.373   3.037  22.106  0.00  0.00    +0.288 HD
ENDBRANCH  28  32
ENDBRANCH  25  26
ENDBRANCH   2  25
BRANCH   6  38
ATOM     38  O   UNL     1       5.680  -6.767  27.013  0.00  0.00    -0.487 OA
BRANCH  38  39
ATOM     39  C   UNL     1       5.574  -6.343  28.378  0.00  0.00    +0.264 C 
BRANCH  39  40
ATOM     40  C   UNL     1       4.377  -5.444  28.546  0.00  0.00    -0.010 A 
ATOM     41  C   UNL     1       3.100  -5.898  28.185  0.00  0.00    +0.007 A 
ATOM     42  C   UNL     1       1.990  -5.063  28.311  0.00  0.00    +0.000 A 
ATOM     43  C   UNL     1       2.145  -3.764  28.790  0.00  0.00    +0.000 A 
ATOM     44  C   UNL     1       3.413  -3.295  29.133  0.00  0.00    +0.000 A 
ATOM     45  C   UNL     1       4.526  -4.129  29.007  0.00  0.00    +0.007 A 
ENDBRANCH  39  40
ENDBRANCH  38  39
ENDBRANCH   6  38
TORSDOF 10
ENDMDL
MODEL 6
REMARK VINA RESULT:      -7.3      1.741      3.479
REMARK  Name = 
REMARK  13 active torsions:
REMARK  status: ('A' for Active; 'I' for Inactive)
REMARK    1  A    between atoms: C_1  and  N_2
REMARK    2  A    between atoms: N_2  and  C_3
REMARK    3  A    between atoms: N_2  and  C_4
REMARK    4  A    between atoms: N_2  and  C_5
REMARK    5  A    between atoms: C_8  and  C_9
REMARK    6  A    between atoms: C_9  and  N_10
REMARK    7  A    between atoms: C_11  and  C_13
REMARK    8  A    between atoms: C_19  and  O_20
REMARK    9  A    between atoms: O_20  and  C_21
REMARK   10  A    between atoms: C_21  and  C_22
REMARK   11  A    between atoms: N_29  and  C_30
REMARK   12  A    between atoms: C_30  and  C_31
REMARK   13  A    between atoms: C_35  and  C_37
REMARK                            x       y       z     vdW  Elec       q    Type
REMARK                         _______ _______ _______ _____ _____    ______ ____
ROOT
ATOM      1  C   UNL     1       8.027  -3.188  26.085  0.00  0.00    +0.106 A 
ATOM      2  N   UNL     1       8.461  -3.453  24.787  0.00  0.00    -0.332 N 
ATOM      3  C   UNL     1       8.723  -2.259  24.120  0.00  0.00    +0.050 A 
ATOM      4  C   UNL     1       9.060  -1.972  22.785  0.00  0.00    +0.030 A 
ATOM      5  C   UNL     1       9.371  -0.643  22.453  0.00  0.00    +0.048 A 
ATOM      6  C   UNL     1       9.356   0.367  23.412  0.00  0.00    +0.122 A 
ATOM      7  C   UNL     1       8.931   0.083  24.708  0.00  0.00    +0.055 A 
ATOM      8  C   UNL     1       8.624  -1.241  25.063  0.00  0.00    +0.004 A 
ATOM      9  C   UNL     1       8.195  -1.824  26.271  0.00  0.00    +0.041 A 
ENDROOT
BRANCH   1  12
ATOM     10  N   UNL     1       6.251  -3.928  27.489  0.00  0.00    -0.306 N 
ATOM     11  H   UNL     1       5.685  -3.254  26.996  0.00  0.00    +0.149 HD
ATOM     12  C   UNL     1       7.544  -4.158  27.052  0.00  0.00    +0.261 C 
ATOM     13  O   UNL     1       8.207  -5.096  27.482  0.00  0.00    -0.269 OA
BRANCH  10  14
ATOM     14  C   UNL     1       5.583  -4.765  28.448  0.00  0.00    +0.140 C 
BRANCH  14  18
ATOM     15  C   UNL     1       2.807  -7.372  26.487  0.00  0.00    +0.145 A 
ATOM     16  C   UNL     1       4.030  -7.107  25.872  0.00  0.00    +0.072 A 
ATOM     17  C   UNL     1       5.001  -6.367  26.544  0.00  0.00    +0.011 A 
ATOM     18  C   UNL     1       4.777  -5.896  27.843  0.00  0.00    -0.030 A 
ATOM     19  C   UNL     1       3.650  -6.363  28.529  0.00  0.00    +0.011 A 
ATOM     20  C   UNL     1       2.685  -7.122  27.862  0.00  0.00    +0.072 A 
BRANCH  15  22
ATOM     21  C   UNL     1       1.958  -8.359  24.324  0.00  0.00    +0.360 C 
ATOM     22  N   UNL     1       1.578  -7.739  25.678  0.00  0.00    -0.383 NA
ATOM     23  C   UNL     1       0.822  -6.445  25.349  0.00  0.00    +0.360 C 
ATOM     24  C   UNL     1       0.739  -8.719  26.466  0.00  0.00    +0.360 C 
ENDBRANCH  15  22
ENDBRANCH  14  18
ENDBRANCH  10  14
ENDBRANCH   1  12
BRANCH   2  25
ATOM     25  C   UNL     1       8.623  -4.784  24.189  0.00  0.00    +0.157 C 
BRANCH  25  26
ATOM     26  C   UNL     1       7.418  -5.199  23.363  0.00  0.00    -0.027 A 
ATOM     27  C   UNL     1       6.125  -4.754  23.699  0.00  0.00    +0.021 A 
ATOM     28  C   UNL     1       5.006  -5.158  22.953  0.00  0.00    +0.065 A 
ATOM     29  C   UNL     1       5.183  -5.963  21.824  0.00  0.00    +0.016 A 
ATOM     30  C   UNL     1       6.464  -6.383  21.460  0.00  0.00    +0.001 A 
ATOM     31  C   UNL     1       7.569  -6.010  22.227  0.00  0.00    +0.005 A 
BRANCH  28  32
ATOM     32  C   UNL     1       3.618  -4.777  23.367  0.00  0.00    +0.308 C 
ATOM     33  N   UNL     1       2.554  -5.266  22.803  0.00  0.00    -0.099 NA
ATOM     34  H   UNL     1       2.821  -5.941  22.077  0.00  0.00    +0.363 HD
ATOM     35  N   UNL     1       3.419  -3.865  24.363  0.00  0.00    -0.247 N 
ATOM     36  H   UNL     1       2.470  -3.897  24.720  0.00  0.00    +0.288 HD
ATOM     37  H   UNL     1       4.106  -3.859  25.109  0.00  0.00    +0.288 HD
ENDBRANCH  28  32
ENDBRANCH  25  26
ENDBRANCH   2  25
BRANCH   6  38
ATOM     38  O   UNL     1       9.773   1.605  22.997  0.00  0.00    -0.487 OA
BRANCH  38  39
ATOM     39  C   UNL     1       9.238   2.701  23.750  0.00  0.00    +0.264 C 
BRANCH  39  40
ATOM     40  C   UNL     1      10.203   3.858  23.730  0.00  0.00    -0.010 A 
ATOM     41  C   UNL     1      11.539   3.654  23.354  0.00  0.00    +0.007 A 
ATOM     42  C   UNL     1      12.446   4.713  23.358  0.00  0.00    +0.000 A 
ATOM     43  C   UNL     1      12.030   5.985  23.747  0.00  0.00    +0.000 A 
ATOM     44  C   UNL     1      10.709   6.196  24.142  0.00  0.00    +0.000 A 
ATOM     45  C   UNL     1       9.800   5.137  24.139  0.00  0.00    +0.007 A 
ENDBRANCH  39  40
ENDBRANCH  38  39
ENDBRANCH   6  38
TORSDOF 10
ENDMDL
MODEL 7
REMARK VINA RESULT:      -7.3      1.862      3.283
REMARK  Name = 
REMARK  13 active torsions:
REMARK  status: ('A' for Active; 'I' for Inactive)
REMARK    1  A    between atoms: C_1  and  N_2
REMARK    2  A    between atoms: N_2  and  C_3
REMARK    3  A    between atoms: N_2  and  C_4
REMARK    4  A    between atoms: N_2  and  C_5
REMARK    5  A    between atoms: C_8  and  C_9
REMARK    6  A    between atoms: C_9  and  N_10
REMARK    7  A    between atoms: C_11  and  C_13
REMARK    8  A    between atoms: C_19  and  O_20
REMARK    9  A    between atoms: O_20  and  C_21
REMARK   10  A    between atoms: C_21  and  C_22
REMARK   11  A    between atoms: N_29  and  C_30
REMARK   12  A    between atoms: C_30  and  C_31
REMARK   13  A    between atoms: C_35  and  C_37
REMARK                            x       y       z     vdW  Elec       q    Type
REMARK                         _______ _______ _______ _____ _____    ______ ____
ROOT
ATOM      1  C   UNL     1       8.601  -2.235  24.737  0.00  0.00    +0.106 A 
ATOM      2  N   UNL     1       8.151  -1.692  23.534  0.00  0.00    -0.332 N 
ATOM      3  C   UNL     1       7.980  -0.317  23.667  0.00  0.00    +0.050 A 
ATOM      4  C   UNL     1       7.444   0.659  22.809  0.00  0.00    +0.030 A 
ATOM      5  C   UNL     1       7.520   2.004  23.209  0.00  0.00    +0.048 A 
ATOM      6  C   UNL     1       8.114   2.370  24.415  0.00  0.00    +0.122 A 
ATOM      7  C   UNL     1       8.557   1.385  25.294  0.00  0.00    +0.055 A 
ATOM      8  C   UNL     1       8.498   0.035  24.909  0.00  0.00    +0.004 A 
ATOM      9  C   UNL     1       8.878  -1.154  25.561  0.00  0.00    +0.041 A 
ENDROOT
BRANCH   1  12
ATOM     10  N   UNL     1       7.807  -4.178  25.863  0.00  0.00    -0.306 N 
ATOM     11  H   UNL     1       6.972  -3.640  26.039  0.00  0.00    +0.149 HD
ATOM     12  C   UNL     1       8.782  -3.645  25.039  0.00  0.00    +0.261 C 
ATOM     13  O   UNL     1       9.720  -4.323  24.634  0.00  0.00    -0.269 OA
BRANCH  10  14
ATOM     14  C   UNL     1       7.800  -5.552  26.286  0.00  0.00    +0.140 C 
BRANCH  14  18
ATOM     15  C   UNL     1       3.996  -6.013  28.200  0.00  0.00    +0.145 A 
ATOM     16  C   UNL     1       4.130  -6.401  26.868  0.00  0.00    +0.072 A 
ATOM     17  C   UNL     1       5.384  -6.381  26.260  0.00  0.00    +0.011 A 
ATOM     18  C   UNL     1       6.524  -5.994  26.972  0.00  0.00    -0.030 A 
ATOM     19  C   UNL     1       6.413  -5.833  28.358  0.00  0.00    +0.011 A 
ATOM     20  C   UNL     1       5.159  -5.872  28.973  0.00  0.00    +0.072 A 
BRANCH  15  22
ATOM     21  C   UNL     1       1.950  -6.715  29.502  0.00  0.00    +0.360 C 
ATOM     22  N   UNL     1       2.661  -5.570  28.764  0.00  0.00    -0.383 NA
ATOM     23  C   UNL     1       1.748  -5.199  27.587  0.00  0.00    +0.360 C 
ATOM     24  C   UNL     1       2.881  -4.415  29.715  0.00  0.00    +0.360 C 
ENDBRANCH  15  22
ENDBRANCH  14  18
ENDBRANCH  10  14
ENDBRANCH   1  12
BRANCH   2  25
ATOM     25  C   UNL     1       7.886  -2.440  22.299  0.00  0.00    +0.157 C 
BRANCH  25  26
ATOM     26  C   UNL     1       6.819  -3.506  22.484  0.00  0.00    -0.027 A 
ATOM     27  C   UNL     1       5.629  -3.223  23.183  0.00  0.00    +0.021 A 
ATOM     28  C   UNL     1       4.653  -4.213  23.378  0.00  0.00    +0.065 A 
ATOM     29  C   UNL     1       4.837  -5.482  22.819  0.00  0.00    +0.016 A 
ATOM     30  C   UNL     1       5.996  -5.765  22.095  0.00  0.00    +0.001 A 
ATOM     31  C   UNL     1       6.980  -4.788  21.936  0.00  0.00    +0.005 A 
BRANCH  28  32
ATOM     32  C   UNL     1       3.437  -3.952  24.211  0.00  0.00    +0.308 C 
ATOM     33  N   UNL     1       3.396  -3.038  25.134  0.00  0.00    -0.099 NA
ATOM     34  H   UNL     1       4.293  -2.539  25.173  0.00  0.00    +0.363 HD
ATOM     35  N   UNL     1       2.307  -4.698  24.037  0.00  0.00    -0.247 N 
ATOM     36  H   UNL     1       1.495  -4.256  24.457  0.00  0.00    +0.288 HD
ATOM     37  H   UNL     1       2.119  -5.013  23.091  0.00  0.00    +0.288 HD
ENDBRANCH  28  32
ENDBRANCH  25  26
ENDBRANCH   2  25
BRANCH   6  38
ATOM     38  O   UNL     1       8.220   3.716  24.655  0.00  0.00    -0.487 OA
BRANCH  38  39
ATOM     39  C   UNL     1       8.691   4.487  23.542  0.00  0.00    +0.264 C 
BRANCH  39  40
ATOM     40  C   UNL     1       9.955   5.215  23.918  0.00  0.00    -0.010 A 
ATOM     41  C   UNL     1      11.190   4.789  23.407  0.00  0.00    +0.007 A 
ATOM     42  C   UNL     1      12.369   5.439  23.771  0.00  0.00    +0.000 A 
ATOM     43  C   UNL     1      12.328   6.515  24.656  0.00  0.00    +0.000 A 
ATOM     44  C   UNL     1      11.108   6.934  25.187  0.00  0.00    +0.000 A 
ATOM     45  C   UNL     1       9.927   6.284  24.824  0.00  0.00    +0.007 A 
ENDBRANCH  39  40
ENDBRANCH  38  39
ENDBRANCH   6  38
TORSDOF 10
ENDMDL
MODEL 8
REMARK VINA RESULT:      -7.1      2.544      9.537
REMARK  Name = 
REMARK  13 active torsions:
REMARK  status: ('A' for Active; 'I' for Inactive)
REMARK    1  A    between atoms: C_1  and  N_2
REMARK    2  A    between atoms: N_2  and  C_3
REMARK    3  A    between atoms: N_2  and  C_4
REMARK    4  A    between atoms: N_2  and  C_5
REMARK    5  A    between atoms: C_8  and  C_9
REMARK    6  A    between atoms: C_9  and  N_10
REMARK    7  A    between atoms: C_11  and  C_13
REMARK    8  A    between atoms: C_19  and  O_20
REMARK    9  A    between atoms: O_20  and  C_21
REMARK   10  A    between atoms: C_21  and  C_22
REMARK   11  A    between atoms: N_29  and  C_30
REMARK   12  A    between atoms: C_30  and  C_31
REMARK   13  A    between atoms: C_35  and  C_37
REMARK                            x       y       z     vdW  Elec       q    Type
REMARK                         _______ _______ _______ _____ _____    ______ ____
ROOT
ATOM      1  C   UNL     1       8.881  -2.585  24.307  0.00  0.00    +0.106 A 
ATOM      2  N   UNL     1       7.593  -2.715  23.790  0.00  0.00    -0.332 N 
ATOM      3  C   UNL     1       6.954  -3.804  24.376  0.00  0.00    +0.050 A 
ATOM      4  C   UNL     1       5.718  -4.426  24.125  0.00  0.00    +0.030 A 
ATOM      5  C   UNL     1       5.311  -5.460  24.986  0.00  0.00    +0.048 A 
ATOM      6  C   UNL     1       6.098  -5.858  26.064  0.00  0.00    +0.122 A 
ATOM      7  C   UNL     1       7.359  -5.295  26.244  0.00  0.00    +0.055 A 
ATOM      8  C   UNL     1       7.781  -4.255  25.399  0.00  0.00    +0.004 A 
ATOM      9  C   UNL     1       8.967  -3.496  25.349  0.00  0.00    +0.041 A 
ENDROOT
BRANCH   1  12
ATOM     10  N   UNL     1      10.007  -0.514  24.652  0.00  0.00    -0.306 N 
ATOM     11  H   UNL     1       9.532  -0.493  25.542  0.00  0.00    +0.149 HD
ATOM     12  C   UNL     1       9.902  -1.648  23.867  0.00  0.00    +0.261 C 
ATOM     13  O   UNL     1      10.607  -1.810  22.877  0.00  0.00    -0.269 OA
BRANCH  10  14
ATOM     14  C   UNL     1      10.949   0.540  24.389  0.00  0.00    +0.140 C 
BRANCH  14  18
ATOM     15  C   UNL     1       9.533   4.581  24.295  0.00  0.00    +0.145 A 
ATOM     16  C   UNL     1      10.581   4.216  23.452  0.00  0.00    +0.072 A 
ATOM     17  C   UNL     1      10.976   2.882  23.369  0.00  0.00    +0.011 A 
ATOM     18  C   UNL     1      10.323   1.890  24.110  0.00  0.00    -0.030 A 
ATOM     19  C   UNL     1       9.135   2.232  24.766  0.00  0.00    +0.011 A 
ATOM     20  C   UNL     1       8.727   3.567  24.833  0.00  0.00    +0.072 A 
BRANCH  15  22
ATOM     21  C   UNL     1       8.558   6.072  26.084  0.00  0.00    +0.360 C 
ATOM     22  N   UNL     1       9.368   6.008  24.780  0.00  0.00    -0.383 NA
ATOM     23  C   UNL     1       8.544   6.772  23.735  0.00  0.00    +0.360 C 
ATOM     24  C   UNL     1      10.734   6.618  25.002  0.00  0.00    +0.360 C 
ENDBRANCH  15  22
ENDBRANCH  14  18
ENDBRANCH  10  14
ENDBRANCH   1  12
BRANCH   2  25
ATOM     25  C   UNL     1       6.981  -1.847  22.777  0.00  0.00    +0.157 C 
BRANCH  25  26
ATOM     26  C   UNL     1       6.467  -0.544  23.363  0.00  0.00    -0.027 A 
ATOM     27  C   UNL     1       5.896  -0.506  24.650  0.00  0.00    +0.021 A 
ATOM     28  C   UNL     1       5.396   0.692  25.183  0.00  0.00    +0.065 A 
ATOM     29  C   UNL     1       5.521   1.878  24.452  0.00  0.00    +0.016 A 
ATOM     30  C   UNL     1       6.116   1.861  23.189  0.00  0.00    +0.001 A 
ATOM     31  C   UNL     1       6.578   0.660  22.648  0.00  0.00    +0.005 A 
BRANCH  28  32
ATOM     32  C   UNL     1       4.691   0.720  26.503  0.00  0.00    +0.308 C 
ATOM     33  N   UNL     1       3.399   0.637  26.616  0.00  0.00    -0.099 NA
ATOM     34  H   UNL     1       2.972   0.531  25.688  0.00  0.00    +0.363 HD
ATOM     35  N   UNL     1       5.399   0.859  27.662  0.00  0.00    -0.247 N 
ATOM     36  H   UNL     1       4.848   0.598  28.474  0.00  0.00    +0.288 HD
ATOM     37  H   UNL     1       6.321   0.436  27.677  0.00  0.00    +0.288 HD
ENDBRANCH  28  32
ENDBRANCH  25  26
ENDBRANCH   2  25
BRANCH   6  38
ATOM     38  O   UNL     1       5.556  -6.806  26.893  0.00  0.00    -0.487 OA
BRANCH  38  39
ATOM     39  C   UNL     1       5.487  -6.424  28.274  0.00  0.00    +0.264 C 
BRANCH  39  40
ATOM     40  C   UNL     1       4.342  -5.468  28.486  0.00  0.00    -0.010 A 
ATOM     41  C   UNL     1       4.582  -4.190  29.012  0.00  0.00    +0.007 A 
ATOM     42  C   UNL     1       3.526  -3.307  29.237  0.00  0.00    +0.000 A 
ATOM     43  C   UNL     1       2.219  -3.696  28.948  0.00  0.00    +0.000 A 
ATOM     44  C   UNL     1       1.967  -4.972  28.445  0.00  0.00    +0.000 A 
ATOM     45  C   UNL     1       3.022  -5.856  28.219  0.00  0.00    +0.007 A 
ENDBRANCH  39  40
ENDBRANCH  38  39
ENDBRANCH   6  38
TORSDOF 10
ENDMDL
MODEL 9
REMARK VINA RESULT:      -7.0      2.207      3.868
REMARK  Name = 
REMARK  13 active torsions:
REMARK  status: ('A' for Active; 'I' for Inactive)
REMARK    1  A    between atoms: C_1  and  N_2
REMARK    2  A    between atoms: N_2  and  C_3
REMARK    3  A    between atoms: N_2  and  C_4
REMARK    4  A    between atoms: N_2  and  C_5
REMARK    5  A    between atoms: C_8  and  C_9
REMARK    6  A    between atoms: C_9  and  N_10
REMARK    7  A    between atoms: C_11  and  C_13
REMARK    8  A    between atoms: C_19  and  O_20
REMARK    9  A    between atoms: O_20  and  C_21
REMARK   10  A    between atoms: C_21  and  C_22
REMARK   11  A    between atoms: N_29  and  C_30
REMARK   12  A    between atoms: C_30  and  C_31
REMARK   13  A    between atoms: C_35  and  C_37
REMARK                            x       y       z     vdW  Elec       q    Type
REMARK                         _______ _______ _______ _____ _____    ______ ____
ROOT
ATOM      1  C   UNL     1       7.611  -0.150  25.300  0.00  0.00    +0.106 A 
ATOM      2  N   UNL     1       8.319  -0.009  24.107  0.00  0.00    -0.332 N 
ATOM      3  C   UNL     1       7.925   1.156  23.455  0.00  0.00    +0.050 A 
ATOM      4  C   UNL     1       8.235   1.686  22.190  0.00  0.00    +0.030 A 
ATOM      5  C   UNL     1       7.747   2.965  21.872  0.00  0.00    +0.048 A 
ATOM      6  C   UNL     1       6.983   3.696  22.778  0.00  0.00    +0.122 A 
ATOM      7  C   UNL     1       6.608   3.119  23.989  0.00  0.00    +0.055 A 
ATOM      8  C   UNL     1       7.092   1.846  24.330  0.00  0.00    +0.004 A 
ATOM      9  C   UNL     1       6.905   1.033  25.465  0.00  0.00    +0.041 A 
ENDROOT
BRANCH   1  12
ATOM     10  N   UNL     1       6.596  -2.173  26.043  0.00  0.00    -0.306 N 
ATOM     11  H   UNL     1       6.004  -2.083  25.230  0.00  0.00    +0.149 HD
ATOM     12  C   UNL     1       7.648  -1.289  26.202  0.00  0.00    +0.261 C 
ATOM     13  O   UNL     1       8.511  -1.467  27.055  0.00  0.00    -0.269 OA
BRANCH  10  14
ATOM     14  C   UNL     1       6.440  -3.362  26.835  0.00  0.00    +0.140 C 
BRANCH  14  18
ATOM     15  C   UNL     1       3.509  -6.259  25.667  0.00  0.00    +0.145 A 
ATOM     16  C   UNL     1       3.571  -5.048  24.978  0.00  0.00    +0.072 A 
ATOM     17  C   UNL     1       4.594  -4.143  25.252  0.00  0.00    +0.011 A 
ATOM     18  C   UNL     1       5.580  -4.435  26.201  0.00  0.00    -0.030 A 
ATOM     19  C   UNL     1       5.639  -5.737  26.710  0.00  0.00    +0.011 A 
ATOM     20  C   UNL     1       4.625  -6.653  26.421  0.00  0.00    +0.072 A 
BRANCH  15  22
ATOM     21  C   UNL     1       1.044  -6.291  25.125  0.00  0.00    +0.360 C 
ATOM     22  N   UNL     1       2.219  -7.048  25.765  0.00  0.00    -0.383 NA
ATOM     23  C   UNL     1       1.864  -7.195  27.250  0.00  0.00    +0.360 C 
ATOM     24  C   UNL     1       2.397  -8.381  25.075  0.00  0.00    +0.360 C 
ENDBRANCH  15  22
ENDBRANCH  14  18
ENDBRANCH  10  14
ENDBRANCH   1  12
BRANCH   2  25
ATOM     25  C   UNL     1       9.331  -0.940  23.593  0.00  0.00    +0.157 C 
BRANCH  25  26
ATOM     26  C   UNL     1       8.848  -2.380  23.594  0.00  0.00    -0.027 A 
ATOM     27  C   UNL     1       7.814  -2.796  22.733  0.00  0.00    +0.021 A 
ATOM     28  C   UNL     1       7.349  -4.120  22.751  0.00  0.00    +0.065 A 
ATOM     29  C   UNL     1       7.961  -5.056  23.591  0.00  0.00    +0.016 A 
ATOM     30  C   UNL     1       9.011  -4.665  24.424  0.00  0.00    +0.001 A 
ATOM     31  C   UNL     1       9.445  -3.338  24.430  0.00  0.00    +0.005 A 
BRANCH  28  32
ATOM     32  C   UNL     1       6.178  -4.543  21.918  0.00  0.00    +0.308 C 
ATOM     33  N   UNL     1       5.590  -3.751  21.073  0.00  0.00    -0.099 NA
ATOM     34  H   UNL     1       6.060  -2.837  21.063  0.00  0.00    +0.363 HD
ATOM     35  N   UNL     1       5.665  -5.803  22.037  0.00  0.00    -0.247 N 
ATOM     36  H   UNL     1       5.070  -6.043  21.251  0.00  0.00    +0.288 HD
ATOM     37  H   UNL     1       6.329  -6.540  22.248  0.00  0.00    +0.288 HD
ENDBRANCH  28  32
ENDBRANCH  25  26
ENDBRANCH   2  25
BRANCH   6  38
ATOM     38  O   UNL     1       6.645   4.970  22.399  0.00  0.00    -0.487 OA
BRANCH  38  39
ATOM     39  C   UNL     1       7.759   5.814  22.079  0.00  0.00    +0.264 C 
BRANCH  39  40
ATOM     40  C   UNL     1       8.508   6.174  23.335  0.00  0.00    -0.010 A 
ATOM     41  C   UNL     1       7.827   6.746  24.420  0.00  0.00    +0.007 A 
ATOM     42  C   UNL     1       8.516   7.107  25.578  0.00  0.00    +0.000 A 
ATOM     43  C   UNL     1       9.893   6.911  25.659  0.00  0.00    +0.000 A 
ATOM     44  C   UNL     1      10.584   6.363  24.578  0.00  0.00    +0.000 A 
ATOM     45  C   UNL     1       9.896   6.001  23.419  0.00  0.00    +0.007 A 
ENDBRANCH  39  40
ENDBRANCH  38  39
ENDBRANCH   6  38
TORSDOF 10
ENDMDL
