MODEL 1
REMARK VINA RESULT:      -6.1      0.000      0.000
REMARK  Name = 
REMARK  6 active torsions:
REMARK  status: ('A' for Active; 'I' for Inactive)
REMARK    1  A    between atoms: C_15  and  C_20
REMARK    2  A    between atoms: N_18  and  C_19
REMARK    3  A    between atoms: N_22  and  C_23
REMARK    4  A    between atoms: N_22  and  C_25
REMARK    5  A    between atoms: C_23  and  C_24
REMARK    6  A    between atoms: C_25  and  C_26
REMARK                            x       y       z     vdW  Elec       q    Type
REMARK                         _______ _______ _______ _____ _____    ______ ____
ROOT
ATOM      1  C   UNL     1       5.499  -1.517  24.946  0.00  0.00    +0.091 C 
ATOM      2  N   UNL     1       4.888  -0.297  25.554  0.00  0.00    -0.297 NA
ATOM      3  C   UNL     1       4.882  -0.325  27.028  0.00  0.00    +0.105 C 
ATOM      4  C   UNL     1       5.685   0.856  25.028  0.00  0.00    +0.101 C 
ATOM      5  C   UNL     1       7.236   0.636  24.946  0.00  0.00    +0.112 C 
ATOM      6  C   UNL     1       7.657  -0.600  25.737  0.00  0.00    -0.007 C 
ATOM      7  C   UNL     1       6.926  -1.717  25.522  0.00  0.00    -0.025 C 
ATOM      8  C   UNL     1       7.543  -3.063  25.478  0.00  0.00    -0.011 A 
ATOM      9  C   UNL     1       6.797  -3.958  24.698  0.00  0.00    +0.010 A 
ATOM     10  C   UNL     1       7.376  -5.072  24.120  0.00  0.00    +0.047 A 
ATOM     11  C   UNL     1       8.676  -5.463  24.447  0.00  0.00    +0.026 A 
ATOM     12  C   UNL     1       9.372  -4.655  25.366  0.00  0.00    +0.003 A 
ATOM     13  N   UNL     1       6.448  -5.546  23.216  0.00  0.00    -0.360 N 
ATOM     14  H   UNL     1       6.624  -6.283  22.549  0.00  0.00    +0.165 HD
ATOM     15  C   UNL     1       5.277  -4.816  23.297  0.00  0.00    +0.087 A 
ATOM     16  C   UNL     1       5.447  -3.873  24.282  0.00  0.00    -0.020 A 
ATOM     17  C   UNL     1       8.831  -3.453  25.851  0.00  0.00    +0.009 A 
ATOM     18  C   UNL     1       4.601  -2.783  24.863  0.00  0.00    +0.061 C 
ENDROOT
BRANCH   5  19
ATOM     19  C   UNL     1       7.754   0.385  23.459  0.00  0.00    +0.224 C 
ATOM     20  N   UNL     1       9.129   0.648  23.198  0.00  0.00    -0.301 N 
ATOM     21  O   UNL     1       7.014  -0.100  22.597  0.00  0.00    -0.275 OA
BRANCH  20  22
ATOM     22  C   UNL     1       9.826  -0.381  22.410  0.00  0.00    +0.104 C 
ATOM     23  C   UNL     1      10.188  -1.638  23.179  0.00  0.00    +0.024 C 
ENDBRANCH  20  22
BRANCH  20  24
ATOM     24  C   UNL     1       9.952   1.455  24.100  0.00  0.00    +0.104 C 
ATOM     25  C   UNL     1      10.563   2.723  23.545  0.00  0.00    +0.024 C 
ENDBRANCH  20  24
ENDBRANCH   5  19
TORSDOF 3
ENDMDL
MODEL 2
REMARK VINA RESULT:      -5.9      1.701      4.210
REMARK  Name = 
REMARK  6 active torsions:
REMARK  status: ('A' for Active; 'I' for Inactive)
REMARK    1  A    between atoms: C_15  and  C_20
REMARK    2  A    between atoms: N_18  and  C_19
REMARK    3  A    between atoms: N_22  and  C_23
REMARK    4  A    between atoms: N_22  and  C_25
REMARK    5  A    between atoms: C_23  and  C_24
REMARK    6  A    between atoms: C_25  and  C_26
REMARK                            x       y       z     vdW  Elec       q    Type
REMARK                         _______ _______ _______ _____ _____    ______ ____
ROOT
ATOM      1  C   UNL     1       9.040  -1.880  24.040  0.00  0.00    +0.091 C 
ATOM      2  N   UNL     1       9.579  -0.781  23.185  0.00  0.00    -0.297 NA
ATOM      3  C   UNL     1       9.330  -0.992  21.746  0.00  0.00    +0.105 C 
ATOM      4  C   UNL     1       8.927   0.471  23.680  0.00  0.00    +0.101 C 
ATOM      5  C   UNL     1       7.407   0.353  24.047  0.00  0.00    +0.112 C 
ATOM      6  C   UNL     1       6.811  -0.945  23.507  0.00  0.00    -0.007 C 
ATOM      7  C   UNL     1       7.528  -2.067  23.742  0.00  0.00    -0.025 C 
ATOM      8  C   UNL     1       6.881  -3.360  24.063  0.00  0.00    -0.011 A 
ATOM      9  C   UNL     1       7.717  -4.194  24.819  0.00  0.00    +0.010 A 
ATOM     10  C   UNL     1       7.207  -5.192  25.626  0.00  0.00    +0.047 A 
ATOM     11  C   UNL     1       5.857  -5.546  25.574  0.00  0.00    +0.026 A 
ATOM     12  C   UNL     1       5.042  -4.818  24.686  0.00  0.00    +0.003 A 
ATOM     13  N   UNL     1       8.259  -5.605  26.417  0.00  0.00    -0.360 N 
ATOM     14  H   UNL     1       8.175  -6.243  27.195  0.00  0.00    +0.165 HD
ATOM     15  C   UNL     1       9.424  -4.959  26.048  0.00  0.00    +0.087 A 
ATOM     16  C   UNL     1       9.121  -4.136  24.989  0.00  0.00    -0.020 A 
ATOM     17  C   UNL     1       5.534  -3.718  23.965  0.00  0.00    +0.009 A 
ATOM     18  C   UNL     1       9.892  -3.176  24.138  0.00  0.00    +0.061 C 
ENDROOT
BRANCH   5  19
ATOM     19  C   UNL     1       7.144   0.317  25.620  0.00  0.00    +0.224 C 
ATOM     20  N   UNL     1       5.878   0.780  26.077  0.00  0.00    -0.301 N 
ATOM     21  O   UNL     1       7.971  -0.174  26.395  0.00  0.00    -0.275 OA
BRANCH  20  22
ATOM     22  C   UNL     1       5.227  -0.069  27.088  0.00  0.00    +0.104 C 
ATOM     23  C   UNL     1       4.575  -1.326  26.543  0.00  0.00    +0.024 C 
ENDBRANCH  20  22
BRANCH  20  24
ATOM     24  C   UNL     1       4.998   1.595  25.238  0.00  0.00    +0.104 C 
ATOM     25  C   UNL     1       5.175   3.097  25.289  0.00  0.00    +0.024 C 
ENDBRANCH  20  24
ENDBRANCH   5  19
TORSDOF 3
ENDMDL
MODEL 3
REMARK VINA RESULT:      -5.9      1.859      6.066
REMARK  Name = 
REMARK  6 active torsions:
REMARK  status: ('A' for Active; 'I' for Inactive)
REMARK    1  A    between atoms: C_15  and  C_20
REMARK    2  A    between atoms: N_18  and  C_19
REMARK    3  A    between atoms: N_22  and  C_23
REMARK    4  A    between atoms: N_22  and  C_25
REMARK    5  A    between atoms: C_23  and  C_24
REMARK    6  A    between atoms: C_25  and  C_26
REMARK                            x       y       z     vdW  Elec       q    Type
REMARK                         _______ _______ _______ _____ _____    ______ ____
ROOT
ATOM      1  C   UNL     1       8.859  -0.439  24.966  0.00  0.00    +0.091 C 
ATOM      2  N   UNL     1       8.962  -1.271  26.202  0.00  0.00    -0.297 NA
ATOM      3  C   UNL     1       8.519  -0.562  27.417  0.00  0.00    +0.105 C 
ATOM      4  C   UNL     1       8.129  -2.486  25.939  0.00  0.00    +0.101 C 
ATOM      5  C   UNL     1       6.771  -2.239  25.196  0.00  0.00    +0.112 C 
ATOM      6  C   UNL     1       6.414  -0.754  25.185  0.00  0.00    -0.007 C 
ATOM      7  C   UNL     1       7.407   0.089  24.824  0.00  0.00    -0.025 C 
ATOM      8  C   UNL     1       7.152   1.296  24.002  0.00  0.00    -0.011 A 
ATOM      9  C   UNL     1       8.283   1.680  23.267  0.00  0.00    +0.010 A 
ATOM     10  C   UNL     1       8.176   2.430  22.112  0.00  0.00    +0.047 A 
ATOM     11  C   UNL     1       6.961   3.005  21.732  0.00  0.00    +0.026 A 
ATOM     12  C   UNL     1       5.853   2.758  22.565  0.00  0.00    +0.003 A 
ATOM     13  N   UNL     1       9.419   2.375  21.517  0.00  0.00    -0.360 N 
ATOM     14  H   UNL     1       9.628   2.727  20.593  0.00  0.00    +0.165 HD
ATOM     15  C   UNL     1      10.313   1.698  22.325  0.00  0.00    +0.087 A 
ATOM     16  C   UNL     1       9.640   1.332  23.467  0.00  0.00    -0.020 A 
ATOM     17  C   UNL     1       5.933   1.890  23.665  0.00  0.00    +0.009 A 
ATOM     18  C   UNL     1       9.998   0.589  24.715  0.00  0.00    +0.061 C 
ENDROOT
BRANCH   5  19
ATOM     19  C   UNL     1       6.808  -2.677  23.663  0.00  0.00    +0.224 C 
ATOM     20  N   UNL     1       6.618  -4.059  23.379  0.00  0.00    -0.301 N 
ATOM     21  O   UNL     1       6.908  -1.839  22.761  0.00  0.00    -0.275 OA
BRANCH  20  22
ATOM     22  C   UNL     1       5.693  -4.351  22.271  0.00  0.00    +0.104 C 
ATOM     23  C   UNL     1       6.219  -5.333  21.242  0.00  0.00    +0.024 C 
ENDBRANCH  20  22
BRANCH  20  24
ATOM     24  C   UNL     1       6.759  -5.092  24.406  0.00  0.00    +0.104 C 
ATOM     25  C   UNL     1       5.497  -5.766  24.900  0.00  0.00    +0.024 C 
ENDBRANCH  20  24
ENDBRANCH   5  19
TORSDOF 3
ENDMDL
MODEL 4
REMARK VINA RESULT:      -5.8      1.966      4.907
REMARK  Name = 
REMARK  6 active torsions:
REMARK  status: ('A' for Active; 'I' for Inactive)
REMARK    1  A    between atoms: C_15  and  C_20
REMARK    2  A    between atoms: N_18  and  C_19
REMARK    3  A    between atoms: N_22  and  C_23
REMARK    4  A    between atoms: N_22  and  C_25
REMARK    5  A    between atoms: C_23  and  C_24
REMARK    6  A    between atoms: C_25  and  C_26
REMARK                            x       y       z     vdW  Elec       q    Type
REMARK                         _______ _______ _______ _____ _____    ______ ____
ROOT
ATOM      1  C   UNL     1       7.990  -2.702  24.745  0.00  0.00    +0.091 C 
ATOM      2  N   UNL     1       7.582  -3.733  25.746  0.00  0.00    -0.297 NA
ATOM      3  C   UNL     1       8.687  -4.151  26.629  0.00  0.00    +0.105 C 
ATOM      4  C   UNL     1       6.459  -3.119  26.521  0.00  0.00    +0.101 C 
ATOM      5  C   UNL     1       6.627  -1.603  26.887  0.00  0.00    +0.112 C 
ATOM      6  C   UNL     1       8.065  -1.141  26.664  0.00  0.00    -0.007 C 
ATOM      7  C   UNL     1       8.622  -1.492  25.483  0.00  0.00    -0.025 C 
ATOM      8  C   UNL     1       9.530  -0.586  24.743  0.00  0.00    -0.011 A 
ATOM      9  C   UNL     1       9.521  -0.842  23.364  0.00  0.00    +0.010 A 
ATOM     10  C   UNL     1       9.876   0.125  22.444  0.00  0.00    +0.047 A 
ATOM     11  C   UNL     1      10.449   1.333  22.850  0.00  0.00    +0.026 A 
ATOM     12  C   UNL     1      10.616   1.525  24.234  0.00  0.00    +0.003 A 
ATOM     13  N   UNL     1       9.483  -0.366  21.217  0.00  0.00    -0.360 N 
ATOM     14  H   UNL     1       9.498   0.163  20.357  0.00  0.00    +0.165 HD
ATOM     15  C   UNL     1       8.989  -1.651  21.346  0.00  0.00    +0.087 A 
ATOM     16  C   UNL     1       9.088  -1.998  22.672  0.00  0.00    -0.020 A 
ATOM     17  C   UNL     1      10.135   0.598  25.173  0.00  0.00    +0.009 A 
ATOM     18  C   UNL     1       8.736  -3.209  23.479  0.00  0.00    +0.061 C 
ENDROOT
BRANCH   5  19
ATOM     19  C   UNL     1       5.728  -0.640  25.988  0.00  0.00    +0.224 C 
ATOM     20  N   UNL     1       5.498   0.677  26.480  0.00  0.00    -0.301 N 
ATOM     21  O   UNL     1       5.325  -0.995  24.876  0.00  0.00    -0.275 OA
BRANCH  20  22
ATOM     22  C   UNL     1       5.651   1.752  25.487  0.00  0.00    +0.104 C 
ATOM     23  C   UNL     1       7.032   2.375  25.426  0.00  0.00    +0.024 C 
ENDBRANCH  20  22
BRANCH  20  24
ATOM     24  C   UNL     1       5.729   1.037  27.879  0.00  0.00    +0.104 C 
ATOM     25  C   UNL     1       4.572   0.885  28.842  0.00  0.00    +0.024 C 
ENDBRANCH  20  24
ENDBRANCH   5  19
TORSDOF 3
ENDMDL
MODEL 5
REMARK VINA RESULT:      -5.8      2.587      5.229
REMARK  Name = 
REMARK  6 active torsions:
REMARK  status: ('A' for Active; 'I' for Inactive)
REMARK    1  A    between atoms: C_15  and  C_20
REMARK    2  A    between atoms: N_18  and  C_19
REMARK    3  A    between atoms: N_22  and  C_23
REMARK    4  A    between atoms: N_22  and  C_25
REMARK    5  A    between atoms: C_23  and  C_24
REMARK    6  A    between atoms: C_25  and  C_26
REMARK                            x       y       z     vdW  Elec       q    Type
REMARK                         _______ _______ _______ _____ _____    ______ ____
ROOT
ATOM      1  C   UNL     1       7.365  -2.778  23.790  0.00  0.00    +0.091 C 
ATOM      2  N   UNL     1       8.003  -1.485  24.179  0.00  0.00    -0.297 NA
ATOM      3  C   UNL     1       7.207  -0.306  23.790  0.00  0.00    +0.105 C 
ATOM      4  C   UNL     1       8.191  -1.558  25.662  0.00  0.00    +0.101 C 
ATOM      5  C   UNL     1       7.008  -2.195  26.471  0.00  0.00    +0.112 C 
ATOM      6  C   UNL     1       5.753  -2.311  25.610  0.00  0.00    -0.007 C 
ATOM      7  C   UNL     1       5.929  -2.837  24.377  0.00  0.00    -0.025 C 
ATOM      8  C   UNL     1       4.931  -3.740  23.758  0.00  0.00    -0.011 A 
ATOM      9  C   UNL     1       5.513  -4.606  22.822  0.00  0.00    +0.010 A 
ATOM     10  C   UNL     1       4.927  -5.811  22.487  0.00  0.00    +0.047 A 
ATOM     11  C   UNL     1       3.636  -6.131  22.912  0.00  0.00    +0.026 A 
ATOM     12  C   UNL     1       2.979  -5.183  23.719  0.00  0.00    +0.003 A 
ATOM     13  N   UNL     1       5.887  -6.509  21.783  0.00  0.00    -0.360 N 
ATOM     14  H   UNL     1       5.803  -7.476  21.504  0.00  0.00    +0.165 HD
ATOM     15  C   UNL     1       7.009  -5.726  21.590  0.00  0.00    +0.087 A 
ATOM     16  C   UNL     1       6.758  -4.499  22.158  0.00  0.00    -0.020 A 
ATOM     17  C   UNL     1       3.624  -4.019  24.167  0.00  0.00    +0.009 A 
ATOM     18  C   UNL     1       7.528  -3.225  22.311  0.00  0.00    +0.061 C 
ENDROOT
BRANCH   5  19
ATOM     19  C   UNL     1       7.319  -3.679  26.969  0.00  0.00    +0.224 C 
ATOM     20  N   UNL     1       6.222  -4.438  27.467  0.00  0.00    -0.301 N 
ATOM     21  O   UNL     1       8.444  -4.173  26.844  0.00  0.00    -0.275 OA
BRANCH  20  22
ATOM     22  C   UNL     1       6.147  -5.825  26.979  0.00  0.00    +0.104 C 
ATOM     23  C   UNL     1       4.741  -6.345  26.744  0.00  0.00    +0.024 C 
ENDBRANCH  20  22
BRANCH  20  24
ATOM     24  C   UNL     1       4.961  -3.814  27.868  0.00  0.00    +0.104 C 
ATOM     25  C   UNL     1       4.511  -4.001  29.301  0.00  0.00    +0.024 C 
ENDBRANCH  20  24
ENDBRANCH   5  19
TORSDOF 3
ENDMDL
MODEL 6
REMARK VINA RESULT:      -5.7      1.593      5.650
REMARK  Name = 
REMARK  6 active torsions:
REMARK  status: ('A' for Active; 'I' for Inactive)
REMARK    1  A    between atoms: C_15  and  C_20
REMARK    2  A    between atoms: N_18  and  C_19
REMARK    3  A    between atoms: N_22  and  C_23
REMARK    4  A    between atoms: N_22  and  C_25
REMARK    5  A    between atoms: C_23  and  C_24
REMARK    6  A    between atoms: C_25  and  C_26
REMARK                            x       y       z     vdW  Elec       q    Type
REMARK                         _______ _______ _______ _____ _____    ______ ____
ROOT
ATOM      1  C   UNL     1       9.033   0.427  23.499  0.00  0.00    +0.091 C 
ATOM      2  N   UNL     1      10.480   0.113  23.304  0.00  0.00    -0.297 NA
ATOM      3  C   UNL     1      11.318   0.506  24.453  0.00  0.00    +0.105 C 
ATOM      4  C   UNL     1      10.542  -1.362  23.057  0.00  0.00    +0.101 C 
ATOM      5  C   UNL     1       9.596  -2.245  23.941  0.00  0.00    +0.112 C 
ATOM      6  C   UNL     1       9.039  -1.446  25.117  0.00  0.00    -0.007 C 
ATOM      7  C   UNL     1       8.540  -0.226  24.818  0.00  0.00    -0.025 C 
ATOM      8  C   UNL     1       7.334   0.315  25.488  0.00  0.00    -0.011 A 
ATOM      9  C   UNL     1       6.659   1.246  24.685  0.00  0.00    +0.010 A 
ATOM     10  C   UNL     1       5.315   1.512  24.857  0.00  0.00    +0.047 A 
ATOM     11  C   UNL     1       4.615   1.017  25.960  0.00  0.00    +0.026 A 
ATOM     12  C   UNL     1       5.337   0.215  26.863  0.00  0.00    +0.003 A 
ATOM     13  N   UNL     1       4.933   2.233  23.744  0.00  0.00    -0.360 N 
ATOM     14  H   UNL     1       3.979   2.474  23.518  0.00  0.00    +0.165 HD
ATOM     15  C   UNL     1       6.027   2.504  22.945  0.00  0.00    +0.087 A 
ATOM     16  C   UNL     1       7.132   1.969  23.564  0.00  0.00    -0.020 A 
ATOM     17  C   UNL     1       6.667  -0.162  26.619  0.00  0.00    +0.009 A 
ATOM     18  C   UNL     1       8.593   1.896  23.246  0.00  0.00    +0.061 C 
ENDROOT
BRANCH   5  19
ATOM     19  C   UNL     1       8.318  -2.780  23.150  0.00  0.00    +0.224 C 
ATOM     20  N   UNL     1       7.732  -3.994  23.609  0.00  0.00    -0.301 N 
ATOM     21  O   UNL     1       7.811  -2.122  22.236  0.00  0.00    -0.275 OA
BRANCH  20  22
ATOM     22  C   UNL     1       6.263  -3.982  23.708  0.00  0.00    +0.104 C 
ATOM     23  C   UNL     1       5.677  -2.753  24.375  0.00  0.00    +0.024 C 
ENDBRANCH  20  22
BRANCH  20  24
ATOM     24  C   UNL     1       8.443  -4.915  24.496  0.00  0.00    +0.104 C 
ATOM     25  C   UNL     1       7.911  -5.087  25.902  0.00  0.00    +0.024 C 
ENDBRANCH  20  24
ENDBRANCH   5  19
TORSDOF 3
ENDMDL
MODEL 7
REMARK VINA RESULT:      -5.6      2.045      4.838
REMARK  Name = 
REMARK  6 active torsions:
REMARK  status: ('A' for Active; 'I' for Inactive)
REMARK    1  A    between atoms: C_15  and  C_20
REMARK    2  A    between atoms: N_18  and  C_19
REMARK    3  A    between atoms: N_22  and  C_23
REMARK    4  A    between atoms: N_22  and  C_25
REMARK    5  A    between atoms: C_23  and  C_24
REMARK    6  A    between atoms: C_25  and  C_26
REMARK                            x       y       z     vdW  Elec       q    Type
REMARK                         _______ _______ _______ _____ _____    ______ ____
ROOT
ATOM      1  C   UNL     1       6.686  -2.048  25.304  0.00  0.00    +0.091 C 
ATOM      2  N   UNL     1       6.257  -3.358  24.729  0.00  0.00    -0.297 NA
ATOM      3  C   UNL     1       4.934  -3.300  24.079  0.00  0.00    +0.105 C 
ATOM      4  C   UNL     1       7.331  -3.743  23.760  0.00  0.00    +0.101 C 
ATOM      5  C   UNL     1       7.909  -2.580  22.880  0.00  0.00    +0.112 C 
ATOM      6  C   UNL     1       7.020  -1.341  22.956  0.00  0.00    -0.007 C 
ATOM      7  C   UNL     1       6.640  -0.962  24.197  0.00  0.00    -0.025 C 
ATOM      8  C   UNL     1       6.534   0.464  24.585  0.00  0.00    -0.011 A 
ATOM      9  C   UNL     1       6.712   0.648  25.964  0.00  0.00    +0.010 A 
ATOM     10  C   UNL     1       7.132   1.857  26.485  0.00  0.00    +0.047 A 
ATOM     11  C   UNL     1       7.208   3.001  25.688  0.00  0.00    +0.026 A 
ATOM     12  C   UNL     1       6.865   2.855  24.331  0.00  0.00    +0.003 A 
ATOM     13  N   UNL     1       7.469   1.599  27.798  0.00  0.00    -0.360 N 
ATOM     14  H   UNL     1       7.925   2.258  28.412  0.00  0.00    +0.165 HD
ATOM     15  C   UNL     1       7.170   0.289  28.125  0.00  0.00    +0.087 A 
ATOM     16  C   UNL     1       6.613  -0.296  27.013  0.00  0.00    -0.020 A 
ATOM     17  C   UNL     1       6.565   1.601  23.774  0.00  0.00    +0.009 A 
ATOM     18  C   UNL     1       6.086  -1.658  26.684  0.00  0.00    +0.061 C 
ENDROOT
BRANCH   5  19
ATOM     19  C   UNL     1       9.353  -2.096  23.354  0.00  0.00    +0.224 C 
ATOM     20  N   UNL     1       9.904  -0.960  22.696  0.00  0.00    -0.301 N 
ATOM     21  O   UNL     1       9.925  -2.631  24.310  0.00  0.00    -0.275 OA
BRANCH  20  22
ATOM     22  C   UNL     1      10.518   0.042  23.582  0.00  0.00    +0.104 C 
ATOM     23  C   UNL     1      10.022   0.018  25.015  0.00  0.00    +0.024 C 
ENDBRANCH  20  22
BRANCH  20  24
ATOM     24  C   UNL     1       9.389  -0.477  21.414  0.00  0.00    +0.104 C 
ATOM     25  C   UNL     1       9.096   1.003  21.290  0.00  0.00    +0.024 C 
ENDBRANCH  20  24
ENDBRANCH   5  19
TORSDOF 3
ENDMDL
MODEL 8
REMARK VINA RESULT:      -5.5      2.331      4.518
REMARK  Name = 
REMARK  6 active torsions:
REMARK  status: ('A' for Active; 'I' for Inactive)
REMARK    1  A    between atoms: C_15  and  C_20
REMARK    2  A    between atoms: N_18  and  C_19
REMARK    3  A    between atoms: N_22  and  C_23
REMARK    4  A    between atoms: N_22  and  C_25
REMARK    5  A    between atoms: C_23  and  C_24
REMARK    6  A    between atoms: C_25  and  C_26
REMARK                            x       y       z     vdW  Elec       q    Type
REMARK                         _______ _______ _______ _____ _____    ______ ____
ROOT
ATOM      1  C   UNL     1       6.235  -5.253  24.348  0.00  0.00    +0.091 C 
ATOM      2  N   UNL     1       6.385  -5.793  22.964  0.00  0.00    -0.297 NA
ATOM      3  C   UNL     1       5.141  -5.717  22.174  0.00  0.00    +0.105 C 
ATOM      4  C   UNL     1       7.485  -4.995  22.337  0.00  0.00    +0.101 C 
ATOM      5  C   UNL     1       7.481  -3.459  22.650  0.00  0.00    +0.112 C 
ATOM      6  C   UNL     1       6.153  -3.028  23.267  0.00  0.00    -0.007 C 
ATOM      7  C   UNL     1       5.691  -3.801  24.275  0.00  0.00    -0.025 C 
ATOM      8  C   UNL     1       5.002  -3.226  25.454  0.00  0.00    -0.011 A 
ATOM      9  C   UNL     1       5.133  -4.039  26.589  0.00  0.00    +0.010 A 
ATOM     10  C   UNL     1       5.016  -3.525  27.866  0.00  0.00    +0.047 A 
ATOM     11  C   UNL     1       4.568  -2.220  28.083  0.00  0.00    +0.026 A 
ATOM     12  C   UNL     1       4.273  -1.451  26.941  0.00  0.00    +0.003 A 
ATOM     13  N   UNL     1       5.476  -4.516  28.708  0.00  0.00    -0.360 N 
ATOM     14  H   UNL     1       5.630  -4.399  29.700  0.00  0.00    +0.165 HD
ATOM     15  C   UNL     1       5.776  -5.660  27.992  0.00  0.00    +0.087 A 
ATOM     16  C   UNL     1       5.482  -5.408  26.673  0.00  0.00    -0.020 A 
ATOM     17  C   UNL     1       4.517  -1.929  25.644  0.00  0.00    +0.009 A 
ATOM     18  C   UNL     1       5.575  -6.188  25.399  0.00  0.00    +0.061 C 
ENDROOT
BRANCH   5  19
ATOM     19  C   UNL     1       8.597  -3.033  23.708  0.00  0.00    +0.224 C 
ATOM     20  N   UNL     1       8.941  -1.653  23.767  0.00  0.00    -0.301 N 
ATOM     21  O   UNL     1       9.075  -3.854  24.498  0.00  0.00    -0.275 OA
BRANCH  20  22
ATOM     22  C   UNL     1       9.047  -1.091  25.124  0.00  0.00    +0.104 C 
ATOM     23  C   UNL     1       7.842  -0.291  25.580  0.00  0.00    +0.024 C 
ENDBRANCH  20  22
BRANCH  20  24
ATOM     24  C   UNL     1       8.600  -0.718  22.694  0.00  0.00    +0.104 C 
ATOM     25  C   UNL     1       9.701  -0.322  21.734  0.00  0.00    +0.024 C 
ENDBRANCH  20  24
ENDBRANCH   5  19
TORSDOF 3
ENDMDL
MODEL 9
REMARK VINA RESULT:      -5.5      2.725      6.296
REMARK  Name = 
REMARK  6 active torsions:
REMARK  status: ('A' for Active; 'I' for Inactive)
REMARK    1  A    between atoms: C_15  and  C_20
REMARK    2  A    between atoms: N_18  and  C_19
REMARK    3  A    between atoms: N_22  and  C_23
REMARK    4  A    between atoms: N_22  and  C_25
REMARK    5  A    between atoms: C_23  and  C_24
REMARK    6  A    between atoms: C_25  and  C_26
REMARK                            x       y       z     vdW  Elec       q    Type
REMARK                         _______ _______ _______ _____ _____    ______ ____
ROOT
ATOM      1  C   UNL     1       5.605  -3.965  22.875  0.00  0.00    +0.091 C 
ATOM      2  N   UNL     1       5.094  -5.114  22.069  0.00  0.00    -0.297 NA
ATOM      3  C   UNL     1       6.149  -6.074  21.695  0.00  0.00    +0.105 C 
ATOM      4  C   UNL     1       4.037  -5.757  22.911  0.00  0.00    +0.101 C 
ATOM      5  C   UNL     1       4.356  -5.872  24.442  0.00  0.00    +0.112 C 
ATOM      6  C   UNL     1       5.833  -5.603  24.716  0.00  0.00    -0.007 C 
ATOM      7  C   UNL     1       6.354  -4.507  24.121  0.00  0.00    -0.025 C 
ATOM      8  C   UNL     1       7.351  -3.645  24.799  0.00  0.00    -0.011 A 
ATOM      9  C   UNL     1       7.318  -2.327  24.320  0.00  0.00    +0.010 A 
ATOM     10  C   UNL     1       7.771  -1.267  25.083  0.00  0.00    +0.047 A 
ATOM     11  C   UNL     1       8.462  -1.480  26.278  0.00  0.00    +0.026 A 
ATOM     12  C   UNL     1       8.644  -2.817  26.679  0.00  0.00    +0.003 A 
ATOM     13  N   UNL     1       7.333  -0.130  24.436  0.00  0.00    -0.360 N 
ATOM     14  H   UNL     1       7.403   0.805  24.812  0.00  0.00    +0.165 HD
ATOM     15  C   UNL     1       6.712  -0.459  23.246  0.00  0.00    +0.087 A 
ATOM     16  C   UNL     1       6.773  -1.826  23.114  0.00  0.00    -0.020 A 
ATOM     17  C   UNL     1       8.070  -3.886  25.972  0.00  0.00    +0.009 A 
ATOM     18  C   UNL     1       6.299  -2.814  22.095  0.00  0.00    +0.061 C 
ENDROOT
BRANCH   5  19
ATOM     19  C   UNL     1       3.560  -4.811  25.328  0.00  0.00    +0.224 C 
ATOM     20  N   UNL     1       3.328  -5.150  26.691  0.00  0.00    -0.301 N 
ATOM     21  O   UNL     1       3.239  -3.709  24.871  0.00  0.00    -0.275 OA
BRANCH  20  22
ATOM     22  C   UNL     1       3.591  -4.072  27.659  0.00  0.00    +0.104 C 
ATOM     23  C   UNL     1       5.057  -3.827  27.960  0.00  0.00    +0.024 C 
ENDBRANCH  20  22
BRANCH  20  24
ATOM     24  C   UNL     1       3.454  -6.521  27.186  0.00  0.00    +0.104 C 
ATOM     25  C   UNL     1       2.835  -6.842  28.529  0.00  0.00    +0.024 C 
ENDBRANCH  20  24
ENDBRANCH   5  19
TORSDOF 3
ENDMDL
