MODEL 1
REMARK VINA RESULT:      -5.2      0.000      0.000
REMARK  Name = 
REMARK  7 active torsions:
REMARK  status: ('A' for Active; 'I' for Inactive)
REMARK    1  A    between atoms: C_1  and  C_2
REMARK    2  A    between atoms: C_3  and  C_4
REMARK    3  A    between atoms: C_4  and  C_5
REMARK    4  A    between atoms: C_5  and  C_6
REMARK    5  A    between atoms: C_5  and  C_8
REMARK    6  A    between atoms: C_6  and  O_7
REMARK    7  A    between atoms: C_8  and  O_9
REMARK                            x       y       z     vdW  Elec       q    Type
REMARK                         _______ _______ _______ _____ _____    ______ ____
ROOT
ATOM      1  C   UNL     1      10.493  -1.291  22.482  0.00  0.00    +0.051 C 
ATOM      2  C   UNL     1       9.951  -0.977  23.844  0.00  0.00    +0.033 A 
ATOM      3  C   UNL     1       9.211  -2.114  24.477  0.00  0.00    +0.257 A 
ATOM      4  O   UNL     1       9.024  -3.174  23.886  0.00  0.00    -0.267 OA
ATOM      5  N   UNL     1       8.743  -1.915  25.740  0.00  0.00    -0.275 N 
ATOM      6  H   UNL     1       8.230  -2.667  26.171  0.00  0.00    +0.173 HD
ATOM      7  C   UNL     1       8.817  -0.740  26.417  0.00  0.00    +0.327 A 
ATOM      8  O   UNL     1       8.336  -0.593  27.535  0.00  0.00    -0.247 OA
ATOM      9  N   UNL     1       9.462   0.275  25.776  0.00  0.00    -0.311 N 
ATOM     10  H   UNL     1       9.481   1.147  26.292  0.00  0.00    +0.170 HD
ATOM     11  C   UNL     1      10.032   0.186  24.524  0.00  0.00    +0.029 A 
ENDROOT
BRANCH  11  12
ATOM     12  C   UNL     1      10.650   1.482  24.020  0.00  0.00    +0.061 C 
BRANCH  12  13
ATOM     13  C   UNL     1       9.638   2.618  23.728  0.00  0.00    +0.046 C 
BRANCH  13  14
ATOM     14  C   UNL     1       8.886   2.339  22.413  0.00  0.00    +0.162 C 
BRANCH  14  15
ATOM     15  O   UNL     1       9.767   2.037  21.342  0.00  0.00    -0.395 OA
ATOM     16  H   UNL     1       9.246   2.129  20.515  0.00  0.00    +0.209 HD
ENDBRANCH  14  15
ENDBRANCH  13  14
BRANCH  13  17
ATOM     17  C   UNL     1      10.310   3.995  23.679  0.00  0.00    +0.162 C 
BRANCH  17  18
ATOM     18  O   UNL     1      11.479   3.951  22.868  0.00  0.00    -0.395 OA
ATOM     19  H   UNL     1      11.277   3.386  22.100  0.00  0.00    +0.209 HD
ENDBRANCH  17  18
ENDBRANCH  13  17
ENDBRANCH  12  13
ENDBRANCH  11  12
TORSDOF 6
ENDMDL
MODEL 2
REMARK VINA RESULT:      -5.1      4.297      6.197
REMARK  Name = 
REMARK  7 active torsions:
REMARK  status: ('A' for Active; 'I' for Inactive)
REMARK    1  A    between atoms: C_1  and  C_2
REMARK    2  A    between atoms: C_3  and  C_4
REMARK    3  A    between atoms: C_4  and  C_5
REMARK    4  A    between atoms: C_5  and  C_6
REMARK    5  A    between atoms: C_5  and  C_8
REMARK    6  A    between atoms: C_6  and  O_7
REMARK    7  A    between atoms: C_8  and  O_9
REMARK                            x       y       z     vdW  Elec       q    Type
REMARK                         _______ _______ _______ _____ _____    ______ ____
ROOT
ATOM      1  C   UNL     1       6.397  -5.240  25.650  0.00  0.00    +0.051 C 
ATOM      2  C   UNL     1       6.390  -5.254  24.151  0.00  0.00    +0.033 A 
ATOM      3  C   UNL     1       5.380  -6.189  23.559  0.00  0.00    +0.257 A 
ATOM      4  O   UNL     1       4.681  -6.914  24.261  0.00  0.00    -0.267 OA
ATOM      5  N   UNL     1       5.281  -6.206  22.201  0.00  0.00    -0.275 N 
ATOM      6  H   UNL     1       4.616  -6.842  21.791  0.00  0.00    +0.173 HD
ATOM      7  C   UNL     1       6.089  -5.515  21.357  0.00  0.00    +0.327 A 
ATOM      8  O   UNL     1       5.995  -5.600  20.138  0.00  0.00    -0.247 OA
ATOM      9  N   UNL     1       7.020  -4.713  21.948  0.00  0.00    -0.311 N 
ATOM     10  H   UNL     1       7.625  -4.228  21.296  0.00  0.00    +0.170 HD
ATOM     11  C   UNL     1       7.184  -4.560  23.308  0.00  0.00    +0.029 A 
ENDROOT
BRANCH  11  12
ATOM     12  C   UNL     1       8.329  -3.640  23.704  0.00  0.00    +0.061 C 
BRANCH  12  13
ATOM     13  C   UNL     1       8.389  -2.300  22.927  0.00  0.00    +0.046 C 
BRANCH  13  14
ATOM     14  C   UNL     1       9.846  -1.818  22.806  0.00  0.00    +0.162 C 
BRANCH  14  15
ATOM     15  O   UNL     1      10.207  -1.521  21.466  0.00  0.00    -0.395 OA
ATOM     16  H   UNL     1       9.369  -1.432  20.963  0.00  0.00    +0.209 HD
ENDBRANCH  14  15
ENDBRANCH  13  14
BRANCH  13  17
ATOM     17  C   UNL     1       7.517  -1.216  23.573  0.00  0.00    +0.162 C 
BRANCH  17  18
ATOM     18  O   UNL     1       6.314  -1.037  22.833  0.00  0.00    -0.395 OA
ATOM     19  H   UNL     1       5.682  -1.713  23.141  0.00  0.00    +0.209 HD
ENDBRANCH  17  18
ENDBRANCH  13  17
ENDBRANCH  12  13
ENDBRANCH  11  12
TORSDOF 6
ENDMDL
MODEL 3
REMARK VINA RESULT:      -5.1      4.331      6.754
REMARK  Name = 
REMARK  7 active torsions:
REMARK  status: ('A' for Active; 'I' for Inactive)
REMARK    1  A    between atoms: C_1  and  C_2
REMARK    2  A    between atoms: C_3  and  C_4
REMARK    3  A    between atoms: C_4  and  C_5
REMARK    4  A    between atoms: C_5  and  C_6
REMARK    5  A    between atoms: C_5  and  C_8
REMARK    6  A    between atoms: C_6  and  O_7
REMARK    7  A    between atoms: C_8  and  O_9
REMARK                            x       y       z     vdW  Elec       q    Type
REMARK                         _______ _______ _______ _____ _____    ______ ____
ROOT
ATOM      1  C   UNL     1       5.784  -5.241  25.717  0.00  0.00    +0.051 C 
ATOM      2  C   UNL     1       5.926  -5.228  24.225  0.00  0.00    +0.033 A 
ATOM      3  C   UNL     1       5.217  -6.355  23.540  0.00  0.00    +0.257 A 
ATOM      4  O   UNL     1       4.634  -7.232  24.172  0.00  0.00    -0.267 OA
ATOM      5  N   UNL     1       5.256  -6.369  22.179  0.00  0.00    -0.275 N 
ATOM      6  H   UNL     1       4.795  -7.132  21.707  0.00  0.00    +0.173 HD
ATOM      7  C   UNL     1       5.965  -5.499  21.416  0.00  0.00    +0.327 A 
ATOM      8  O   UNL     1       6.012  -5.581  20.194  0.00  0.00    -0.247 OA
ATOM      9  N   UNL     1       6.629  -4.519  22.093  0.00  0.00    -0.311 N 
ATOM     10  H   UNL     1       7.169  -3.899  21.502  0.00  0.00    +0.170 HD
ATOM     11  C   UNL     1       6.621  -4.358  23.462  0.00  0.00    +0.029 A 
ENDROOT
BRANCH  11  12
ATOM     12  C   UNL     1       7.484  -3.211  23.965  0.00  0.00    +0.061 C 
BRANCH  12  13
ATOM     13  C   UNL     1       9.010  -3.478  23.932  0.00  0.00    +0.046 C 
BRANCH  13  14
ATOM     14  C   UNL     1       9.429  -4.341  25.136  0.00  0.00    +0.162 C 
BRANCH  14  15
ATOM     15  O   UNL     1       9.784  -5.661  24.757  0.00  0.00    -0.395 OA
ATOM     16  H   UNL     1      10.762  -5.676  24.674  0.00  0.00    +0.209 HD
ENDBRANCH  14  15
ENDBRANCH  13  14
BRANCH  13  17
ATOM     17  C   UNL     1       9.825  -2.179  23.894  0.00  0.00    +0.162 C 
BRANCH  17  18
ATOM     18  O   UNL     1      10.478  -2.036  22.637  0.00  0.00    -0.395 OA
ATOM     19  H   UNL     1       9.806  -2.176  21.945  0.00  0.00    +0.209 HD
ENDBRANCH  17  18
ENDBRANCH  13  17
ENDBRANCH  12  13
ENDBRANCH  11  12
TORSDOF 6
ENDMDL
MODEL 4
REMARK VINA RESULT:      -5.0      3.319      5.994
REMARK  Name = 
REMARK  7 active torsions:
REMARK  status: ('A' for Active; 'I' for Inactive)
REMARK    1  A    between atoms: C_1  and  C_2
REMARK    2  A    between atoms: C_3  and  C_4
REMARK    3  A    between atoms: C_4  and  C_5
REMARK    4  A    between atoms: C_5  and  C_6
REMARK    5  A    between atoms: C_5  and  C_8
REMARK    6  A    between atoms: C_6  and  O_7
REMARK    7  A    between atoms: C_8  and  O_9
REMARK                            x       y       z     vdW  Elec       q    Type
REMARK                         _______ _______ _______ _____ _____    ______ ____
ROOT
ATOM      1  C   UNL     1       7.914   4.340  24.115  0.00  0.00    +0.051 C 
ATOM      2  C   UNL     1       9.372   4.422  23.778  0.00  0.00    +0.033 A 
ATOM      3  C   UNL     1       9.889   5.823  23.664  0.00  0.00    +0.257 A 
ATOM      4  O   UNL     1       9.149   6.797  23.778  0.00  0.00    -0.267 OA
ATOM      5  N   UNL     1      11.220   5.969  23.418  0.00  0.00    -0.275 N 
ATOM      6  H   UNL     1      11.577   6.906  23.324  0.00  0.00    +0.173 HD
ATOM      7  C   UNL     1      12.079   4.946  23.176  0.00  0.00    +0.327 A 
ATOM      8  O   UNL     1      13.262   5.128  22.909  0.00  0.00    -0.247 OA
ATOM      9  N   UNL     1      11.547   3.693  23.249  0.00  0.00    -0.311 N 
ATOM     10  H   UNL     1      12.203   2.950  23.040  0.00  0.00    +0.170 HD
ATOM     11  C   UNL     1      10.232   3.407  23.548  0.00  0.00    +0.029 A 
ENDROOT
BRANCH  11  12
ATOM     12  C   UNL     1       9.887   1.926  23.517  0.00  0.00    +0.061 C 
BRANCH  12  13
ATOM     13  C   UNL     1       9.771   1.312  22.099  0.00  0.00    +0.046 C 
BRANCH  13  14
ATOM     14  C   UNL     1       8.383   1.609  21.500  0.00  0.00    +0.162 C 
BRANCH  14  15
ATOM     15  O   UNL     1       7.329   1.095  22.299  0.00  0.00    -0.395 OA
ATOM     16  H   UNL     1       6.832   0.462  21.736  0.00  0.00    +0.209 HD
ENDBRANCH  14  15
ENDBRANCH  13  14
BRANCH  13  17
ATOM     17  C   UNL     1      10.043  -0.197  22.098  0.00  0.00    +0.162 C 
BRANCH  17  18
ATOM     18  O   UNL     1       9.422  -0.815  20.975  0.00  0.00    -0.395 OA
ATOM     19  H   UNL     1      10.128  -1.032  20.338  0.00  0.00    +0.209 HD
ENDBRANCH  17  18
ENDBRANCH  13  17
ENDBRANCH  12  13
ENDBRANCH  11  12
TORSDOF 6
ENDMDL
MODEL 5
REMARK VINA RESULT:      -5.0      2.777      5.900
REMARK  Name = 
REMARK  7 active torsions:
REMARK  status: ('A' for Active; 'I' for Inactive)
REMARK    1  A    between atoms: C_1  and  C_2
REMARK    2  A    between atoms: C_3  and  C_4
REMARK    3  A    between atoms: C_4  and  C_5
REMARK    4  A    between atoms: C_5  and  C_6
REMARK    5  A    between atoms: C_5  and  C_8
REMARK    6  A    between atoms: C_6  and  O_7
REMARK    7  A    between atoms: C_8  and  O_9
REMARK                            x       y       z     vdW  Elec       q    Type
REMARK                         _______ _______ _______ _____ _____    ______ ____
ROOT
ATOM      1  C   UNL     1       7.444  -2.855  22.177  0.00  0.00    +0.051 C 
ATOM      2  C   UNL     1       8.298  -2.045  23.106  0.00  0.00    +0.033 A 
ATOM      3  C   UNL     1       9.277  -1.155  22.405  0.00  0.00    +0.257 A 
ATOM      4  O   UNL     1       9.393  -1.156  21.182  0.00  0.00    -0.267 OA
ATOM      5  N   UNL     1      10.044  -0.347  23.189  0.00  0.00    -0.275 N 
ATOM      6  H   UNL     1      10.717   0.245  22.730  0.00  0.00    +0.173 HD
ATOM      7  C   UNL     1      10.049  -0.364  24.546  0.00  0.00    +0.327 A 
ATOM      8  O   UNL     1      10.794   0.347  25.211  0.00  0.00    -0.247 OA
ATOM      9  N   UNL     1       9.169  -1.225  25.133  0.00  0.00    -0.311 N 
ATOM     10  H   UNL     1       9.210  -1.236  26.145  0.00  0.00    +0.170 HD
ATOM     11  C   UNL     1       8.297  -2.051  24.455  0.00  0.00    +0.029 A 
ENDROOT
BRANCH  11  12
ATOM     12  C   UNL     1       7.457  -2.948  25.351  0.00  0.00    +0.061 C 
BRANCH  12  13
ATOM     13  C   UNL     1       8.257  -4.000  26.159  0.00  0.00    +0.046 C 
BRANCH  13  14
ATOM     14  C   UNL     1       9.006  -4.950  25.206  0.00  0.00    +0.162 C 
BRANCH  14  15
ATOM     15  O   UNL     1      10.219  -5.429  25.764  0.00  0.00    -0.395 OA
ATOM     16  H   UNL     1      10.376  -6.317  25.377  0.00  0.00    +0.209 HD
ENDBRANCH  14  15
ENDBRANCH  13  14
BRANCH  13  17
ATOM     17  C   UNL     1       7.363  -4.797  27.117  0.00  0.00    +0.162 C 
BRANCH  17  18
ATOM     18  O   UNL     1       7.999  -6.012  27.497  0.00  0.00    -0.395 OA
ATOM     19  H   UNL     1       8.893  -5.784  27.815  0.00  0.00    +0.209 HD
ENDBRANCH  17  18
ENDBRANCH  13  17
ENDBRANCH  12  13
ENDBRANCH  11  12
TORSDOF 6
ENDMDL
MODEL 6
REMARK VINA RESULT:      -5.0      2.761      6.368
REMARK  Name = 
REMARK  7 active torsions:
REMARK  status: ('A' for Active; 'I' for Inactive)
REMARK    1  A    between atoms: C_1  and  C_2
REMARK    2  A    between atoms: C_3  and  C_4
REMARK    3  A    between atoms: C_4  and  C_5
REMARK    4  A    between atoms: C_5  and  C_6
REMARK    5  A    between atoms: C_5  and  C_8
REMARK    6  A    between atoms: C_6  and  O_7
REMARK    7  A    between atoms: C_8  and  O_9
REMARK                            x       y       z     vdW  Elec       q    Type
REMARK                         _______ _______ _______ _____ _____    ______ ____
ROOT
ATOM      1  C   UNL     1       8.803  -0.775  26.654  0.00  0.00    +0.051 C 
ATOM      2  C   UNL     1       9.085  -1.105  25.219  0.00  0.00    +0.033 A 
ATOM      3  C   UNL     1       9.967  -0.109  24.532  0.00  0.00    +0.257 A 
ATOM      4  O   UNL     1      10.355   0.910  25.097  0.00  0.00    -0.267 OA
ATOM      5  N   UNL     1      10.311  -0.380  23.242  0.00  0.00    -0.275 N 
ATOM      6  H   UNL     1      10.891   0.291  22.764  0.00  0.00    +0.173 HD
ATOM      7  C   UNL     1       9.839  -1.427  22.518  0.00  0.00    +0.327 A 
ATOM      8  O   UNL     1      10.138  -1.603  21.343  0.00  0.00    -0.247 OA
ATOM      9  N   UNL     1       9.005  -2.278  23.180  0.00  0.00    -0.311 N 
ATOM     10  H   UNL     1       8.647  -3.036  22.611  0.00  0.00    +0.170 HD
ATOM     11  C   UNL     1       8.626  -2.151  24.500  0.00  0.00    +0.029 A 
ENDROOT
BRANCH  11  12
ATOM     12  C   UNL     1       7.649  -3.213  24.979  0.00  0.00    +0.061 C 
BRANCH  12  13
ATOM     13  C   UNL     1       8.269  -4.319  25.869  0.00  0.00    +0.046 C 
BRANCH  13  14
ATOM     14  C   UNL     1       9.027  -5.340  25.001  0.00  0.00    +0.162 C 
BRANCH  14  15
ATOM     15  O   UNL     1      10.106  -5.945  25.698  0.00  0.00    -0.395 OA
ATOM     16  H   UNL     1      10.152  -5.509  26.577  0.00  0.00    +0.209 HD
ENDBRANCH  14  15
ENDBRANCH  13  14
BRANCH  13  17
ATOM     17  C   UNL     1       7.217  -5.026  26.732  0.00  0.00    +0.162 C 
BRANCH  17  18
ATOM     18  O   UNL     1       7.836  -5.967  27.603  0.00  0.00    -0.395 OA
ATOM     19  H   UNL     1       7.158  -6.623  27.849  0.00  0.00    +0.209 HD
ENDBRANCH  17  18
ENDBRANCH  13  17
ENDBRANCH  12  13
ENDBRANCH  11  12
TORSDOF 6
ENDMDL
MODEL 7
REMARK VINA RESULT:      -4.9      6.247      7.749
REMARK  Name = 
REMARK  7 active torsions:
REMARK  status: ('A' for Active; 'I' for Inactive)
REMARK    1  A    between atoms: C_1  and  C_2
REMARK    2  A    between atoms: C_3  and  C_4
REMARK    3  A    between atoms: C_4  and  C_5
REMARK    4  A    between atoms: C_5  and  C_6
REMARK    5  A    between atoms: C_5  and  C_8
REMARK    6  A    between atoms: C_6  and  O_7
REMARK    7  A    between atoms: C_8  and  O_9
REMARK                            x       y       z     vdW  Elec       q    Type
REMARK                         _______ _______ _______ _____ _____    ______ ____
ROOT
ATOM      1  C   UNL     1       4.817  -5.288  26.886  0.00  0.00    +0.051 C 
ATOM      2  C   UNL     1       6.170  -5.172  26.253  0.00  0.00    +0.033 A 
ATOM      3  C   UNL     1       7.290  -5.645  27.128  0.00  0.00    +0.257 A 
ATOM      4  O   UNL     1       7.095  -6.026  28.279  0.00  0.00    -0.267 OA
ATOM      5  N   UNL     1       8.541  -5.622  26.591  0.00  0.00    -0.275 N 
ATOM      6  H   UNL     1       9.304  -5.923  27.175  0.00  0.00    +0.173 HD
ATOM      7  C   UNL     1       8.850  -5.118  25.369  0.00  0.00    +0.327 A 
ATOM      8  O   UNL     1      10.000  -5.073  24.946  0.00  0.00    -0.247 OA
ATOM      9  N   UNL     1       7.798  -4.661  24.631  0.00  0.00    -0.311 N 
ATOM     10  H   UNL     1       8.059  -4.268  23.735  0.00  0.00    +0.170 HD
ATOM     11  C   UNL     1       6.479  -4.682  25.034  0.00  0.00    +0.029 A 
ENDROOT
BRANCH  11  12
ATOM     12  C   UNL     1       5.508  -4.067  24.039  0.00  0.00    +0.061 C 
BRANCH  12  13
ATOM     13  C   UNL     1       5.026  -5.023  22.919  0.00  0.00    +0.046 C 
BRANCH  13  14
ATOM     14  C   UNL     1       3.998  -6.024  23.478  0.00  0.00    +0.162 C 
BRANCH  14  15
ATOM     15  O   UNL     1       4.557  -7.313  23.684  0.00  0.00    -0.395 OA
ATOM     16  H   UNL     1       4.837  -7.642  22.802  0.00  0.00    +0.209 HD
ENDBRANCH  14  15
ENDBRANCH  13  14
BRANCH  13  17
ATOM     17  C   UNL     1       6.188  -5.765  22.249  0.00  0.00    +0.162 C 
BRANCH  17  18
ATOM     18  O   UNL     1       5.733  -6.474  21.102  0.00  0.00    -0.395 OA
ATOM     19  H   UNL     1       5.931  -7.418  21.248  0.00  0.00    +0.209 HD
ENDBRANCH  17  18
ENDBRANCH  13  17
ENDBRANCH  12  13
ENDBRANCH  11  12
TORSDOF 6
ENDMDL
MODEL 8
REMARK VINA RESULT:      -4.9      3.374      6.357
REMARK  Name = 
REMARK  7 active torsions:
REMARK  status: ('A' for Active; 'I' for Inactive)
REMARK    1  A    between atoms: C_1  and  C_2
REMARK    2  A    between atoms: C_3  and  C_4
REMARK    3  A    between atoms: C_4  and  C_5
REMARK    4  A    between atoms: C_5  and  C_6
REMARK    5  A    between atoms: C_5  and  C_8
REMARK    6  A    between atoms: C_6  and  O_7
REMARK    7  A    between atoms: C_8  and  O_9
REMARK                            x       y       z     vdW  Elec       q    Type
REMARK                         _______ _______ _______ _____ _____    ______ ____
ROOT
ATOM      1  C   UNL     1       6.325  -1.139  25.235  0.00  0.00    +0.051 C 
ATOM      2  C   UNL     1       7.597  -1.401  24.486  0.00  0.00    +0.033 A 
ATOM      3  C   UNL     1       7.777  -0.534  23.279  0.00  0.00    +0.257 A 
ATOM      4  O   UNL     1       6.916   0.265  22.921  0.00  0.00    -0.267 OA
ATOM      5  N   UNL     1       8.941  -0.680  22.586  0.00  0.00    -0.275 N 
ATOM      6  H   UNL     1       9.067  -0.113  21.763  0.00  0.00    +0.173 HD
ATOM      7  C   UNL     1       9.891  -1.611  22.856  0.00  0.00    +0.327 A 
ATOM      8  O   UNL     1      10.901  -1.739  22.173  0.00  0.00    -0.247 OA
ATOM      9  N   UNL     1       9.655  -2.403  23.940  0.00  0.00    -0.311 N 
ATOM     10  H   UNL     1      10.367  -3.105  24.105  0.00  0.00    +0.170 HD
ATOM     11  C   UNL     1       8.549  -2.318  24.759  0.00  0.00    +0.029 A 
ENDROOT
BRANCH  11  12
ATOM     12  C   UNL     1       8.508  -3.354  25.872  0.00  0.00    +0.061 C 
BRANCH  12  13
ATOM     13  C   UNL     1       7.901  -4.721  25.471  0.00  0.00    +0.046 C 
BRANCH  13  14
ATOM     14  C   UNL     1       7.139  -5.337  26.660  0.00  0.00    +0.162 C 
BRANCH  14  15
ATOM     15  O   UNL     1       8.005  -5.990  27.575  0.00  0.00    -0.395 OA
ATOM     16  H   UNL     1       8.890  -5.581  27.465  0.00  0.00    +0.209 HD
ENDBRANCH  14  15
ENDBRANCH  13  14
BRANCH  13  17
ATOM     17  C   UNL     1       8.963  -5.698  24.952  0.00  0.00    +0.162 C 
BRANCH  17  18
ATOM     18  O   UNL     1      10.246  -5.358  25.464  0.00  0.00    -0.395 OA
ATOM     19  H   UNL     1      10.680  -6.190  25.732  0.00  0.00    +0.209 HD
ENDBRANCH  17  18
ENDBRANCH  13  17
ENDBRANCH  12  13
ENDBRANCH  11  12
TORSDOF 6
ENDMDL
MODEL 9
REMARK VINA RESULT:      -4.8      2.576      5.908
REMARK  Name = 
REMARK  7 active torsions:
REMARK  status: ('A' for Active; 'I' for Inactive)
REMARK    1  A    between atoms: C_1  and  C_2
REMARK    2  A    between atoms: C_3  and  C_4
REMARK    3  A    between atoms: C_4  and  C_5
REMARK    4  A    between atoms: C_5  and  C_6
REMARK    5  A    between atoms: C_5  and  C_8
REMARK    6  A    between atoms: C_6  and  O_7
REMARK    7  A    between atoms: C_8  and  O_9
REMARK                            x       y       z     vdW  Elec       q    Type
REMARK                         _______ _______ _______ _____ _____    ______ ____
ROOT
ATOM      1  C   UNL     1      10.042  -1.995  23.277  0.00  0.00    +0.051 C 
ATOM      2  C   UNL     1       9.341  -1.526  24.517  0.00  0.00    +0.033 A 
ATOM      3  C   UNL     1       9.799  -0.185  25.000  0.00  0.00    +0.257 A 
ATOM      4  O   UNL     1      10.713   0.424  24.451  0.00  0.00    -0.267 OA
ATOM      5  N   UNL     1       9.161   0.326  26.089  0.00  0.00    -0.275 N 
ATOM      6  H   UNL     1       9.471   1.221  26.434  0.00  0.00    +0.173 HD
ATOM      7  C   UNL     1       8.218  -0.330  26.813  0.00  0.00    +0.327 A 
ATOM      8  O   UNL     1       7.705   0.151  27.817  0.00  0.00    -0.247 OA
ATOM      9  N   UNL     1       7.869  -1.565  26.354  0.00  0.00    -0.311 N 
ATOM     10  H   UNL     1       7.182  -2.042  26.925  0.00  0.00    +0.170 HD
ATOM     11  C   UNL     1       8.395  -2.171  25.231  0.00  0.00    +0.029 A 
ENDROOT
BRANCH  11  12
ATOM     12  C   UNL     1       7.866  -3.572  24.968  0.00  0.00    +0.061 C 
BRANCH  12  13
ATOM     13  C   UNL     1       8.304  -4.641  26.000  0.00  0.00    +0.046 C 
BRANCH  13  14
ATOM     14  C   UNL     1       9.227  -5.680  25.336  0.00  0.00    +0.162 C 
BRANCH  14  15
ATOM     15  O   UNL     1      10.481  -5.129  24.966  0.00  0.00    -0.395 OA
ATOM     16  H   UNL     1      10.584  -4.297  25.476  0.00  0.00    +0.209 HD
ENDBRANCH  14  15
ENDBRANCH  13  14
BRANCH  13  17
ATOM     17  C   UNL     1       7.106  -5.333  26.662  0.00  0.00    +0.162 C 
BRANCH  17  18
ATOM     18  O   UNL     1       7.527  -6.083  27.796  0.00  0.00    -0.395 OA
ATOM     19  H   UNL     1       7.043  -5.736  28.568  0.00  0.00    +0.209 HD
ENDBRANCH  17  18
ENDBRANCH  13  17
ENDBRANCH  12  13
ENDBRANCH  11  12
TORSDOF 6
ENDMDL
