MODEL 1
REMARK VINA RESULT:      -8.1      0.000      0.000
REMARK  Name = 
REMARK  9 active torsions:
REMARK  status: ('A' for Active; 'I' for Inactive)
REMARK    1  A    between atoms: C_1  and  C_2
REMARK    2  A    between atoms: N_7  and  C_8
REMARK    3  A    between atoms: C_8  and  C_9
REMARK    4  A    between atoms: C_9  and  C_12
REMARK    5  A    between atoms: N_21  and  C_22
REMARK    6  A    between atoms: C_22  and  C_23
REMARK    7  A    between atoms: N_25  and  C_26
REMARK    8  A    between atoms: C_26  and  C_27
REMARK    9  A    between atoms: C_30  and  C_31
REMARK                            x       y       z     vdW  Elec       q    Type
REMARK                         _______ _______ _______ _____ _____    ______ ____
ROOT
ATOM      1  C   UNL     1       7.014   0.767  26.253  0.00  0.00    +0.070 C 
ATOM      2  C   UNL     1       7.127  -0.192  25.099  0.00  0.00    +0.083 A 
ATOM      3  N   UNL     1       8.370  -0.684  24.676  0.00  0.00    -0.292 N 
ATOM      4  C   UNL     1       8.429  -1.649  23.657  0.00  0.00    +0.340 A 
ATOM      5  O   UNL     1       9.449  -2.214  23.269  0.00  0.00    -0.259 OA
ATOM      6  C   UNL     1       7.136  -2.071  23.062  0.00  0.00    +0.335 A 
ATOM      7  N   UNL     1       7.203  -3.100  22.213  0.00  0.00    -0.281 N 
ATOM      8  H   UNL     1       8.161  -3.312  21.903  0.00  0.00    +0.152 HD
ATOM      9  N   UNL     1       6.005  -1.524  23.479  0.00  0.00    -0.192 N 
ATOM     10  H   UNL     1       5.117  -1.756  23.051  0.00  0.00    +0.454 HD
ATOM     11  C   UNL     1       5.993  -0.592  24.495  0.00  0.00    +0.330 A 
ENDROOT
BRANCH   3  12
ATOM     12  C   UNL     1       9.658  -0.221  25.254  0.00  0.00    +0.221 C 
BRANCH  12  13
ATOM     13  C   UNL     1      10.459   0.725  24.338  0.00  0.00    +0.233 C 
ATOM     14  N   UNL     1       9.713   1.481  23.450  0.00  0.00    -0.308 N 
ATOM     15  H   UNL     1       8.697   1.505  23.472  0.00  0.00    +0.149 HD
ATOM     16  O   UNL     1      11.688   0.798  24.415  0.00  0.00    -0.274 OA
BRANCH  14  17
ATOM     17  C   UNL     1      10.347   2.524  22.643  0.00  0.00    +0.162 C 
BRANCH  17  18
ATOM     18  C   UNL     1      10.729   3.807  23.358  0.00  0.00    +0.094 A 
ATOM     19  N   UNL     1      12.025   4.220  23.356  0.00  0.00    -0.255 NA
ATOM     20  C   UNL     1      12.261   5.464  23.863  0.00  0.00    +0.111 A 
ATOM     21  C   UNL     1      11.277   6.314  24.363  0.00  0.00    +0.026 A 
ATOM     22  C   UNL     1       9.955   5.875  24.373  0.00  0.00    -0.012 A 
ATOM     23  C   UNL     1       8.849   6.764  24.857  0.00  0.00    +0.047 C 
ATOM     24  C   UNL     1       9.691   4.600  23.861  0.00  0.00    +0.149 A 
ATOM     25  F   UNL     1       8.430   4.145  23.828  0.00  0.00    -0.203 F 
ENDBRANCH  17  18
ENDBRANCH  14  17
ENDBRANCH  12  13
ENDBRANCH   3  12
BRANCH   7  26
ATOM     26  C   UNL     1       6.044  -3.945  21.822  0.00  0.00    +0.194 C 
BRANCH  26  27
ATOM     27  C   UNL     1       6.311  -5.448  22.117  0.00  0.00    +0.346 C 
ATOM     28  F   UNL     1       7.641  -5.689  22.006  0.00  0.00    -0.192 F 
ATOM     29  F   UNL     1       5.729  -6.171  21.107  0.00  0.00    -0.192 F 
BRANCH  27  30
ATOM     30  C   UNL     1       5.748  -5.896  23.441  0.00  0.00    +0.253 A 
ATOM     31  C   UNL     1       6.257  -5.458  24.667  0.00  0.00    +0.080 A 
ATOM     32  C   UNL     1       5.628  -5.849  25.844  0.00  0.00    +0.012 A 
ATOM     33  C   UNL     1       4.515  -6.678  25.791  0.00  0.00    +0.070 A 
ATOM     34  C   UNL     1       4.060  -7.127  24.559  0.00  0.00    +0.307 A 
ATOM     35  N   UNL     1       4.686  -6.739  23.435  0.00  0.00    -0.210 N 
ATOM     36  H   UNL     1       4.346  -7.116  22.543  0.00  0.00    +0.453 HD
ENDBRANCH  27  30
ENDBRANCH  26  27
ENDBRANCH   7  26
TORSDOF 7
ENDMDL
MODEL 2
REMARK VINA RESULT:      -8.0      0.998      1.353
REMARK  Name = 
REMARK  9 active torsions:
REMARK  status: ('A' for Active; 'I' for Inactive)
REMARK    1  A    between atoms: C_1  and  C_2
REMARK    2  A    between atoms: N_7  and  C_8
REMARK    3  A    between atoms: C_8  and  C_9
REMARK    4  A    between atoms: C_9  and  C_12
REMARK    5  A    between atoms: N_21  and  C_22
REMARK    6  A    between atoms: C_22  and  C_23
REMARK    7  A    between atoms: N_25  and  C_26
REMARK    8  A    between atoms: C_26  and  C_27
REMARK    9  A    between atoms: C_30  and  C_31
REMARK                            x       y       z     vdW  Elec       q    Type
REMARK                         _______ _______ _______ _____ _____    ______ ____
ROOT
ATOM      1  C   UNL     1       7.036   0.516  26.350  0.00  0.00    +0.070 C 
ATOM      2  C   UNL     1       7.175  -0.395  25.160  0.00  0.00    +0.083 A 
ATOM      3  N   UNL     1       8.432  -0.829  24.715  0.00  0.00    -0.292 N 
ATOM      4  C   UNL     1       8.519  -1.752  23.660  0.00  0.00    +0.340 A 
ATOM      5  O   UNL     1       9.555  -2.269  23.249  0.00  0.00    -0.259 OA
ATOM      6  C   UNL     1       7.237  -2.193  23.052  0.00  0.00    +0.335 A 
ATOM      7  N   UNL     1       7.336  -3.186  22.165  0.00  0.00    -0.281 N 
ATOM      8  H   UNL     1       8.298  -3.356  21.844  0.00  0.00    +0.152 HD
ATOM      9  N   UNL     1       6.091  -1.700  23.493  0.00  0.00    -0.192 N 
ATOM     10  H   UNL     1       5.209  -1.943  23.059  0.00  0.00    +0.454 HD
ATOM     11  C   UNL     1       6.053  -0.808  24.544  0.00  0.00    +0.330 A 
ENDROOT
BRANCH   3  12
ATOM     12  C   UNL     1       9.707  -0.347  25.308  0.00  0.00    +0.221 C 
BRANCH  12  13
ATOM     13  C   UNL     1      10.460   0.679  24.439  0.00  0.00    +0.233 C 
ATOM     14  N   UNL     1       9.673   1.478  23.627  0.00  0.00    -0.308 N 
ATOM     15  H   UNL     1       8.658   1.477  23.679  0.00  0.00    +0.149 HD
ATOM     16  O   UNL     1      11.689   0.775  24.487  0.00  0.00    -0.274 OA
BRANCH  14  17
ATOM     17  C   UNL     1      10.261   2.588  22.878  0.00  0.00    +0.162 C 
BRANCH  17  18
ATOM     18  C   UNL     1      10.061   3.981  23.448  0.00  0.00    +0.094 A 
ATOM     19  N   UNL     1       8.813   4.394  23.799  0.00  0.00    -0.255 NA
ATOM     20  C   UNL     1       8.737   5.582  24.464  0.00  0.00    +0.111 A 
ATOM     21  C   UNL     1       9.834   6.372  24.800  0.00  0.00    +0.026 A 
ATOM     22  C   UNL     1      11.106   5.946  24.423  0.00  0.00    -0.012 A 
ATOM     23  C   UNL     1      12.326   6.733  24.798  0.00  0.00    +0.047 C 
ATOM     24  C   UNL     1      11.206   4.732  23.736  0.00  0.00    +0.149 A 
ATOM     25  F   UNL     1      12.413   4.271  23.374  0.00  0.00    -0.203 F 
ENDBRANCH  17  18
ENDBRANCH  14  17
ENDBRANCH  12  13
ENDBRANCH   3  12
BRANCH   7  26
ATOM     26  C   UNL     1       6.203  -4.053  21.745  0.00  0.00    +0.194 C 
BRANCH  26  27
ATOM     27  C   UNL     1       6.467  -5.544  22.095  0.00  0.00    +0.346 C 
ATOM     28  F   UNL     1       7.803  -5.779  22.044  0.00  0.00    -0.192 F 
ATOM     29  F   UNL     1       5.930  -6.302  21.085  0.00  0.00    -0.192 F 
BRANCH  27  30
ATOM     30  C   UNL     1       5.855  -5.957  23.408  0.00  0.00    +0.253 A 
ATOM     31  C   UNL     1       6.341  -5.515  24.642  0.00  0.00    +0.080 A 
ATOM     32  C   UNL     1       5.669  -5.871  25.806  0.00  0.00    +0.012 A 
ATOM     33  C   UNL     1       4.535  -6.670  25.733  0.00  0.00    +0.070 A 
ATOM     34  C   UNL     1       4.103  -7.125  24.495  0.00  0.00    +0.307 A 
ATOM     35  N   UNL     1       4.771  -6.771  23.384  0.00  0.00    -0.210 N 
ATOM     36  H   UNL     1       4.446  -7.151  22.488  0.00  0.00    +0.453 HD
ENDBRANCH  27  30
ENDBRANCH  26  27
ENDBRANCH   7  26
TORSDOF 7
ENDMDL
MODEL 3
REMARK VINA RESULT:      -8.0      2.458      9.225
REMARK  Name = 
REMARK  9 active torsions:
REMARK  status: ('A' for Active; 'I' for Inactive)
REMARK    1  A    between atoms: C_1  and  C_2
REMARK    2  A    between atoms: N_7  and  C_8
REMARK    3  A    between atoms: C_8  and  C_9
REMARK    4  A    between atoms: C_9  and  C_12
REMARK    5  A    between atoms: N_21  and  C_22
REMARK    6  A    between atoms: C_22  and  C_23
REMARK    7  A    between atoms: N_25  and  C_26
REMARK    8  A    between atoms: C_26  and  C_27
REMARK    9  A    between atoms: C_30  and  C_31
REMARK                            x       y       z     vdW  Elec       q    Type
REMARK                         _______ _______ _______ _____ _____    ______ ____
ROOT
ATOM      1  C   UNL     1       7.307  -3.408  26.657  0.00  0.00    +0.070 C 
ATOM      2  C   UNL     1       8.260  -2.464  25.975  0.00  0.00    +0.083 A 
ATOM      3  N   UNL     1       8.934  -2.827  24.800  0.00  0.00    -0.292 N 
ATOM      4  C   UNL     1       9.744  -1.888  24.140  0.00  0.00    +0.340 A 
ATOM      5  O   UNL     1      10.306  -2.065  23.062  0.00  0.00    -0.259 OA
ATOM      6  C   UNL     1       9.856  -0.547  24.768  0.00  0.00    +0.335 A 
ATOM      7  N   UNL     1      10.497   0.373  24.042  0.00  0.00    -0.281 N 
ATOM      8  H   UNL     1      11.030  -0.022  23.257  0.00  0.00    +0.152 HD
ATOM      9  N   UNL     1       9.230  -0.293  25.905  0.00  0.00    -0.192 N 
ATOM     10  H   UNL     1       9.335   0.595  26.380  0.00  0.00    +0.454 HD
ATOM     11  C   UNL     1       8.431  -1.241  26.510  0.00  0.00    +0.330 A 
ENDROOT
BRANCH   3  12
ATOM     12  C   UNL     1       8.843  -4.187  24.208  0.00  0.00    +0.221 C 
BRANCH  12  13
ATOM     13  C   UNL     1       7.597  -4.411  23.327  0.00  0.00    +0.233 C 
ATOM     14  N   UNL     1       7.043  -5.679  23.373  0.00  0.00    -0.308 N 
ATOM     15  H   UNL     1       7.359  -6.389  24.029  0.00  0.00    +0.149 HD
ATOM     16  O   UNL     1       7.131  -3.499  22.640  0.00  0.00    -0.274 OA
BRANCH  14  17
ATOM     17  C   UNL     1       5.774  -5.962  22.705  0.00  0.00    +0.162 C 
BRANCH  17  18
ATOM     18  C   UNL     1       4.553  -6.121  23.591  0.00  0.00    +0.094 A 
ATOM     19  N   UNL     1       4.305  -7.317  24.190  0.00  0.00    -0.255 NA
ATOM     20  C   UNL     1       3.295  -7.334  25.107  0.00  0.00    +0.111 A 
ATOM     21  C   UNL     1       2.529  -6.226  25.459  0.00  0.00    +0.026 A 
ATOM     22  C   UNL     1       2.782  -5.009  24.830  0.00  0.00    -0.012 A 
ATOM     23  C   UNL     1       2.019  -3.774  25.202  0.00  0.00    +0.047 C 
ATOM     24  C   UNL     1       3.810  -4.971  23.883  0.00  0.00    +0.149 A 
ATOM     25  F   UNL     1       4.106  -3.815  23.269  0.00  0.00    -0.203 F 
ENDBRANCH  17  18
ENDBRANCH  14  17
ENDBRANCH  12  13
ENDBRANCH   3  12
BRANCH   7  26
ATOM     26  C   UNL     1      10.383   1.840  24.255  0.00  0.00    +0.194 C 
BRANCH  26  27
ATOM     27  C   UNL     1      10.227   2.600  22.908  0.00  0.00    +0.346 C 
ATOM     28  F   UNL     1      10.582   1.775  21.892  0.00  0.00    -0.192 F 
ATOM     29  F   UNL     1      11.159   3.607  22.896  0.00  0.00    -0.192 F 
BRANCH  27  30
ATOM     30  C   UNL     1       8.852   3.190  22.722  0.00  0.00    +0.253 A 
ATOM     31  C   UNL     1       7.746   2.426  22.340  0.00  0.00    +0.080 A 
ATOM     32  C   UNL     1       6.494   3.026  22.274  0.00  0.00    +0.012 A 
ATOM     33  C   UNL     1       6.357   4.376  22.572  0.00  0.00    +0.070 A 
ATOM     34  C   UNL     1       7.483   5.115  22.908  0.00  0.00    +0.307 A 
ATOM     35  N   UNL     1       8.684   4.514  22.963  0.00  0.00    -0.210 N 
ATOM     36  H   UNL     1       9.501   5.095  23.181  0.00  0.00    +0.453 HD
ENDBRANCH  27  30
ENDBRANCH  26  27
ENDBRANCH   7  26
TORSDOF 7
ENDMDL
MODEL 4
REMARK VINA RESULT:      -7.9      2.323      9.640
REMARK  Name = 
REMARK  9 active torsions:
REMARK  status: ('A' for Active; 'I' for Inactive)
REMARK    1  A    between atoms: C_1  and  C_2
REMARK    2  A    between atoms: N_7  and  C_8
REMARK    3  A    between atoms: C_8  and  C_9
REMARK    4  A    between atoms: C_9  and  C_12
REMARK    5  A    between atoms: N_21  and  C_22
REMARK    6  A    between atoms: C_22  and  C_23
REMARK    7  A    between atoms: N_25  and  C_26
REMARK    8  A    between atoms: C_26  and  C_27
REMARK    9  A    between atoms: C_30  and  C_31
REMARK                            x       y       z     vdW  Elec       q    Type
REMARK                         _______ _______ _______ _____ _____    ______ ____
ROOT
ATOM      1  C   UNL     1      10.528  -1.070  22.234  0.00  0.00    +0.070 C 
ATOM      2  C   UNL     1       9.675   0.129  22.550  0.00  0.00    +0.083 A 
ATOM      3  N   UNL     1       9.392   0.497  23.872  0.00  0.00    -0.292 N 
ATOM      4  C   UNL     1       8.669   1.673  24.131  0.00  0.00    +0.340 A 
ATOM      5  O   UNL     1       8.442   2.140  25.245  0.00  0.00    -0.259 OA
ATOM      6  C   UNL     1       8.216   2.451  22.950  0.00  0.00    +0.335 A 
ATOM      7  N   UNL     1       7.675   3.641  23.220  0.00  0.00    -0.281 N 
ATOM      8  H   UNL     1       7.427   3.763  24.211  0.00  0.00    +0.152 HD
ATOM      9  N   UNL     1       8.477   2.013  21.729  0.00  0.00    -0.192 N 
ATOM     10  H   UNL     1       8.132   2.496  20.908  0.00  0.00    +0.454 HD
ATOM     11  C   UNL     1       9.206   0.860  21.522  0.00  0.00    +0.330 A 
ENDROOT
BRANCH   3  12
ATOM     12  C   UNL     1       9.818  -0.314  25.043  0.00  0.00    +0.221 C 
BRANCH  12  13
ATOM     13  C   UNL     1       8.790  -1.374  25.486  0.00  0.00    +0.233 C 
ATOM     14  N   UNL     1       9.014  -2.662  25.028  0.00  0.00    -0.308 N 
ATOM     15  H   UNL     1       9.860  -2.925  24.530  0.00  0.00    +0.149 HD
ATOM     16  O   UNL     1       7.840  -1.075  26.213  0.00  0.00    -0.274 OA
BRANCH  14  17
ATOM     17  C   UNL     1       8.197  -3.776  25.509  0.00  0.00    +0.162 C 
BRANCH  17  18
ATOM     18  C   UNL     1       6.962  -4.120  24.698  0.00  0.00    +0.094 A 
ATOM     19  N   UNL     1       5.782  -3.500  24.970  0.00  0.00    -0.255 NA
ATOM     20  C   UNL     1       4.764  -3.729  24.091  0.00  0.00    +0.111 A 
ATOM     21  C   UNL     1       4.864  -4.533  22.958  0.00  0.00    +0.026 A 
ATOM     22  C   UNL     1       6.073  -5.175  22.697  0.00  0.00    -0.012 A 
ATOM     23  C   UNL     1       6.251  -6.016  21.469  0.00  0.00    +0.047 C 
ATOM     24  C   UNL     1       7.128  -4.958  23.589  0.00  0.00    +0.149 A 
ATOM     25  F   UNL     1       8.318  -5.536  23.364  0.00  0.00    -0.203 F 
ENDBRANCH  17  18
ENDBRANCH  14  17
ENDBRANCH  12  13
ENDBRANCH   3  12
BRANCH   7  26
ATOM     26  C   UNL     1       7.531   4.743  22.232  0.00  0.00    +0.194 C 
BRANCH  26  27
ATOM     27  C   UNL     1       7.690   6.135  22.906  0.00  0.00    +0.346 C 
ATOM     28  F   UNL     1       6.636   6.347  23.735  0.00  0.00    -0.192 F 
ATOM     29  F   UNL     1       7.568   7.082  21.921  0.00  0.00    -0.192 F 
BRANCH  27  30
ATOM     30  C   UNL     1       9.016   6.304  23.600  0.00  0.00    +0.253 A 
ATOM     31  C   UNL     1       9.142   6.902  24.857  0.00  0.00    +0.080 A 
ATOM     32  C   UNL     1      10.390   6.943  25.471  0.00  0.00    +0.012 A 
ATOM     33  C   UNL     1      11.496   6.406  24.824  0.00  0.00    +0.070 A 
ATOM     34  C   UNL     1      11.343   5.857  23.558  0.00  0.00    +0.307 A 
ATOM     35  N   UNL     1      10.128   5.831  22.985  0.00  0.00    -0.210 N 
ATOM     36  H   UNL     1      10.055   5.449  22.035  0.00  0.00    +0.453 HD
ENDBRANCH  27  30
ENDBRANCH  26  27
ENDBRANCH   7  26
TORSDOF 7
ENDMDL
MODEL 5
REMARK VINA RESULT:      -7.9      1.965      9.412
REMARK  Name = 
REMARK  9 active torsions:
REMARK  status: ('A' for Active; 'I' for Inactive)
REMARK    1  A    between atoms: C_1  and  C_2
REMARK    2  A    between atoms: N_7  and  C_8
REMARK    3  A    between atoms: C_8  and  C_9
REMARK    4  A    between atoms: C_9  and  C_12
REMARK    5  A    between atoms: N_21  and  C_22
REMARK    6  A    between atoms: C_22  and  C_23
REMARK    7  A    between atoms: N_25  and  C_26
REMARK    8  A    between atoms: C_26  and  C_27
REMARK    9  A    between atoms: C_30  and  C_31
REMARK                            x       y       z     vdW  Elec       q    Type
REMARK                         _______ _______ _______ _____ _____    ______ ____
ROOT
ATOM      1  C   UNL     1       7.224  -2.725  22.427  0.00  0.00    +0.070 C 
ATOM      2  C   UNL     1       7.667  -1.544  23.248  0.00  0.00    +0.083 A 
ATOM      3  N   UNL     1       8.942  -1.494  23.829  0.00  0.00    -0.292 N 
ATOM      4  C   UNL     1       9.355  -0.337  24.511  0.00  0.00    +0.340 A 
ATOM      5  O   UNL     1      10.475  -0.147  24.978  0.00  0.00    -0.259 OA
ATOM      6  C   UNL     1       8.371   0.772  24.597  0.00  0.00    +0.335 A 
ATOM      7  N   UNL     1       8.840   1.915  25.105  0.00  0.00    -0.281 N 
ATOM      8  H   UNL     1       9.743   1.810  25.585  0.00  0.00    +0.152 HD
ATOM      9  N   UNL     1       7.167   0.632  24.067  0.00  0.00    -0.192 N 
ATOM     10  H   UNL     1       6.461   1.353  24.160  0.00  0.00    +0.454 HD
ATOM     11  C   UNL     1       6.811  -0.516  23.392  0.00  0.00    +0.330 A 
ENDROOT
BRANCH   3  12
ATOM     12  C   UNL     1       9.899  -2.630  23.768  0.00  0.00    +0.221 C 
BRANCH  12  13
ATOM     13  C   UNL     1       9.616  -3.751  24.788  0.00  0.00    +0.233 C 
ATOM     14  N   UNL     1       8.642  -3.476  25.733  0.00  0.00    -0.308 N 
ATOM     15  H   UNL     1       8.064  -2.641  25.695  0.00  0.00    +0.149 HD
ATOM     16  O   UNL     1      10.222  -4.824  24.741  0.00  0.00    -0.274 OA
BRANCH  14  17
ATOM     17  C   UNL     1       8.179  -4.517  26.650  0.00  0.00    +0.162 C 
BRANCH  17  18
ATOM     18  C   UNL     1       6.685  -4.778  26.693  0.00  0.00    +0.094 A 
ATOM     19  N   UNL     1       5.974  -4.450  27.806  0.00  0.00    -0.255 NA
ATOM     20  C   UNL     1       4.617  -4.550  27.705  0.00  0.00    +0.111 A 
ATOM     21  C   UNL     1       3.937  -4.950  26.558  0.00  0.00    +0.026 A 
ATOM     22  C   UNL     1       4.675  -5.298  25.428  0.00  0.00    -0.012 A 
ATOM     23  C   UNL     1       3.995  -5.692  24.152  0.00  0.00    +0.047 C 
ATOM     24  C   UNL     1       6.069  -5.207  25.512  0.00  0.00    +0.149 A 
ATOM     25  F   UNL     1       6.820  -5.508  24.441  0.00  0.00    -0.203 F 
ENDBRANCH  17  18
ENDBRANCH  14  17
ENDBRANCH  12  13
ENDBRANCH   3  12
BRANCH   7  26
ATOM     26  C   UNL     1       8.198   3.243  24.919  0.00  0.00    +0.194 C 
BRANCH  26  27
ATOM     27  C   UNL     1       8.688   3.933  23.615  0.00  0.00    +0.346 C 
ATOM     28  F   UNL     1       7.656   4.624  23.068  0.00  0.00    -0.192 F 
ATOM     29  F   UNL     1       8.976   2.942  22.711  0.00  0.00    -0.192 F 
BRANCH  27  30
ATOM     30  C   UNL     1       9.911   4.787  23.826  0.00  0.00    +0.253 A 
ATOM     31  C   UNL     1       9.904   5.934  24.624  0.00  0.00    +0.080 A 
ATOM     32  C   UNL     1      11.094   6.622  24.840  0.00  0.00    +0.012 A 
ATOM     33  C   UNL     1      12.269   6.172  24.250  0.00  0.00    +0.070 A 
ATOM     34  C   UNL     1      12.232   5.053  23.430  0.00  0.00    +0.307 A 
ATOM     35  N   UNL     1      11.070   4.407  23.234  0.00  0.00    -0.210 N 
ATOM     36  H   UNL     1      11.070   3.604  22.595  0.00  0.00    +0.453 HD
ENDBRANCH  27  30
ENDBRANCH  26  27
ENDBRANCH   7  26
TORSDOF 7
ENDMDL
MODEL 6
REMARK VINA RESULT:      -7.7      2.622      9.591
REMARK  Name = 
REMARK  9 active torsions:
REMARK  status: ('A' for Active; 'I' for Inactive)
REMARK    1  A    between atoms: C_1  and  C_2
REMARK    2  A    between atoms: N_7  and  C_8
REMARK    3  A    between atoms: C_8  and  C_9
REMARK    4  A    between atoms: C_9  and  C_12
REMARK    5  A    between atoms: N_21  and  C_22
REMARK    6  A    between atoms: C_22  and  C_23
REMARK    7  A    between atoms: N_25  and  C_26
REMARK    8  A    between atoms: C_26  and  C_27
REMARK    9  A    between atoms: C_30  and  C_31
REMARK                            x       y       z     vdW  Elec       q    Type
REMARK                         _______ _______ _______ _____ _____    ______ ____
ROOT
ATOM      1  C   UNL     1       7.783  -4.977  23.426  0.00  0.00    +0.070 C 
ATOM      2  C   UNL     1       7.886  -3.518  23.779  0.00  0.00    +0.083 A 
ATOM      3  N   UNL     1       8.378  -3.100  25.023  0.00  0.00    -0.292 N 
ATOM      4  C   UNL     1       8.548  -1.730  25.284  0.00  0.00    +0.340 A 
ATOM      5  O   UNL     1       9.053  -1.254  26.297  0.00  0.00    -0.259 OA
ATOM      6  C   UNL     1       8.152  -0.793  24.202  0.00  0.00    +0.335 A 
ATOM      7  N   UNL     1       8.471   0.488  24.408  0.00  0.00    -0.281 N 
ATOM      8  H   UNL     1       8.733   0.693  25.382  0.00  0.00    +0.152 HD
ATOM      9  N   UNL     1       7.647  -1.260  23.072  0.00  0.00    -0.192 N 
ATOM     10  H   UNL     1       7.320  -0.639  22.342  0.00  0.00    +0.454 HD
ATOM     11  C   UNL     1       7.515  -2.615  22.853  0.00  0.00    +0.330 A 
ENDROOT
BRANCH   3  12
ATOM     12  C   UNL     1       8.731  -4.051  26.110  0.00  0.00    +0.221 C 
BRANCH  12  13
ATOM     13  C   UNL     1       7.524  -4.557  26.924  0.00  0.00    +0.233 C 
ATOM     14  N   UNL     1       6.393  -3.759  26.888  0.00  0.00    -0.308 N 
ATOM     15  H   UNL     1       6.314  -2.951  26.276  0.00  0.00    +0.149 HD
ATOM     16  O   UNL     1       7.578  -5.618  27.551  0.00  0.00    -0.274 OA
BRANCH  14  17
ATOM     17  C   UNL     1       5.140  -4.214  27.490  0.00  0.00    +0.162 C 
BRANCH  17  18
ATOM     18  C   UNL     1       3.982  -4.479  26.546  0.00  0.00    +0.094 A 
ATOM     19  N   UNL     1       3.111  -3.478  26.249  0.00  0.00    -0.255 NA
ATOM     20  C   UNL     1       2.205  -3.740  25.263  0.00  0.00    +0.111 A 
ATOM     21  C   UNL     1       2.129  -4.938  24.558  0.00  0.00    +0.026 A 
ATOM     22  C   UNL     1       3.017  -5.963  24.880  0.00  0.00    -0.012 A 
ATOM     23  C   UNL     1       3.010  -7.257  24.125  0.00  0.00    +0.047 C 
ATOM     24  C   UNL     1       3.950  -5.716  25.892  0.00  0.00    +0.149 A 
ATOM     25  F   UNL     1       4.841  -6.665  26.220  0.00  0.00    -0.203 F 
ENDBRANCH  17  18
ENDBRANCH  14  17
ENDBRANCH  12  13
ENDBRANCH   3  12
BRANCH   7  26
ATOM     26  C   UNL     1       8.556   1.516  23.338  0.00  0.00    +0.194 C 
BRANCH  26  27
ATOM     27  C   UNL     1      10.026   1.954  23.085  0.00  0.00    +0.346 C 
ATOM     28  F   UNL     1      10.365   1.643  21.809  0.00  0.00    -0.192 F 
ATOM     29  F   UNL     1      10.828   1.167  23.872  0.00  0.00    -0.192 F 
BRANCH  27  30
ATOM     30  C   UNL     1      10.272   3.404  23.414  0.00  0.00    +0.253 A 
ATOM     31  C   UNL     1       9.313   4.212  24.032  0.00  0.00    +0.080 A 
ATOM     32  C   UNL     1       9.646   5.517  24.382  0.00  0.00    +0.012 A 
ATOM     33  C   UNL     1      10.916   6.006  24.101  0.00  0.00    +0.070 A 
ATOM     34  C   UNL     1      11.829   5.189  23.450  0.00  0.00    +0.307 A 
ATOM     35  N   UNL     1      11.484   3.933  23.119  0.00  0.00    -0.210 N 
ATOM     36  H   UNL     1      12.171   3.367  22.608  0.00  0.00    +0.453 HD
ENDBRANCH  27  30
ENDBRANCH  26  27
ENDBRANCH   7  26
TORSDOF 7
ENDMDL
MODEL 7
REMARK VINA RESULT:      -7.5      2.388     10.479
REMARK  Name = 
REMARK  9 active torsions:
REMARK  status: ('A' for Active; 'I' for Inactive)
REMARK    1  A    between atoms: C_1  and  C_2
REMARK    2  A    between atoms: N_7  and  C_8
REMARK    3  A    between atoms: C_8  and  C_9
REMARK    4  A    between atoms: C_9  and  C_12
REMARK    5  A    between atoms: N_21  and  C_22
REMARK    6  A    between atoms: C_22  and  C_23
REMARK    7  A    between atoms: N_25  and  C_26
REMARK    8  A    between atoms: C_26  and  C_27
REMARK    9  A    between atoms: C_30  and  C_31
REMARK                            x       y       z     vdW  Elec       q    Type
REMARK                         _______ _______ _______ _____ _____    ______ ____
ROOT
ATOM      1  C   UNL     1       7.878  -4.614  26.507  0.00  0.00    +0.070 C 
ATOM      2  C   UNL     1       8.158  -3.513  25.521  0.00  0.00    +0.083 A 
ATOM      3  N   UNL     1       7.861  -3.658  24.159  0.00  0.00    -0.292 N 
ATOM      4  C   UNL     1       8.049  -2.576  23.283  0.00  0.00    +0.340 A 
ATOM      5  O   UNL     1       7.740  -2.559  22.094  0.00  0.00    -0.259 OA
ATOM      6  C   UNL     1       8.594  -1.327  23.874  0.00  0.00    +0.335 A 
ATOM      7  N   UNL     1       8.612  -0.268  23.060  0.00  0.00    -0.281 N 
ATOM      8  H   UNL     1       8.470  -0.510  22.071  0.00  0.00    +0.152 HD
ATOM      9  N   UNL     1       8.898  -1.281  25.161  0.00  0.00    -0.192 N 
ATOM     10  H   UNL     1       9.321  -0.460  25.575  0.00  0.00    +0.454 HD
ATOM     11  C   UNL     1       8.680  -2.363  25.987  0.00  0.00    +0.330 A 
ENDROOT
BRANCH   3  12
ATOM     12  C   UNL     1       7.354  -4.928  23.576  0.00  0.00    +0.221 C 
BRANCH  12  13
ATOM     13  C   UNL     1       5.822  -4.987  23.424  0.00  0.00    +0.233 C 
ATOM     14  N   UNL     1       5.110  -5.272  24.577  0.00  0.00    -0.308 N 
ATOM     15  H   UNL     1       5.551  -5.326  25.491  0.00  0.00    +0.149 HD
ATOM     16  O   UNL     1       5.281  -4.778  22.335  0.00  0.00    -0.274 OA
BRANCH  14  17
ATOM     17  C   UNL     1       3.649  -5.200  24.589  0.00  0.00    +0.162 C 
BRANCH  17  18
ATOM     18  C   UNL     1       2.898  -6.517  24.654  0.00  0.00    +0.094 A 
ATOM     19  N   UNL     1       2.686  -7.113  25.858  0.00  0.00    -0.255 NA
ATOM     20  C   UNL     1       1.856  -8.196  25.857  0.00  0.00    +0.111 A 
ATOM     21  C   UNL     1       1.226  -8.707  24.725  0.00  0.00    +0.026 A 
ATOM     22  C   UNL     1       1.462  -8.097  23.494  0.00  0.00    -0.012 A 
ATOM     23  C   UNL     1       0.775  -8.576  22.251  0.00  0.00    +0.047 C 
ATOM     24  C   UNL     1       2.313  -6.988  23.473  0.00  0.00    +0.149 A 
ATOM     25  F   UNL     1       2.550  -6.354  22.314  0.00  0.00    -0.203 F 
ENDBRANCH  17  18
ENDBRANCH  14  17
ENDBRANCH  12  13
ENDBRANCH   3  12
BRANCH   7  26
ATOM     26  C   UNL     1       8.715   1.142  23.519  0.00  0.00    +0.194 C 
BRANCH  26  27
ATOM     27  C   UNL     1      10.114   1.742  23.202  0.00  0.00    +0.346 C 
ATOM     28  F   UNL     1      10.442   1.444  21.920  0.00  0.00    -0.192 F 
ATOM     29  F   UNL     1      11.030   1.072  23.973  0.00  0.00    -0.192 F 
BRANCH  27  30
ATOM     30  C   UNL     1      10.199   3.218  23.495  0.00  0.00    +0.253 A 
ATOM     31  C   UNL     1       9.159   3.932  24.097  0.00  0.00    +0.080 A 
ATOM     32  C   UNL     1       9.347   5.273  24.414  0.00  0.00    +0.012 A 
ATOM     33  C   UNL     1      10.555   5.891  24.116  0.00  0.00    +0.070 A 
ATOM     34  C   UNL     1      11.552   5.164  23.480  0.00  0.00    +0.307 A 
ATOM     35  N   UNL     1      11.346   3.870  23.181  0.00  0.00    -0.210 N 
ATOM     36  H   UNL     1      12.090   3.370  22.681  0.00  0.00    +0.453 HD
ENDBRANCH  27  30
ENDBRANCH  26  27
ENDBRANCH   7  26
TORSDOF 7
ENDMDL
MODEL 8
REMARK VINA RESULT:      -7.4      2.592      9.428
REMARK  Name = 
REMARK  9 active torsions:
REMARK  status: ('A' for Active; 'I' for Inactive)
REMARK    1  A    between atoms: C_1  and  C_2
REMARK    2  A    between atoms: N_7  and  C_8
REMARK    3  A    between atoms: C_8  and  C_9
REMARK    4  A    between atoms: C_9  and  C_12
REMARK    5  A    between atoms: N_21  and  C_22
REMARK    6  A    between atoms: C_22  and  C_23
REMARK    7  A    between atoms: N_25  and  C_26
REMARK    8  A    between atoms: C_26  and  C_27
REMARK    9  A    between atoms: C_30  and  C_31
REMARK                            x       y       z     vdW  Elec       q    Type
REMARK                         _______ _______ _______ _____ _____    ______ ____
ROOT
ATOM      1  C   UNL     1       7.506  -4.011  22.359  0.00  0.00    +0.070 C 
ATOM      2  C   UNL     1       7.524  -2.630  22.956  0.00  0.00    +0.083 A 
ATOM      3  N   UNL     1       8.628  -2.163  23.684  0.00  0.00    -0.292 N 
ATOM      4  C   UNL     1       8.649  -0.837  24.148  0.00  0.00    +0.340 A 
ATOM      5  O   UNL     1       9.595  -0.295  24.714  0.00  0.00    -0.259 OA
ATOM      6  C   UNL     1       7.452  -0.009  23.853  0.00  0.00    +0.335 A 
ATOM      7  N   UNL     1       7.561   1.286  24.160  0.00  0.00    -0.281 N 
ATOM      8  H   UNL     1       8.360   1.496  24.772  0.00  0.00    +0.152 HD
ATOM      9  N   UNL     1       6.426  -0.535  23.204  0.00  0.00    -0.192 N 
ATOM     10  H   UNL     1       5.577  -0.007  23.039  0.00  0.00    +0.454 HD
ATOM     11  C   UNL     1       6.456  -1.838  22.752  0.00  0.00    +0.330 A 
ENDROOT
BRANCH   3  12
ATOM     12  C   UNL     1       9.801  -3.018  24.005  0.00  0.00    +0.221 C 
BRANCH  12  13
ATOM     13  C   UNL     1       9.505  -4.141  25.020  0.00  0.00    +0.233 C 
ATOM     14  N   UNL     1       8.451  -3.910  25.887  0.00  0.00    -0.308 N 
ATOM     15  H   UNL     1       7.833  -3.109  25.794  0.00  0.00    +0.149 HD
ATOM     16  O   UNL     1      10.172  -5.179  25.033  0.00  0.00    -0.274 OA
BRANCH  14  17
ATOM     17  C   UNL     1       7.980  -4.964  26.784  0.00  0.00    +0.162 C 
BRANCH  17  18
ATOM     18  C   UNL     1       6.572  -5.482  26.555  0.00  0.00    +0.094 A 
ATOM     19  N   UNL     1       6.157  -5.769  25.292  0.00  0.00    -0.255 NA
ATOM     20  C   UNL     1       4.948  -6.393  25.182  0.00  0.00    +0.111 A 
ATOM     21  C   UNL     1       4.141  -6.747  26.261  0.00  0.00    +0.026 A 
ATOM     22  C   UNL     1       4.570  -6.435  27.549  0.00  0.00    -0.012 A 
ATOM     23  C   UNL     1       3.763  -6.833  28.749  0.00  0.00    +0.047 C 
ATOM     24  C   UNL     1       5.804  -5.791  27.683  0.00  0.00    +0.149 A 
ATOM     25  F   UNL     1       6.268  -5.493  28.906  0.00  0.00    -0.203 F 
ENDBRANCH  17  18
ENDBRANCH  14  17
ENDBRANCH  12  13
ENDBRANCH   3  12
BRANCH   7  26
ATOM     26  C   UNL     1       6.695   2.358  23.602  0.00  0.00    +0.194 C 
BRANCH  26  27
ATOM     27  C   UNL     1       7.386   3.086  22.415  0.00  0.00    +0.346 C 
ATOM     28  F   UNL     1       6.449   3.401  21.486  0.00  0.00    -0.192 F 
ATOM     29  F   UNL     1       8.210   2.177  21.802  0.00  0.00    -0.192 F 
BRANCH  27  30
ATOM     30  C   UNL     1       8.196   4.280  22.850  0.00  0.00    +0.253 A 
ATOM     31  C   UNL     1       7.676   5.577  22.881  0.00  0.00    +0.080 A 
ATOM     32  C   UNL     1       8.460   6.614  23.376  0.00  0.00    +0.012 A 
ATOM     33  C   UNL     1       9.751   6.354  23.819  0.00  0.00    +0.070 A 
ATOM     34  C   UNL     1      10.250   5.062  23.736  0.00  0.00    +0.307 A 
ATOM     35  N   UNL     1       9.475   4.077  23.251  0.00  0.00    -0.210 N 
ATOM     36  H   UNL     1       9.886   3.140  23.171  0.00  0.00    +0.453 HD
ENDBRANCH  27  30
ENDBRANCH  26  27
ENDBRANCH   7  26
TORSDOF 7
ENDMDL
MODEL 9
REMARK VINA RESULT:      -7.3      2.086      9.068
REMARK  Name = 
REMARK  9 active torsions:
REMARK  status: ('A' for Active; 'I' for Inactive)
REMARK    1  A    between atoms: C_1  and  C_2
REMARK    2  A    between atoms: N_7  and  C_8
REMARK    3  A    between atoms: C_8  and  C_9
REMARK    4  A    between atoms: C_9  and  C_12
REMARK    5  A    between atoms: N_21  and  C_22
REMARK    6  A    between atoms: C_22  and  C_23
REMARK    7  A    between atoms: N_25  and  C_26
REMARK    8  A    between atoms: C_26  and  C_27
REMARK    9  A    between atoms: C_30  and  C_31
REMARK                            x       y       z     vdW  Elec       q    Type
REMARK                         _______ _______ _______ _____ _____    ______ ____
ROOT
ATOM      1  C   UNL     1       9.773  -2.227  24.666  0.00  0.00    +0.070 C 
ATOM      2  C   UNL     1       9.950  -0.857  24.070  0.00  0.00    +0.083 A 
ATOM      3  N   UNL     1       9.483  -0.552  22.784  0.00  0.00    -0.292 N 
ATOM      4  C   UNL     1       9.582   0.762  22.297  0.00  0.00    +0.340 A 
ATOM      5  O   UNL     1       9.127   1.162  21.228  0.00  0.00    -0.259 OA
ATOM      6  C   UNL     1      10.223   1.758  23.193  0.00  0.00    +0.335 A 
ATOM      7  N   UNL     1      10.161   3.026  22.777  0.00  0.00    -0.281 N 
ATOM      8  H   UNL     1       9.892   3.120  21.789  0.00  0.00    +0.152 HD
ATOM      9  N   UNL     1      10.687   1.385  24.374  0.00  0.00    -0.192 N 
ATOM     10  H   UNL     1      11.176   2.033  24.980  0.00  0.00    +0.454 HD
ATOM     11  C   UNL     1      10.551   0.086  24.819  0.00  0.00    +0.330 A 
ENDROOT
BRANCH   3  12
ATOM     12  C   UNL     1       8.880  -1.570  21.884  0.00  0.00    +0.221 C 
BRANCH  12  13
ATOM     13  C   UNL     1       7.466  -2.023  22.299  0.00  0.00    +0.233 C 
ATOM     14  N   UNL     1       7.156  -3.348  22.042  0.00  0.00    -0.308 N 
ATOM     15  H   UNL     1       7.846  -4.016  21.710  0.00  0.00    +0.149 HD
ATOM     16  O   UNL     1       6.679  -1.241  22.836  0.00  0.00    -0.274 OA
BRANCH  14  17
ATOM     17  C   UNL     1       5.907  -3.929  22.532  0.00  0.00    +0.162 C 
BRANCH  17  18
ATOM     18  C   UNL     1       5.986  -4.752  23.805  0.00  0.00    +0.094 A 
ATOM     19  N   UNL     1       6.977  -4.508  24.705  0.00  0.00    -0.255 NA
ATOM     20  C   UNL     1       6.880  -5.162  25.898  0.00  0.00    +0.111 A 
ATOM     21  C   UNL     1       5.850  -6.035  26.240  0.00  0.00    +0.026 A 
ATOM     22  C   UNL     1       4.848  -6.288  25.306  0.00  0.00    -0.012 A 
ATOM     23  C   UNL     1       3.692  -7.182  25.637  0.00  0.00    +0.047 C 
ATOM     24  C   UNL     1       4.931  -5.631  24.074  0.00  0.00    +0.149 A 
ATOM     25  F   UNL     1       3.975  -5.825  23.152  0.00  0.00    -0.203 F 
ENDBRANCH  17  18
ENDBRANCH  14  17
ENDBRANCH  12  13
ENDBRANCH   3  12
BRANCH   7  26
ATOM     26  C   UNL     1      10.351   4.209  23.657  0.00  0.00    +0.194 C 
BRANCH  26  27
ATOM     27  C   UNL     1       9.035   5.024  23.806  0.00  0.00    +0.346 C 
ATOM     28  F   UNL     1       9.077   6.086  22.964  0.00  0.00    -0.192 F 
ATOM     29  F   UNL     1       9.030   5.564  25.067  0.00  0.00    -0.192 F 
BRANCH  27  30
ATOM     30  C   UNL     1       7.799   4.182  23.619  0.00  0.00    +0.253 A 
ATOM     31  C   UNL     1       7.085   4.144  22.418  0.00  0.00    +0.080 A 
ATOM     32  C   UNL     1       6.005   3.277  22.295  0.00  0.00    +0.012 A 
ATOM     33  C   UNL     1       5.639   2.472  23.367  0.00  0.00    +0.070 A 
ATOM     34  C   UNL     1       6.344   2.566  24.559  0.00  0.00    +0.307 A 
ATOM     35  N   UNL     1       7.382   3.413  24.654  0.00  0.00    -0.210 N 
ATOM     36  H   UNL     1       7.861   3.483  25.560  0.00  0.00    +0.453 HD
ENDBRANCH  27  30
ENDBRANCH  26  27
ENDBRANCH   7  26
TORSDOF 7
ENDMDL
