MODEL 1
REMARK VINA RESULT:      -8.7      0.000      0.000
REMARK  Name = 
REMARK  7 active torsions:
REMARK  status: ('A' for Active; 'I' for Inactive)
REMARK    1  A    between atoms: O_1  and  C_2
REMARK    2  A    between atoms: C_2  and  C_4
REMARK    3  A    between atoms: C_5  and  C_9
REMARK    4  A    between atoms: N_11  and  C_12
REMARK    5  A    between atoms: C_17  and  C_22
REMARK    6  A    between atoms: C_24  and  O_25
REMARK    7  A    between atoms: O_25  and  C_26
REMARK                            x       y       z     vdW  Elec       q    Type
REMARK                         _______ _______ _______ _____ _____    ______ ____
ROOT
ATOM      1  C   UNL     1       8.517  -0.169  22.944  0.00  0.00    +0.111 A 
ATOM      2  C   UNL     1       9.766   0.094  23.499  0.00  0.00    +0.183 A 
ATOM      3  F   UNL     1      10.608  -0.912  23.789  0.00  0.00    -0.200 F 
ATOM      4  C   UNL     1      10.113   1.397  23.876  0.00  0.00    +0.171 A 
ATOM      5  F   UNL     1      11.291   1.577  24.495  0.00  0.00    -0.202 F 
ATOM      6  C   UNL     1       9.254   2.493  23.654  0.00  0.00    +0.058 A 
ATOM      7  C   UNL     1       8.011   2.188  23.071  0.00  0.00    +0.171 A 
ATOM      8  F   UNL     1       7.142   3.161  22.752  0.00  0.00    -0.202 F 
ATOM      9  C   UNL     1       7.633   0.883  22.767  0.00  0.00    +0.183 A 
ATOM     10  F   UNL     1       6.428   0.654  22.220  0.00  0.00    -0.200 F 
ENDROOT
BRANCH   6  11
ATOM     11  C   UNL     1       9.629   3.897  23.971  0.00  0.00    -0.009 A 
ATOM     12  C   UNL     1       8.898   4.679  24.880  0.00  0.00    +0.009 A 
ATOM     13  C   UNL     1       9.321   5.962  25.240  0.00  0.00    +0.004 A 
ATOM     14  C   UNL     1      10.515   6.470  24.736  0.00  0.00    +0.046 A 
ATOM     15  C   UNL     1      11.275   5.714  23.849  0.00  0.00    +0.131 A 
ATOM     16  C   UNL     1      10.787   4.480  23.415  0.00  0.00    +0.054 A 
BRANCH  15  17
ATOM     17  O   UNL     1      12.437   6.282  23.425  0.00  0.00    -0.406 OA
BRANCH  17  18
ATOM     18  C   UNL     1      13.240   5.574  22.483  0.00  0.00    +0.575 C 
ATOM     19  F   UNL     1      13.965   4.641  23.143  0.00  0.00    -0.133 F 
ATOM     20  F   UNL     1      14.101   6.439  21.904  0.00  0.00    -0.133 F 
ATOM     21  F   UNL     1      12.549   4.942  21.511  0.00  0.00    -0.133 F 
ENDBRANCH  17  18
ENDBRANCH  15  17
ENDBRANCH   6  11
BRANCH   1  23
ATOM     22  C   UNL     1       7.466  -2.314  23.474  0.00  0.00    +0.249 C 
ATOM     23  N   UNL     1       8.071  -1.457  22.594  0.00  0.00    -0.277 N 
ATOM     24  H   UNL     1       8.475  -1.843  21.745  0.00  0.00    +0.155 HD
ATOM     25  O   UNL     1       7.224  -2.029  24.645  0.00  0.00    -0.270 OA
BRANCH  22  30
ATOM     26  C   UNL     1       7.588  -4.942  23.454  0.00  0.00    +0.052 C 
ATOM     27  C   UNL     1       7.129  -6.009  22.496  0.00  0.00    +0.070 C 
ATOM     28  C   UNL     1       6.425  -5.222  21.439  0.00  0.00    -0.021 C 
ATOM     29  C   UNL     1       6.497  -3.920  21.739  0.00  0.00    +0.009 C 
ATOM     30  C   UNL     1       7.241  -3.719  22.982  0.00  0.00    +0.047 C 
BRANCH  26  31
ATOM     31  C   UNL     1       8.349  -5.266  24.664  0.00  0.00    +0.334 C 
ATOM     32  O   UNL     1       7.869  -5.249  25.786  0.00  0.00    -0.245 OA
BRANCH  31  33
ATOM     33  O   UNL     1       9.624  -5.632  24.453  0.00  0.00    -0.477 OA
ATOM     34  H   UNL     1      10.260  -5.476  25.173  0.00  0.00    +0.295 HD
ENDBRANCH  31  33
ENDBRANCH  26  31
ENDBRANCH  22  30
ENDBRANCH   1  23
TORSDOF 7
ENDMDL
MODEL 2
REMARK VINA RESULT:      -8.6      0.395      1.919
REMARK  Name = 
REMARK  7 active torsions:
REMARK  status: ('A' for Active; 'I' for Inactive)
REMARK    1  A    between atoms: O_1  and  C_2
REMARK    2  A    between atoms: C_2  and  C_4
REMARK    3  A    between atoms: C_5  and  C_9
REMARK    4  A    between atoms: N_11  and  C_12
REMARK    5  A    between atoms: C_17  and  C_22
REMARK    6  A    between atoms: C_24  and  O_25
REMARK    7  A    between atoms: O_25  and  C_26
REMARK                            x       y       z     vdW  Elec       q    Type
REMARK                         _______ _______ _______ _____ _____    ______ ____
ROOT
ATOM      1  C   UNL     1       8.400   0.027  22.873  0.00  0.00    +0.111 A 
ATOM      2  C   UNL     1       7.569   1.110  22.605  0.00  0.00    +0.183 A 
ATOM      3  F   UNL     1       6.409   0.934  21.951  0.00  0.00    -0.200 F 
ATOM      4  C   UNL     1       7.987   2.413  22.902  0.00  0.00    +0.171 A 
ATOM      5  F   UNL     1       7.187   3.427  22.533  0.00  0.00    -0.202 F 
ATOM      6  C   UNL     1       9.218   2.677  23.536  0.00  0.00    +0.058 A 
ATOM      7  C   UNL     1      10.018   1.553  23.809  0.00  0.00    +0.171 A 
ATOM      8  F   UNL     1      11.180   1.679  24.472  0.00  0.00    -0.202 F 
ATOM      9  C   UNL     1       9.639   0.264  23.444  0.00  0.00    +0.183 A 
ATOM     10  F   UNL     1      10.452  -0.768  23.725  0.00  0.00    -0.200 F 
ENDROOT
BRANCH   6  11
ATOM     11  C   UNL     1       9.651   4.043  23.935  0.00  0.00    -0.009 A 
ATOM     12  C   UNL     1       8.975   4.785  24.917  0.00  0.00    +0.009 A 
ATOM     13  C   UNL     1       9.454   6.026  25.348  0.00  0.00    +0.004 A 
ATOM     14  C   UNL     1      10.649   6.528  24.841  0.00  0.00    +0.046 A 
ATOM     15  C   UNL     1      11.355   5.809  23.882  0.00  0.00    +0.131 A 
ATOM     16  C   UNL     1      10.812   4.625  23.381  0.00  0.00    +0.054 A 
BRANCH  15  17
ATOM     17  O   UNL     1      12.523   6.367  23.459  0.00  0.00    -0.406 OA
BRANCH  17  18
ATOM     18  C   UNL     1      13.308   5.663  22.498  0.00  0.00    +0.575 C 
ATOM     19  F   UNL     1      14.006   4.693  23.133  0.00  0.00    -0.133 F 
ATOM     20  F   UNL     1      14.193   6.520  21.944  0.00  0.00    -0.133 F 
ATOM     21  F   UNL     1      12.601   5.077  21.509  0.00  0.00    -0.133 F 
ENDBRANCH  17  18
ENDBRANCH  15  17
ENDBRANCH   6  11
BRANCH   1  23
ATOM     22  C   UNL     1       7.216  -2.074  23.284  0.00  0.00    +0.249 C 
ATOM     23  N   UNL     1       8.079  -1.304  22.551  0.00  0.00    -0.277 N 
ATOM     24  H   UNL     1       8.731  -1.771  21.927  0.00  0.00    +0.155 HD
ATOM     25  O   UNL     1       6.612  -1.667  24.274  0.00  0.00    -0.270 OA
BRANCH  22  30
ATOM     26  C   UNL     1       7.713  -4.654  23.424  0.00  0.00    +0.052 C 
ATOM     27  C   UNL     1       7.323  -5.847  22.594  0.00  0.00    +0.070 C 
ATOM     28  C   UNL     1       6.413  -5.252  21.570  0.00  0.00    -0.021 C 
ATOM     29  C   UNL     1       6.324  -3.933  21.774  0.00  0.00    +0.009 C 
ATOM     30  C   UNL     1       7.149  -3.532  22.914  0.00  0.00    +0.047 C 
BRANCH  26  31
ATOM     31  C   UNL     1       8.629  -4.772  24.564  0.00  0.00    +0.334 C 
ATOM     32  O   UNL     1       8.382  -5.434  25.559  0.00  0.00    -0.245 OA
BRANCH  31  33
ATOM     33  O   UNL     1       9.799  -4.128  24.423  0.00  0.00    -0.477 OA
ATOM     34  H   UNL     1       9.766  -3.187  24.178  0.00  0.00    +0.295 HD
ENDBRANCH  31  33
ENDBRANCH  26  31
ENDBRANCH  22  30
ENDBRANCH   1  23
TORSDOF 7
ENDMDL
MODEL 3
REMARK VINA RESULT:      -8.4      2.793      9.321
REMARK  Name = 
REMARK  7 active torsions:
REMARK  status: ('A' for Active; 'I' for Inactive)
REMARK    1  A    between atoms: O_1  and  C_2
REMARK    2  A    between atoms: C_2  and  C_4
REMARK    3  A    between atoms: C_5  and  C_9
REMARK    4  A    between atoms: N_11  and  C_12
REMARK    5  A    between atoms: C_17  and  C_22
REMARK    6  A    between atoms: C_24  and  O_25
REMARK    7  A    between atoms: O_25  and  C_26
REMARK                            x       y       z     vdW  Elec       q    Type
REMARK                         _______ _______ _______ _____ _____    ______ ____
ROOT
ATOM      1  C   UNL     1       8.986   1.679  24.572  0.00  0.00    +0.111 A 
ATOM      2  C   UNL     1       9.821   0.570  24.671  0.00  0.00    +0.183 A 
ATOM      3  F   UNL     1      11.148   0.726  24.799  0.00  0.00    -0.200 F 
ATOM      4  C   UNL     1       9.303  -0.722  24.514  0.00  0.00    +0.171 A 
ATOM      5  F   UNL     1      10.169  -1.748  24.522  0.00  0.00    -0.202 F 
ATOM      6  C   UNL     1       7.927  -0.957  24.318  0.00  0.00    +0.058 A 
ATOM      7  C   UNL     1       7.115   0.189  24.245  0.00  0.00    +0.171 A 
ATOM      8  F   UNL     1       5.781   0.082  24.129  0.00  0.00    -0.202 F 
ATOM      9  C   UNL     1       7.638   1.477  24.323  0.00  0.00    +0.183 A 
ATOM     10  F   UNL     1       6.811   2.532  24.238  0.00  0.00    -0.200 F 
ENDROOT
BRANCH   6  11
ATOM     11  C   UNL     1       7.340  -2.321  24.228  0.00  0.00    -0.009 A 
ATOM     12  C   UNL     1       7.117  -3.116  25.364  0.00  0.00    +0.009 A 
ATOM     13  C   UNL     1       6.475  -4.355  25.270  0.00  0.00    +0.004 A 
ATOM     14  C   UNL     1       5.996  -4.801  24.041  0.00  0.00    +0.046 A 
ATOM     15  C   UNL     1       6.182  -4.029  22.899  0.00  0.00    +0.131 A 
ATOM     16  C   UNL     1       6.919  -2.847  22.988  0.00  0.00    +0.054 A 
BRANCH  15  17
ATOM     17  O   UNL     1       5.663  -4.535  21.746  0.00  0.00    -0.406 OA
BRANCH  17  18
ATOM     18  C   UNL     1       6.294  -5.669  21.153  0.00  0.00    +0.575 C 
ATOM     19  F   UNL     1       6.025  -5.670  19.827  0.00  0.00    -0.133 F 
ATOM     20  F   UNL     1       5.766  -6.792  21.687  0.00  0.00    -0.133 F 
ATOM     21  F   UNL     1       7.634  -5.712  21.299  0.00  0.00    -0.133 F 
ENDBRANCH  17  18
ENDBRANCH  15  17
ENDBRANCH   6  11
BRANCH   1  23
ATOM     22  C   UNL     1      10.242   3.598  23.720  0.00  0.00    +0.249 C 
ATOM     23  N   UNL     1       9.437   3.009  24.658  0.00  0.00    -0.277 N 
ATOM     24  H   UNL     1       9.388   3.426  25.583  0.00  0.00    +0.155 HD
ATOM     25  O   UNL     1      10.620   3.034  22.695  0.00  0.00    -0.270 OA
BRANCH  22  30
ATOM     26  C   UNL     1      11.903   5.637  23.712  0.00  0.00    +0.052 C 
ATOM     27  C   UNL     1      11.958   6.953  24.441  0.00  0.00    +0.070 C 
ATOM     28  C   UNL     1      10.690   6.945  25.230  0.00  0.00    -0.021 C 
ATOM     29  C   UNL     1      10.038   5.799  25.003  0.00  0.00    +0.009 C 
ATOM     30  C   UNL     1      10.791   4.954  24.076  0.00  0.00    +0.047 C 
BRANCH  26  31
ATOM     31  C   UNL     1      12.976   5.210  22.807  0.00  0.00    +0.334 C 
ATOM     32  O   UNL     1      12.867   5.201  21.592  0.00  0.00    -0.245 OA
BRANCH  31  33
ATOM     33  O   UNL     1      14.125   4.864  23.411  0.00  0.00    -0.477 OA
ATOM     34  H   UNL     1      14.944   4.941  22.892  0.00  0.00    +0.295 HD
ENDBRANCH  31  33
ENDBRANCH  26  31
ENDBRANCH  22  30
ENDBRANCH   1  23
TORSDOF 7
ENDMDL
MODEL 4
REMARK VINA RESULT:      -8.3      2.834      9.510
REMARK  Name = 
REMARK  7 active torsions:
REMARK  status: ('A' for Active; 'I' for Inactive)
REMARK    1  A    between atoms: O_1  and  C_2
REMARK    2  A    between atoms: C_2  and  C_4
REMARK    3  A    between atoms: C_5  and  C_9
REMARK    4  A    between atoms: N_11  and  C_12
REMARK    5  A    between atoms: C_17  and  C_22
REMARK    6  A    between atoms: C_24  and  O_25
REMARK    7  A    between atoms: O_25  and  C_26
REMARK                            x       y       z     vdW  Elec       q    Type
REMARK                         _______ _______ _______ _____ _____    ______ ____
ROOT
ATOM      1  C   UNL     1       9.149   1.454  24.271  0.00  0.00    +0.111 A 
ATOM      2  C   UNL     1      10.023   0.375  24.357  0.00  0.00    +0.183 A 
ATOM      3  F   UNL     1      11.334   0.575  24.566  0.00  0.00    -0.200 F 
ATOM      4  C   UNL     1       9.569  -0.926  24.103  0.00  0.00    +0.171 A 
ATOM      5  F   UNL     1      10.475  -1.917  24.104  0.00  0.00    -0.202 F 
ATOM      6  C   UNL     1       8.216  -1.203  23.820  0.00  0.00    +0.058 A 
ATOM      7  C   UNL     1       7.362  -0.087  23.764  0.00  0.00    +0.171 A 
ATOM      8  F   UNL     1       6.041  -0.238  23.569  0.00  0.00    -0.202 F 
ATOM      9  C   UNL     1       7.826   1.214  23.938  0.00  0.00    +0.183 A 
ATOM     10  F   UNL     1       6.961   2.239  23.865  0.00  0.00    -0.200 F 
ENDROOT
BRANCH   6  11
ATOM     11  C   UNL     1       7.692  -2.581  23.625  0.00  0.00    -0.009 A 
ATOM     12  C   UNL     1       7.531  -3.147  22.350  0.00  0.00    +0.009 A 
ATOM     13  C   UNL     1       7.129  -4.477  22.190  0.00  0.00    +0.004 A 
ATOM     14  C   UNL     1       6.931  -5.285  23.306  0.00  0.00    +0.046 A 
ATOM     15  C   UNL     1       7.102  -4.762  24.584  0.00  0.00    +0.131 A 
ATOM     16  C   UNL     1       7.396  -3.406  24.731  0.00  0.00    +0.054 A 
BRANCH  15  17
ATOM     17  O   UNL     1       6.907  -5.632  25.614  0.00  0.00    -0.406 OA
BRANCH  17  18
ATOM     18  C   UNL     1       5.667  -5.588  26.318  0.00  0.00    +0.575 C 
ATOM     19  F   UNL     1       5.837  -4.870  27.452  0.00  0.00    -0.133 F 
ATOM     20  F   UNL     1       5.320  -6.846  26.668  0.00  0.00    -0.133 F 
ATOM     21  F   UNL     1       4.645  -5.036  25.633  0.00  0.00    -0.133 F 
ENDBRANCH  17  18
ENDBRANCH  15  17
ENDBRANCH   6  11
BRANCH   1  23
ATOM     22  C   UNL     1      10.282   3.496  23.542  0.00  0.00    +0.249 C 
ATOM     23  N   UNL     1       9.539   2.793  24.453  0.00  0.00    -0.277 N 
ATOM     24  H   UNL     1       9.503   3.132  25.410  0.00  0.00    +0.155 HD
ATOM     25  O   UNL     1      10.651   3.037  22.463  0.00  0.00    -0.270 OA
BRANCH  22  30
ATOM     26  C   UNL     1      11.878   5.581  23.700  0.00  0.00    +0.052 C 
ATOM     27  C   UNL     1      11.871   6.854  24.505  0.00  0.00    +0.070 C 
ATOM     28  C   UNL     1      10.583   6.761  25.255  0.00  0.00    -0.021 C 
ATOM     29  C   UNL     1       9.974   5.611  24.943  0.00  0.00    +0.009 C 
ATOM     30  C   UNL     1      10.778   4.845  23.991  0.00  0.00    +0.047 C 
BRANCH  26  31
ATOM     31  C   UNL     1      12.988   5.240  22.804  0.00  0.00    +0.334 C 
ATOM     32  O   UNL     1      12.909   5.288  21.587  0.00  0.00    -0.245 OA
BRANCH  31  33
ATOM     33  O   UNL     1      14.135   4.907  23.420  0.00  0.00    -0.477 OA
ATOM     34  H   UNL     1      14.786   4.397  22.908  0.00  0.00    +0.295 HD
ENDBRANCH  31  33
ENDBRANCH  26  31
ENDBRANCH  22  30
ENDBRANCH   1  23
TORSDOF 7
ENDMDL
MODEL 5
REMARK VINA RESULT:      -8.3      2.049      2.495
REMARK  Name = 
REMARK  7 active torsions:
REMARK  status: ('A' for Active; 'I' for Inactive)
REMARK    1  A    between atoms: O_1  and  C_2
REMARK    2  A    between atoms: C_2  and  C_4
REMARK    3  A    between atoms: C_5  and  C_9
REMARK    4  A    between atoms: N_11  and  C_12
REMARK    5  A    between atoms: C_17  and  C_22
REMARK    6  A    between atoms: C_24  and  O_25
REMARK    7  A    between atoms: O_25  and  C_26
REMARK                            x       y       z     vdW  Elec       q    Type
REMARK                         _______ _______ _______ _____ _____    ______ ____
ROOT
ATOM      1  C   UNL     1       8.413  -0.597  24.150  0.00  0.00    +0.111 A 
ATOM      2  C   UNL     1       8.986  -0.171  22.956  0.00  0.00    +0.183 A 
ATOM      3  F   UNL     1       9.303  -1.059  21.999  0.00  0.00    -0.200 F 
ATOM      4  C   UNL     1       9.352   1.169  22.784  0.00  0.00    +0.171 A 
ATOM      5  F   UNL     1       9.990   1.504  21.651  0.00  0.00    -0.202 F 
ATOM      6  C   UNL     1       9.103   2.144  23.771  0.00  0.00    +0.058 A 
ATOM      7  C   UNL     1       8.503   1.678  24.955  0.00  0.00    +0.171 A 
ATOM      8  F   UNL     1       8.157   2.529  25.935  0.00  0.00    -0.202 F 
ATOM      9  C   UNL     1       8.208   0.332  25.158  0.00  0.00    +0.183 A 
ATOM     10  F   UNL     1       7.643  -0.053  26.314  0.00  0.00    -0.200 F 
ENDROOT
BRANCH   6  11
ATOM     11  C   UNL     1       9.410   3.588  23.584  0.00  0.00    -0.009 A 
ATOM     12  C   UNL     1       8.402   4.563  23.505  0.00  0.00    +0.009 A 
ATOM     13  C   UNL     1       8.712   5.924  23.427  0.00  0.00    +0.004 A 
ATOM     14  C   UNL     1      10.038   6.342  23.479  0.00  0.00    +0.046 A 
ATOM     15  C   UNL     1      11.061   5.404  23.578  0.00  0.00    +0.131 A 
ATOM     16  C   UNL     1      10.744   4.045  23.545  0.00  0.00    +0.054 A 
BRANCH  15  17
ATOM     17  O   UNL     1      12.326   5.905  23.643  0.00  0.00    -0.406 OA
BRANCH  17  18
ATOM     18  C   UNL     1      13.243   5.583  22.599  0.00  0.00    +0.575 C 
ATOM     19  F   UNL     1      14.125   4.668  23.062  0.00  0.00    -0.133 F 
ATOM     20  F   UNL     1      13.932   6.696  22.264  0.00  0.00    -0.133 F 
ATOM     21  F   UNL     1      12.677   5.078  21.484  0.00  0.00    -0.133 F 
ENDBRANCH  17  18
ENDBRANCH  15  17
ENDBRANCH   6  11
BRANCH   1  23
ATOM     22  C   UNL     1       6.865  -2.490  24.090  0.00  0.00    +0.249 C 
ATOM     23  N   UNL     1       8.071  -1.934  24.423  0.00  0.00    -0.277 N 
ATOM     24  H   UNL     1       8.633  -2.391  25.135  0.00  0.00    +0.155 HD
ATOM     25  O   UNL     1       5.977  -1.886  23.491  0.00  0.00    -0.270 OA
BRANCH  22  30
ATOM     26  C   UNL     1       5.975  -4.965  24.143  0.00  0.00    +0.052 C 
ATOM     27  C   UNL     1       5.959  -6.056  25.181  0.00  0.00    +0.070 C 
ATOM     28  C   UNL     1       6.706  -5.438  26.318  0.00  0.00    -0.021 C 
ATOM     29  C   UNL     1       7.064  -4.193  25.985  0.00  0.00    +0.009 C 
ATOM     30  C   UNL     1       6.595  -3.866  24.638  0.00  0.00    +0.047 C 
BRANCH  26  31
ATOM     31  C   UNL     1       5.331  -5.133  22.836  0.00  0.00    +0.334 C 
ATOM     32  O   UNL     1       5.726  -5.917  21.988  0.00  0.00    -0.245 OA
BRANCH  31  33
ATOM     33  O   UNL     1       4.231  -4.387  22.644  0.00  0.00    -0.477 OA
ATOM     34  H   UNL     1       3.937  -4.252  21.726  0.00  0.00    +0.295 HD
ENDBRANCH  31  33
ENDBRANCH  26  31
ENDBRANCH  22  30
ENDBRANCH   1  23
TORSDOF 7
ENDMDL
MODEL 6
REMARK VINA RESULT:      -8.2      3.032      9.682
REMARK  Name = 
REMARK  7 active torsions:
REMARK  status: ('A' for Active; 'I' for Inactive)
REMARK    1  A    between atoms: O_1  and  C_2
REMARK    2  A    between atoms: C_2  and  C_4
REMARK    3  A    between atoms: C_5  and  C_9
REMARK    4  A    between atoms: N_11  and  C_12
REMARK    5  A    between atoms: C_17  and  C_22
REMARK    6  A    between atoms: C_24  and  O_25
REMARK    7  A    between atoms: O_25  and  C_26
REMARK                            x       y       z     vdW  Elec       q    Type
REMARK                         _______ _______ _______ _____ _____    ______ ____
ROOT
ATOM      1  C   UNL     1       8.511   1.200  23.250  0.00  0.00    +0.111 A 
ATOM      2  C   UNL     1       9.015   0.368  22.257  0.00  0.00    +0.183 A 
ATOM      3  F   UNL     1       9.830   0.856  21.307  0.00  0.00    -0.200 F 
ATOM      4  C   UNL     1       8.584  -0.961  22.160  0.00  0.00    +0.171 A 
ATOM      5  F   UNL     1       9.029  -1.691  21.124  0.00  0.00    -0.202 F 
ATOM      6  C   UNL     1       7.686  -1.524  23.089  0.00  0.00    +0.058 A 
ATOM      7  C   UNL     1       7.216  -0.655  24.090  0.00  0.00    +0.171 A 
ATOM      8  F   UNL     1       6.410  -1.101  25.068  0.00  0.00    -0.202 F 
ATOM      9  C   UNL     1       7.583   0.687  24.142  0.00  0.00    +0.183 A 
ATOM     10  F   UNL     1       7.094   1.468  25.118  0.00  0.00    -0.200 F 
ENDROOT
BRANCH   6  11
ATOM     11  C   UNL     1       7.272  -2.953  23.057  0.00  0.00    -0.009 A 
ATOM     12  C   UNL     1       8.093  -3.980  23.551  0.00  0.00    +0.009 A 
ATOM     13  C   UNL     1       7.649  -5.305  23.602  0.00  0.00    +0.004 A 
ATOM     14  C   UNL     1       6.352  -5.622  23.207  0.00  0.00    +0.046 A 
ATOM     15  C   UNL     1       5.505  -4.625  22.733  0.00  0.00    +0.131 A 
ATOM     16  C   UNL     1       5.996  -3.327  22.585  0.00  0.00    +0.054 A 
BRANCH  15  17
ATOM     17  O   UNL     1       4.249  -5.024  22.390  0.00  0.00    -0.406 OA
BRANCH  17  18
ATOM     18  C   UNL     1       3.306  -5.281  23.430  0.00  0.00    +0.575 C 
ATOM     19  F   UNL     1       2.070  -4.959  22.985  0.00  0.00    -0.133 F 
ATOM     20  F   UNL     1       3.591  -4.485  24.484  0.00  0.00    -0.133 F 
ATOM     21  F   UNL     1       3.268  -6.560  23.856  0.00  0.00    -0.133 F 
ENDBRANCH  17  18
ENDBRANCH  15  17
ENDBRANCH   6  11
BRANCH   1  23
ATOM     22  C   UNL     1      10.102   3.002  23.706  0.00  0.00    +0.249 C 
ATOM     23  N   UNL     1       8.848   2.560  23.378  0.00  0.00    -0.277 N 
ATOM     24  H   UNL     1       8.064   3.194  23.509  0.00  0.00    +0.155 HD
ATOM     25  O   UNL     1      11.063   2.256  23.886  0.00  0.00    -0.270 OA
BRANCH  22  30
ATOM     26  C   UNL     1      11.194   5.395  23.753  0.00  0.00    +0.052 C 
ATOM     27  C   UNL     1      10.792   6.724  24.334  0.00  0.00    +0.070 C 
ATOM     28  C   UNL     1       9.439   6.440  24.899  0.00  0.00    -0.021 C 
ATOM     29  C   UNL     1       9.137   5.153  24.692  0.00  0.00    +0.009 C 
ATOM     30  C   UNL     1      10.231   4.474  23.999  0.00  0.00    +0.047 C 
BRANCH  26  31
ATOM     31  C   UNL     1      12.488   5.202  23.091  0.00  0.00    +0.334 C 
ATOM     32  O   UNL     1      13.524   4.969  23.693  0.00  0.00    -0.245 OA
BRANCH  31  33
ATOM     33  O   UNL     1      12.454   5.254  21.749  0.00  0.00    -0.477 OA
ATOM     34  H   UNL     1      12.318   4.418  21.271  0.00  0.00    +0.295 HD
ENDBRANCH  31  33
ENDBRANCH  26  31
ENDBRANCH  22  30
ENDBRANCH   1  23
TORSDOF 7
ENDMDL
MODEL 7
REMARK VINA RESULT:      -8.2      3.064      9.262
REMARK  Name = 
REMARK  7 active torsions:
REMARK  status: ('A' for Active; 'I' for Inactive)
REMARK    1  A    between atoms: O_1  and  C_2
REMARK    2  A    between atoms: C_2  and  C_4
REMARK    3  A    between atoms: C_5  and  C_9
REMARK    4  A    between atoms: N_11  and  C_12
REMARK    5  A    between atoms: C_17  and  C_22
REMARK    6  A    between atoms: C_24  and  O_25
REMARK    7  A    between atoms: O_25  and  C_26
REMARK                            x       y       z     vdW  Elec       q    Type
REMARK                         _______ _______ _______ _____ _____    ______ ____
ROOT
ATOM      1  C   UNL     1       9.031   0.753  24.726  0.00  0.00    +0.111 A 
ATOM      2  C   UNL     1       9.843  -0.355  24.506  0.00  0.00    +0.183 A 
ATOM      3  F   UNL     1      11.151  -0.199  24.247  0.00  0.00    -0.200 F 
ATOM      4  C   UNL     1       9.286  -1.637  24.430  0.00  0.00    +0.171 A 
ATOM      5  F   UNL     1      10.102  -2.657  24.119  0.00  0.00    -0.202 F 
ATOM      6  C   UNL     1       7.910  -1.868  24.635  0.00  0.00    +0.058 A 
ATOM      7  C   UNL     1       7.127  -0.724  24.876  0.00  0.00    +0.171 A 
ATOM      8  F   UNL     1       5.817  -0.831  25.153  0.00  0.00    -0.202 F 
ATOM      9  C   UNL     1       7.667   0.559  24.875  0.00  0.00    +0.183 A 
ATOM     10  F   UNL     1       6.865   1.613  25.103  0.00  0.00    -0.200 F 
ENDROOT
BRANCH   6  11
ATOM     11  C   UNL     1       7.305  -3.227  24.639  0.00  0.00    -0.009 A 
ATOM     12  C   UNL     1       7.160  -3.978  25.816  0.00  0.00    +0.009 A 
ATOM     13  C   UNL     1       6.501  -5.211  25.815  0.00  0.00    +0.004 A 
ATOM     14  C   UNL     1       5.927  -5.695  24.643  0.00  0.00    +0.046 A 
ATOM     15  C   UNL     1       6.034  -4.966  23.462  0.00  0.00    +0.131 A 
ATOM     16  C   UNL     1       6.787  -3.791  23.453  0.00  0.00    +0.054 A 
BRANCH  15  17
ATOM     17  O   UNL     1       5.425  -5.507  22.371  0.00  0.00    -0.406 OA
BRANCH  17  18
ATOM     18  C   UNL     1       6.166  -5.611  21.156  0.00  0.00    +0.575 C 
ATOM     19  F   UNL     1       6.076  -4.436  20.491  0.00  0.00    -0.133 F 
ATOM     20  F   UNL     1       5.609  -6.571  20.386  0.00  0.00    -0.133 F 
ATOM     21  F   UNL     1       7.476  -5.893  21.314  0.00  0.00    -0.133 F 
ENDBRANCH  17  18
ENDBRANCH  15  17
ENDBRANCH   6  11
BRANCH   1  23
ATOM     22  C   UNL     1       9.653   2.855  23.640  0.00  0.00    +0.249 C 
ATOM     23  N   UNL     1       9.504   2.078  24.758  0.00  0.00    -0.277 N 
ATOM     24  H   UNL     1      10.009   2.340  25.599  0.00  0.00    +0.155 HD
ATOM     25  O   UNL     1       9.355   2.484  22.507  0.00  0.00    -0.270 OA
BRANCH  22  30
ATOM     26  C   UNL     1      10.015   5.340  24.423  0.00  0.00    +0.052 C 
ATOM     27  C   UNL     1      11.128   6.342  24.267  0.00  0.00    +0.070 C 
ATOM     28  C   UNL     1      12.180   5.555  23.555  0.00  0.00    -0.021 C 
ATOM     29  C   UNL     1      11.724   4.318  23.324  0.00  0.00    +0.009 C 
ATOM     30  C   UNL     1      10.362   4.169  23.836  0.00  0.00    +0.047 C 
BRANCH  26  31
ATOM     31  C   UNL     1       8.747   5.690  25.072  0.00  0.00    +0.334 C 
ATOM     32  O   UNL     1       7.710   5.888  24.460  0.00  0.00    -0.245 OA
BRANCH  31  33
ATOM     33  O   UNL     1       8.789   5.737  26.414  0.00  0.00    -0.477 OA
ATOM     34  H   UNL     1       8.144   5.195  26.901  0.00  0.00    +0.295 HD
ENDBRANCH  31  33
ENDBRANCH  26  31
ENDBRANCH  22  30
ENDBRANCH   1  23
TORSDOF 7
ENDMDL
MODEL 8
REMARK VINA RESULT:      -8.1      3.024      9.413
REMARK  Name = 
REMARK  7 active torsions:
REMARK  status: ('A' for Active; 'I' for Inactive)
REMARK    1  A    between atoms: O_1  and  C_2
REMARK    2  A    between atoms: C_2  and  C_4
REMARK    3  A    between atoms: C_5  and  C_9
REMARK    4  A    between atoms: N_11  and  C_12
REMARK    5  A    between atoms: C_17  and  C_22
REMARK    6  A    between atoms: C_24  and  O_25
REMARK    7  A    between atoms: O_25  and  C_26
REMARK                            x       y       z     vdW  Elec       q    Type
REMARK                         _______ _______ _______ _____ _____    ______ ____
ROOT
ATOM      1  C   UNL     1       8.233   1.464  25.139  0.00  0.00    +0.111 A 
ATOM      2  C   UNL     1       6.894   1.092  25.190  0.00  0.00    +0.183 A 
ATOM      3  F   UNL     1       5.940   2.010  25.417  0.00  0.00    -0.200 F 
ATOM      4  C   UNL     1       6.531  -0.259  25.129  0.00  0.00    +0.171 A 
ATOM      5  F   UNL     1       5.233  -0.567  25.281  0.00  0.00    -0.202 F 
ATOM      6  C   UNL     1       7.486  -1.281  24.949  0.00  0.00    +0.058 A 
ATOM      7  C   UNL     1       8.826  -0.862  24.881  0.00  0.00    +0.171 A 
ATOM      8  F   UNL     1       9.813  -1.741  24.643  0.00  0.00    -0.202 F 
ATOM      9  C   UNL     1       9.195   0.474  25.020  0.00  0.00    +0.183 A 
ATOM     10  F   UNL     1      10.493   0.811  24.954  0.00  0.00    -0.200 F 
ENDROOT
BRANCH   6  11
ATOM     11  C   UNL     1       7.122  -2.716  24.801  0.00  0.00    -0.009 A 
ATOM     12  C   UNL     1       7.139  -3.608  25.887  0.00  0.00    +0.009 A 
ATOM     13  C   UNL     1       6.701  -4.928  25.749  0.00  0.00    +0.004 A 
ATOM     14  C   UNL     1       6.187  -5.370  24.533  0.00  0.00    +0.046 A 
ATOM     15  C   UNL     1       6.136  -4.507  23.443  0.00  0.00    +0.131 A 
ATOM     16  C   UNL     1       6.676  -3.226  23.563  0.00  0.00    +0.054 A 
BRANCH  15  17
ATOM     17  O   UNL     1       5.599  -5.020  22.302  0.00  0.00    -0.406 OA
BRANCH  17  18
ATOM     18  C   UNL     1       6.429  -5.806  21.449  0.00  0.00    +0.575 C 
ATOM     19  F   UNL     1       6.513  -7.057  21.958  0.00  0.00    -0.133 F 
ATOM     20  F   UNL     1       7.671  -5.275  21.438  0.00  0.00    -0.133 F 
ATOM     21  F   UNL     1       5.996  -5.911  20.176  0.00  0.00    -0.133 F 
ENDBRANCH  17  18
ENDBRANCH  15  17
ENDBRANCH   6  11
BRANCH   1  23
ATOM     22  C   UNL     1       8.768   3.656  24.195  0.00  0.00    +0.249 C 
ATOM     23  N   UNL     1       8.682   2.793  25.253  0.00  0.00    -0.277 N 
ATOM     24  H   UNL     1       9.218   3.001  26.091  0.00  0.00    +0.155 HD
ATOM     25  O   UNL     1       8.430   3.367  23.049  0.00  0.00    -0.270 OA
BRANCH  22  30
ATOM     26  C   UNL     1      10.681   5.462  24.145  0.00  0.00    +0.052 C 
ATOM     27  C   UNL     1      10.846   6.837  24.737  0.00  0.00    +0.070 C 
ATOM     28  C   UNL     1       9.524   7.074  25.390  0.00  0.00    -0.021 C 
ATOM     29  C   UNL     1       8.748   5.998  25.217  0.00  0.00    +0.009 C 
ATOM     30  C   UNL     1       9.460   4.967  24.463  0.00  0.00    +0.047 C 
BRANCH  26  31
ATOM     31  C   UNL     1      11.762   4.806  23.403  0.00  0.00    +0.334 C 
ATOM     32  O   UNL     1      12.933   5.141  23.484  0.00  0.00    -0.245 OA
BRANCH  31  33
ATOM     33  O   UNL     1      11.382   3.763  22.647  0.00  0.00    -0.477 OA
ATOM     34  H   UNL     1      11.178   2.929  23.104  0.00  0.00    +0.295 HD
ENDBRANCH  31  33
ENDBRANCH  26  31
ENDBRANCH  22  30
ENDBRANCH   1  23
TORSDOF 7
ENDMDL
MODEL 9
REMARK VINA RESULT:      -8.0      3.357      9.643
REMARK  Name = 
REMARK  7 active torsions:
REMARK  status: ('A' for Active; 'I' for Inactive)
REMARK    1  A    between atoms: O_1  and  C_2
REMARK    2  A    between atoms: C_2  and  C_4
REMARK    3  A    between atoms: C_5  and  C_9
REMARK    4  A    between atoms: N_11  and  C_12
REMARK    5  A    between atoms: C_17  and  C_22
REMARK    6  A    between atoms: C_24  and  O_25
REMARK    7  A    between atoms: O_25  and  C_26
REMARK                            x       y       z     vdW  Elec       q    Type
REMARK                         _______ _______ _______ _____ _____    ______ ____
ROOT
ATOM      1  C   UNL     1       9.016   0.815  24.248  0.00  0.00    +0.111 A 
ATOM      2  C   UNL     1       9.848  -0.300  24.224  0.00  0.00    +0.183 A 
ATOM      3  F   UNL     1      11.183  -0.153  24.238  0.00  0.00    -0.200 F 
ATOM      4  C   UNL     1       9.310  -1.582  24.061  0.00  0.00    +0.171 A 
ATOM      5  F   UNL     1      10.166  -2.611  23.947  0.00  0.00    -0.202 F 
ATOM      6  C   UNL     1       7.921  -1.805  23.981  0.00  0.00    +0.058 A 
ATOM      7  C   UNL     1       7.113  -0.655  24.031  0.00  0.00    +0.171 A 
ATOM      8  F   UNL     1       5.773  -0.752  24.033  0.00  0.00    -0.202 F 
ATOM      9  C   UNL     1       7.649   0.627  24.115  0.00  0.00    +0.183 A 
ATOM     10  F   UNL     1       6.825   1.687  24.151  0.00  0.00    -0.200 F 
ENDROOT
BRANCH   6  11
ATOM     11  C   UNL     1       7.319  -3.162  23.888  0.00  0.00    -0.009 A 
ATOM     12  C   UNL     1       7.058  -3.781  22.654  0.00  0.00    +0.009 A 
ATOM     13  C   UNL     1       6.584  -5.095  22.586  0.00  0.00    +0.004 A 
ATOM     14  C   UNL     1       6.408  -5.835  23.752  0.00  0.00    +0.046 A 
ATOM     15  C   UNL     1       6.676  -5.259  24.990  0.00  0.00    +0.131 A 
ATOM     16  C   UNL     1       7.045  -3.914  25.050  0.00  0.00    +0.054 A 
BRANCH  15  17
ATOM     17  O   UNL     1       6.496  -6.064  26.073  0.00  0.00    -0.406 OA
BRANCH  17  18
ATOM     18  C   UNL     1       5.166  -6.415  26.450  0.00  0.00    +0.575 C 
ATOM     19  F   UNL     1       4.397  -5.303  26.416  0.00  0.00    -0.133 F 
ATOM     20  F   UNL     1       5.179  -6.876  27.720  0.00  0.00    -0.133 F 
ATOM     21  F   UNL     1       4.580  -7.342  25.663  0.00  0.00    -0.133 F 
ENDBRANCH  17  18
ENDBRANCH  15  17
ENDBRANCH   6  11
BRANCH   1  23
ATOM     22  C   UNL     1      10.032   2.829  23.304  0.00  0.00    +0.249 C 
ATOM     23  N   UNL     1       9.481   2.138  24.350  0.00  0.00    -0.277 N 
ATOM     24  H   UNL     1       9.666   2.465  25.294  0.00  0.00    +0.155 HD
ATOM     25  O   UNL     1      10.142   2.373  22.167  0.00  0.00    -0.270 OA
BRANCH  22  30
ATOM     26  C   UNL     1      10.195   5.290  24.219  0.00  0.00    +0.052 C 
ATOM     27  C   UNL     1      11.282   6.331  24.252  0.00  0.00    +0.070 C 
ATOM     28  C   UNL     1      12.448   5.608  23.661  0.00  0.00    -0.021 C 
ATOM     29  C   UNL     1      12.072   4.368  23.325  0.00  0.00    +0.009 C 
ATOM     30  C   UNL     1      10.660   4.156  23.642  0.00  0.00    +0.047 C 
BRANCH  26  31
ATOM     31  C   UNL     1       8.840   5.573  24.703  0.00  0.00    +0.334 C 
ATOM     32  O   UNL     1       8.144   6.475  24.266  0.00  0.00    -0.245 OA
BRANCH  31  33
ATOM     33  O   UNL     1       8.386   4.733  25.648  0.00  0.00    -0.477 OA
ATOM     34  H   UNL     1       8.276   5.088  26.547  0.00  0.00    +0.295 HD
ENDBRANCH  31  33
ENDBRANCH  26  31
ENDBRANCH  22  30
ENDBRANCH   1  23
TORSDOF 7
ENDMDL
