MODEL 1
REMARK VINA RESULT:      -6.7      0.000      0.000
REMARK  Name = 
REMARK  12 active torsions:
REMARK  status: ('A' for Active; 'I' for Inactive)
REMARK    1  A    between atoms: C_1  and  C_2
REMARK    2  A    between atoms: C_2  and  C_3
REMARK    3  A    between atoms: C_2  and  N_4
REMARK    4  A    between atoms: N_4  and  C_5
REMARK    5  A    between atoms: N_4  and  C_6
REMARK    6  A    between atoms: N_4  and  C_25
REMARK    7  A    between atoms: C_6  and  C_7
REMARK    8  A    between atoms: C_7  and  O_8
REMARK    9  A    between atoms: O_8  and  C_9
REMARK   10  A    between atoms: C_9  and  C_11
REMARK   11  A    between atoms: C_25  and  C_26
REMARK   12  A    between atoms: C_25  and  C_27
REMARK                            x       y       z     vdW  Elec       q    Type
REMARK                         _______ _______ _______ _____ _____    ______ ____
ROOT
ATOM      1  C   UNL     1       5.984  -5.191  23.359  0.00  0.00    +0.164 C 
ATOM      2  C   UNL     1       4.693  -5.725  23.919  0.00  0.00    +0.013 A 
ATOM      3  C   UNL     1       4.527  -5.847  25.301  0.00  0.00    +0.133 A 
ATOM      4  C   UNL     1       3.313  -6.298  25.825  0.00  0.00    +0.046 A 
ATOM      5  C   UNL     1       2.252  -6.623  24.978  0.00  0.00    +0.004 A 
ATOM      6  C   UNL     1       2.415  -6.522  23.599  0.00  0.00    +0.001 A 
ATOM      7  O   UNL     1       5.499  -5.537  26.218  0.00  0.00    -0.455 OA
ATOM      8  C   UNL     1       6.743  -5.173  25.766  0.00  0.00    +0.133 A 
ATOM      9  C   UNL     1       7.706  -4.918  26.744  0.00  0.00    +0.046 A 
ATOM     10  C   UNL     1       8.988  -4.506  26.380  0.00  0.00    +0.004 A 
ATOM     11  C   UNL     1       9.318  -4.371  25.033  0.00  0.00    +0.001 A 
ATOM     12  C   UNL     1       8.364  -4.646  24.053  0.00  0.00    +0.008 A 
ATOM     13  C   UNL     1       3.630  -6.087  23.073  0.00  0.00    +0.008 A 
ATOM     14  C   UNL     1       7.059  -5.027  24.414  0.00  0.00    +0.013 A 
ENDROOT
BRANCH   1  15
ATOM     15  C   UNL     1       5.725  -3.877  22.615  0.00  0.00    +0.319 C 
ATOM     16  O   UNL     1       5.578  -3.783  21.399  0.00  0.00    -0.250 OA
BRANCH  15  17
ATOM     17  O   UNL     1       5.635  -2.806  23.459  0.00  0.00    -0.459 OA
BRANCH  17  18
ATOM     18  C   UNL     1       6.300  -1.603  23.050  0.00  0.00    +0.282 C 
BRANCH  18  19
ATOM     19  C   UNL     1       7.115  -1.054  24.227  0.00  0.00    +0.175 C 
BRANCH  19  20
ATOM     20  N   UNL     1       8.403  -0.210  23.838  0.00  0.00    +0.247 N 
ATOM     21  C   UNL     1       8.010   1.278  23.928  0.00  0.00    +0.193 C 
BRANCH  20  23
ATOM     22  C   UNL     1       9.142   0.648  21.461  0.00  0.00    +0.063 C 
ATOM     23  C   UNL     1       8.801  -0.558  22.341  0.00  0.00    +0.060 C 
ATOM     24  C   UNL     1       9.860  -1.659  22.262  0.00  0.00    +0.063 C 
ENDBRANCH  20  23
BRANCH  20  25
ATOM     25  C   UNL     1       9.523  -0.573  24.923  0.00  0.00    +0.060 C 
ATOM     26  C   UNL     1       8.939  -0.770  26.332  0.00  0.00    +0.063 C 
ATOM     27  C   UNL     1      10.659   0.446  25.016  0.00  0.00    +0.063 C 
ENDBRANCH  20  25
ENDBRANCH  19  20
ENDBRANCH  18  19
ENDBRANCH  17  18
ENDBRANCH  15  17
ENDBRANCH   1  15
TORSDOF 7
ENDMDL
MODEL 2
REMARK VINA RESULT:      -6.6      0.526      2.003
REMARK  Name = 
REMARK  12 active torsions:
REMARK  status: ('A' for Active; 'I' for Inactive)
REMARK    1  A    between atoms: C_1  and  C_2
REMARK    2  A    between atoms: C_2  and  C_3
REMARK    3  A    between atoms: C_2  and  N_4
REMARK    4  A    between atoms: N_4  and  C_5
REMARK    5  A    between atoms: N_4  and  C_6
REMARK    6  A    between atoms: N_4  and  C_25
REMARK    7  A    between atoms: C_6  and  C_7
REMARK    8  A    between atoms: C_7  and  O_8
REMARK    9  A    between atoms: O_8  and  C_9
REMARK   10  A    between atoms: C_9  and  C_11
REMARK   11  A    between atoms: C_25  and  C_26
REMARK   12  A    between atoms: C_25  and  C_27
REMARK                            x       y       z     vdW  Elec       q    Type
REMARK                         _______ _______ _______ _____ _____    ______ ____
ROOT
ATOM      1  C   UNL     1       5.797  -5.315  23.409  0.00  0.00    +0.164 C 
ATOM      2  C   UNL     1       4.439  -5.564  24.006  0.00  0.00    +0.013 A 
ATOM      3  C   UNL     1       4.250  -5.459  25.387  0.00  0.00    +0.133 A 
ATOM      4  C   UNL     1       2.980  -5.644  25.938  0.00  0.00    +0.046 A 
ATOM      5  C   UNL     1       1.886  -5.928  25.119  0.00  0.00    +0.004 A 
ATOM      6  C   UNL     1       2.067  -6.055  23.745  0.00  0.00    +0.001 A 
ATOM      7  O   UNL     1       5.254  -5.165  26.274  0.00  0.00    -0.455 OA
ATOM      8  C   UNL     1       6.540  -5.059  25.807  0.00  0.00    +0.133 A 
ATOM      9  C   UNL     1       7.527  -4.810  26.763  0.00  0.00    +0.046 A 
ATOM     10  C   UNL     1       8.857  -4.649  26.377  0.00  0.00    +0.004 A 
ATOM     11  C   UNL     1       9.209  -4.762  25.034  0.00  0.00    +0.001 A 
ATOM     12  C   UNL     1       8.229  -5.033  24.079  0.00  0.00    +0.008 A 
ATOM     13  C   UNL     1       3.336  -5.885  23.194  0.00  0.00    +0.008 A 
ATOM     14  C   UNL     1       6.880  -5.159  24.457  0.00  0.00    +0.013 A 
ENDROOT
BRANCH   1  15
ATOM     15  C   UNL     1       5.741  -4.099  22.478  0.00  0.00    +0.319 C 
ATOM     16  O   UNL     1       5.772  -4.160  21.251  0.00  0.00    -0.250 OA
BRANCH  15  17
ATOM     17  O   UNL     1       5.613  -2.923  23.160  0.00  0.00    -0.459 OA
BRANCH  17  18
ATOM     18  C   UNL     1       6.502  -1.860  22.790  0.00  0.00    +0.282 C 
BRANCH  18  19
ATOM     19  C   UNL     1       7.377  -1.494  23.996  0.00  0.00    +0.175 C 
BRANCH  19  20
ATOM     20  N   UNL     1       8.670  -0.630  23.672  0.00  0.00    +0.247 N 
ATOM     21  C   UNL     1       9.727  -1.597  23.106  0.00  0.00    +0.193 C 
BRANCH  20  23
ATOM     22  C   UNL     1       8.901  -0.812  26.289  0.00  0.00    +0.063 C 
ATOM     23  C   UNL     1       9.207  -0.000  25.026  0.00  0.00    +0.060 C 
ATOM     24  C   UNL     1      10.679   0.407  24.935  0.00  0.00    +0.063 C 
ENDBRANCH  20  23
BRANCH  20  25
ATOM     25  C   UNL     1       8.228   0.445  22.571  0.00  0.00    +0.060 C 
ATOM     26  C   UNL     1       9.332   0.718  21.535  0.00  0.00    +0.063 C 
ATOM     27  C   UNL     1       7.774   1.785  23.150  0.00  0.00    +0.063 C 
ENDBRANCH  20  25
ENDBRANCH  19  20
ENDBRANCH  18  19
ENDBRANCH  17  18
ENDBRANCH  15  17
ENDBRANCH   1  15
TORSDOF 7
ENDMDL
MODEL 3
REMARK VINA RESULT:      -6.5      1.739      3.697
REMARK  Name = 
REMARK  12 active torsions:
REMARK  status: ('A' for Active; 'I' for Inactive)
REMARK    1  A    between atoms: C_1  and  C_2
REMARK    2  A    between atoms: C_2  and  C_3
REMARK    3  A    between atoms: C_2  and  N_4
REMARK    4  A    between atoms: N_4  and  C_5
REMARK    5  A    between atoms: N_4  and  C_6
REMARK    6  A    between atoms: N_4  and  C_25
REMARK    7  A    between atoms: C_6  and  C_7
REMARK    8  A    between atoms: C_7  and  O_8
REMARK    9  A    between atoms: O_8  and  C_9
REMARK   10  A    between atoms: C_9  and  C_11
REMARK   11  A    between atoms: C_25  and  C_26
REMARK   12  A    between atoms: C_25  and  C_27
REMARK                            x       y       z     vdW  Elec       q    Type
REMARK                         _______ _______ _______ _____ _____    ______ ____
ROOT
ATOM      1  C   UNL     1       7.150  -4.985  25.813  0.00  0.00    +0.164 C 
ATOM      2  C   UNL     1       6.773  -5.204  24.372  0.00  0.00    +0.013 A 
ATOM      3  C   UNL     1       5.569  -5.836  24.051  0.00  0.00    +0.133 A 
ATOM      4  C   UNL     1       5.195  -5.998  22.716  0.00  0.00    +0.046 A 
ATOM      5  C   UNL     1       6.013  -5.525  21.688  0.00  0.00    +0.004 A 
ATOM      6  C   UNL     1       7.224  -4.912  21.997  0.00  0.00    +0.001 A 
ATOM      7  O   UNL     1       4.687  -6.318  24.985  0.00  0.00    -0.455 OA
ATOM      8  C   UNL     1       5.037  -6.269  26.312  0.00  0.00    +0.133 A 
ATOM      9  C   UNL     1       4.123  -6.821  27.212  0.00  0.00    +0.046 A 
ATOM     10  C   UNL     1       4.375  -6.783  28.584  0.00  0.00    +0.004 A 
ATOM     11  C   UNL     1       5.555  -6.214  29.057  0.00  0.00    +0.001 A 
ATOM     12  C   UNL     1       6.480  -5.682  28.159  0.00  0.00    +0.008 A 
ATOM     13  C   UNL     1       7.606  -4.762  23.329  0.00  0.00    +0.008 A 
ATOM     14  C   UNL     1       6.215  -5.684  26.778  0.00  0.00    +0.013 A 
ENDROOT
BRANCH   1  15
ATOM     15  C   UNL     1       7.236  -3.482  26.105  0.00  0.00    +0.319 C 
ATOM     16  O   UNL     1       6.265  -2.758  26.311  0.00  0.00    -0.250 OA
BRANCH  15  17
ATOM     17  O   UNL     1       8.523  -3.030  26.150  0.00  0.00    -0.459 OA
BRANCH  17  18
ATOM     18  C   UNL     1       8.730  -1.637  25.880  0.00  0.00    +0.282 C 
BRANCH  18  19
ATOM     19  C   UNL     1       9.529  -1.490  24.579  0.00  0.00    +0.175 C 
BRANCH  19  20
ATOM     20  N   UNL     1       8.851  -0.600  23.451  0.00  0.00    +0.247 N 
ATOM     21  C   UNL     1       9.027  -1.353  22.118  0.00  0.00    +0.193 C 
BRANCH  20  23
ATOM     22  C   UNL     1      10.829   0.914  24.307  0.00  0.00    +0.063 C 
ATOM     23  C   UNL     1       9.620   0.787  23.375  0.00  0.00    +0.060 C 
ATOM     24  C   UNL     1       9.944   1.194  21.937  0.00  0.00    +0.063 C 
ENDBRANCH  20  23
BRANCH  20  25
ATOM     25  C   UNL     1       7.304  -0.479  23.843  0.00  0.00    +0.060 C 
ATOM     26  C   UNL     1       6.411  -1.425  23.021  0.00  0.00    +0.063 C 
ATOM     27  C   UNL     1       6.736   0.935  23.725  0.00  0.00    +0.063 C 
ENDBRANCH  20  25
ENDBRANCH  19  20
ENDBRANCH  18  19
ENDBRANCH  17  18
ENDBRANCH  15  17
ENDBRANCH   1  15
TORSDOF 7
ENDMDL
MODEL 4
REMARK VINA RESULT:      -6.5      1.759      3.462
REMARK  Name = 
REMARK  12 active torsions:
REMARK  status: ('A' for Active; 'I' for Inactive)
REMARK    1  A    between atoms: C_1  and  C_2
REMARK    2  A    between atoms: C_2  and  C_3
REMARK    3  A    between atoms: C_2  and  N_4
REMARK    4  A    between atoms: N_4  and  C_5
REMARK    5  A    between atoms: N_4  and  C_6
REMARK    6  A    between atoms: N_4  and  C_25
REMARK    7  A    between atoms: C_6  and  C_7
REMARK    8  A    between atoms: C_7  and  O_8
REMARK    9  A    between atoms: O_8  and  C_9
REMARK   10  A    between atoms: C_9  and  C_11
REMARK   11  A    between atoms: C_25  and  C_26
REMARK   12  A    between atoms: C_25  and  C_27
REMARK                            x       y       z     vdW  Elec       q    Type
REMARK                         _______ _______ _______ _____ _____    ______ ____
ROOT
ATOM      1  C   UNL     1       7.217  -4.926  25.601  0.00  0.00    +0.164 C 
ATOM      2  C   UNL     1       6.785  -5.216  24.189  0.00  0.00    +0.013 A 
ATOM      3  C   UNL     1       5.602  -5.918  23.948  0.00  0.00    +0.133 A 
ATOM      4  C   UNL     1       5.175  -6.147  22.638  0.00  0.00    +0.046 A 
ATOM      5  C   UNL     1       5.920  -5.672  21.557  0.00  0.00    +0.004 A 
ATOM      6  C   UNL     1       7.110  -4.989  21.786  0.00  0.00    +0.001 A 
ATOM      7  O   UNL     1       4.790  -6.409  24.939  0.00  0.00    -0.455 OA
ATOM      8  C   UNL     1       5.197  -6.295  26.245  0.00  0.00    +0.133 A 
ATOM      9  C   UNL     1       4.355  -6.859  27.206  0.00  0.00    +0.046 A 
ATOM     10  C   UNL     1       4.669  -6.758  28.562  0.00  0.00    +0.004 A 
ATOM     11  C   UNL     1       5.838  -6.115  28.959  0.00  0.00    +0.001 A 
ATOM     12  C   UNL     1       6.692  -5.570  28.000  0.00  0.00    +0.008 A 
ATOM     13  C   UNL     1       7.546  -4.772  23.092  0.00  0.00    +0.008 A 
ATOM     14  C   UNL     1       6.364  -5.635  26.633  0.00  0.00    +0.013 A 
ENDROOT
BRANCH   1  15
ATOM     15  C   UNL     1       7.238  -3.412  25.838  0.00  0.00    +0.319 C 
ATOM     16  O   UNL     1       6.235  -2.711  25.950  0.00  0.00    -0.250 OA
BRANCH  15  17
ATOM     17  O   UNL     1       8.507  -2.918  25.951  0.00  0.00    -0.459 OA
BRANCH  17  18
ATOM     18  C   UNL     1       8.633  -1.508  26.182  0.00  0.00    +0.282 C 
BRANCH  18  19
ATOM     19  C   UNL     1       9.425  -0.878  25.029  0.00  0.00    +0.175 C 
BRANCH  19  20
ATOM     20  N   UNL     1       8.607   0.107  24.090  0.00  0.00    +0.247 N 
ATOM     21  C   UNL     1       7.327   0.498  24.854  0.00  0.00    +0.193 C 
BRANCH  20  23
ATOM     22  C   UNL     1       9.241  -1.694  22.276  0.00  0.00    +0.063 C 
ATOM     23  C   UNL     1       8.210  -0.672  22.766  0.00  0.00    +0.060 C 
ATOM     24  C   UNL     1       6.797  -1.255  22.835  0.00  0.00    +0.063 C 
ENDBRANCH  20  23
BRANCH  20  25
ATOM     25  C   UNL     1       9.545   1.383  23.852  0.00  0.00    +0.060 C 
ATOM     26  C   UNL     1       9.501   1.885  22.399  0.00  0.00    +0.063 C 
ATOM     27  C   UNL     1      11.008   1.165  24.238  0.00  0.00    +0.063 C 
ENDBRANCH  20  25
ENDBRANCH  19  20
ENDBRANCH  18  19
ENDBRANCH  17  18
ENDBRANCH  15  17
ENDBRANCH   1  15
TORSDOF 7
ENDMDL
MODEL 5
REMARK VINA RESULT:      -6.4      1.846      3.689
REMARK  Name = 
REMARK  12 active torsions:
REMARK  status: ('A' for Active; 'I' for Inactive)
REMARK    1  A    between atoms: C_1  and  C_2
REMARK    2  A    between atoms: C_2  and  C_3
REMARK    3  A    between atoms: C_2  and  N_4
REMARK    4  A    between atoms: N_4  and  C_5
REMARK    5  A    between atoms: N_4  and  C_6
REMARK    6  A    between atoms: N_4  and  C_25
REMARK    7  A    between atoms: C_6  and  C_7
REMARK    8  A    between atoms: C_7  and  O_8
REMARK    9  A    between atoms: O_8  and  C_9
REMARK   10  A    between atoms: C_9  and  C_11
REMARK   11  A    between atoms: C_25  and  C_26
REMARK   12  A    between atoms: C_25  and  C_27
REMARK                            x       y       z     vdW  Elec       q    Type
REMARK                         _______ _______ _______ _____ _____    ______ ____
ROOT
ATOM      1  C   UNL     1       6.962  -4.288  25.421  0.00  0.00    +0.164 C 
ATOM      2  C   UNL     1       6.170  -5.087  26.421  0.00  0.00    +0.013 A 
ATOM      3  C   UNL     1       5.364  -6.144  25.993  0.00  0.00    +0.133 A 
ATOM      4  C   UNL     1       4.664  -6.916  26.923  0.00  0.00    +0.046 A 
ATOM      5  C   UNL     1       4.769  -6.646  28.289  0.00  0.00    +0.004 A 
ATOM      6  C   UNL     1       5.554  -5.583  28.724  0.00  0.00    +0.001 A 
ATOM      7  O   UNL     1       5.209  -6.502  24.678  0.00  0.00    -0.455 OA
ATOM      8  C   UNL     1       5.798  -5.729  23.708  0.00  0.00    +0.133 A 
ATOM      9  C   UNL     1       5.563  -6.112  22.386  0.00  0.00    +0.046 A 
ATOM     10  C   UNL     1       6.152  -5.409  21.334  0.00  0.00    +0.004 A 
ATOM     11  C   UNL     1       6.957  -4.305  21.602  0.00  0.00    +0.001 A 
ATOM     12  C   UNL     1       7.176  -3.907  22.921  0.00  0.00    +0.008 A 
ATOM     13  C   UNL     1       6.241  -4.802  27.797  0.00  0.00    +0.008 A 
ATOM     14  C   UNL     1       6.616  -4.633  23.987  0.00  0.00    +0.013 A 
ENDROOT
BRANCH   1  15
ATOM     15  C   UNL     1       8.461  -4.457  25.691  0.00  0.00    +0.319 C 
ATOM     16  O   UNL     1       9.118  -5.446  25.372  0.00  0.00    -0.250 OA
BRANCH  15  17
ATOM     17  O   UNL     1       9.010  -3.365  26.299  0.00  0.00    -0.459 OA
BRANCH  17  18
ATOM     18  C   UNL     1       8.554  -2.079  25.855  0.00  0.00    +0.282 C 
BRANCH  18  19
ATOM     19  C   UNL     1       9.440  -1.605  24.696  0.00  0.00    +0.175 C 
BRANCH  19  20
ATOM     20  N   UNL     1       9.169  -0.127  24.183  0.00  0.00    +0.247 N 
ATOM     21  C   UNL     1      10.320   0.751  24.711  0.00  0.00    +0.193 C 
BRANCH  20  23
ATOM     22  C   UNL     1       7.844   1.773  25.437  0.00  0.00    +0.063 C 
ATOM     23  C   UNL     1       7.798   0.379  24.804  0.00  0.00    +0.060 C 
ATOM     24  C   UNL     1       6.625   0.215  23.835  0.00  0.00    +0.063 C 
ENDBRANCH  20  23
BRANCH  20  25
ATOM     25  C   UNL     1       9.186  -0.196  22.584  0.00  0.00    +0.060 C 
ATOM     26  C   UNL     1       9.905  -1.449  22.055  0.00  0.00    +0.063 C 
ATOM     27  C   UNL     1       9.805   1.029  21.910  0.00  0.00    +0.063 C 
ENDBRANCH  20  25
ENDBRANCH  19  20
ENDBRANCH  18  19
ENDBRANCH  17  18
ENDBRANCH  15  17
ENDBRANCH   1  15
TORSDOF 7
ENDMDL
MODEL 6
REMARK VINA RESULT:      -6.4      2.008      6.339
REMARK  Name = 
REMARK  12 active torsions:
REMARK  status: ('A' for Active; 'I' for Inactive)
REMARK    1  A    between atoms: C_1  and  C_2
REMARK    2  A    between atoms: C_2  and  C_3
REMARK    3  A    between atoms: C_2  and  N_4
REMARK    4  A    between atoms: N_4  and  C_5
REMARK    5  A    between atoms: N_4  and  C_6
REMARK    6  A    between atoms: N_4  and  C_25
REMARK    7  A    between atoms: C_6  and  C_7
REMARK    8  A    between atoms: C_7  and  O_8
REMARK    9  A    between atoms: O_8  and  C_9
REMARK   10  A    between atoms: C_9  and  C_11
REMARK   11  A    between atoms: C_25  and  C_26
REMARK   12  A    between atoms: C_25  and  C_27
REMARK                            x       y       z     vdW  Elec       q    Type
REMARK                         _______ _______ _______ _____ _____    ______ ____
ROOT
ATOM      1  C   UNL     1       8.095  -0.831  25.218  0.00  0.00    +0.164 C 
ATOM      2  C   UNL     1       8.523  -0.187  23.927  0.00  0.00    +0.013 A 
ATOM      3  C   UNL     1       9.196  -0.937  22.958  0.00  0.00    +0.133 A 
ATOM      4  C   UNL     1       9.553  -0.353  21.740  0.00  0.00    +0.046 A 
ATOM      5  C   UNL     1       9.236   0.980  21.474  0.00  0.00    +0.004 A 
ATOM      6  C   UNL     1       8.583   1.740  22.439  0.00  0.00    +0.001 A 
ATOM      7  O   UNL     1       9.536  -2.257  23.115  0.00  0.00    -0.455 OA
ATOM      8  C   UNL     1       9.292  -2.864  24.322  0.00  0.00    +0.133 A 
ATOM      9  C   UNL     1       9.706  -4.192  24.440  0.00  0.00    +0.046 A 
ATOM     10  C   UNL     1       9.467  -4.902  25.617  0.00  0.00    +0.004 A 
ATOM     11  C   UNL     1       8.835  -4.277  26.689  0.00  0.00    +0.001 A 
ATOM     12  C   UNL     1       8.440  -2.943  26.582  0.00  0.00    +0.008 A 
ATOM     13  C   UNL     1       8.240   1.165  23.661  0.00  0.00    +0.008 A 
ATOM     14  C   UNL     1       8.645  -2.232  25.386  0.00  0.00    +0.013 A 
ENDROOT
BRANCH   1  15
ATOM     15  C   UNL     1       6.566  -0.813  25.326  0.00  0.00    +0.319 C 
ATOM     16  O   UNL     1       5.934  -0.139  26.135  0.00  0.00    -0.250 OA
BRANCH  15  17
ATOM     17  O   UNL     1       5.966  -1.608  24.391  0.00  0.00    -0.459 OA
BRANCH  17  18
ATOM     18  C   UNL     1       5.030  -2.582  24.875  0.00  0.00    +0.282 C 
BRANCH  18  19
ATOM     19  C   UNL     1       4.650  -3.527  23.728  0.00  0.00    +0.175 C 
BRANCH  19  20
ATOM     20  N   UNL     1       5.276  -4.985  23.802  0.00  0.00    +0.247 N 
ATOM     21  C   UNL     1       5.758  -5.195  25.250  0.00  0.00    +0.193 C 
BRANCH  20  23
ATOM     22  C   UNL     1       6.670  -6.359  22.040  0.00  0.00    +0.063 C 
ATOM     23  C   UNL     1       6.521  -5.049  22.820  0.00  0.00    +0.060 C 
ATOM     24  C   UNL     1       6.615  -3.817  21.917  0.00  0.00    +0.063 C 
ENDBRANCH  20  23
BRANCH  20  25
ATOM     25  C   UNL     1       4.092  -6.000  23.438  0.00  0.00    +0.060 C 
ATOM     26  C   UNL     1       2.740  -5.290  23.257  0.00  0.00    +0.063 C 
ATOM     27  C   UNL     1       3.905  -7.132  24.449  0.00  0.00    +0.063 C 
ENDBRANCH  20  25
ENDBRANCH  19  20
ENDBRANCH  18  19
ENDBRANCH  17  18
ENDBRANCH  15  17
ENDBRANCH   1  15
TORSDOF 7
ENDMDL
MODEL 7
REMARK VINA RESULT:      -6.3      2.867      6.257
REMARK  Name = 
REMARK  12 active torsions:
REMARK  status: ('A' for Active; 'I' for Inactive)
REMARK    1  A    between atoms: C_1  and  C_2
REMARK    2  A    between atoms: C_2  and  C_3
REMARK    3  A    between atoms: C_2  and  N_4
REMARK    4  A    between atoms: N_4  and  C_5
REMARK    5  A    between atoms: N_4  and  C_6
REMARK    6  A    between atoms: N_4  and  C_25
REMARK    7  A    between atoms: C_6  and  C_7
REMARK    8  A    between atoms: C_7  and  O_8
REMARK    9  A    between atoms: O_8  and  C_9
REMARK   10  A    between atoms: C_9  and  C_11
REMARK   11  A    between atoms: C_25  and  C_26
REMARK   12  A    between atoms: C_25  and  C_27
REMARK                            x       y       z     vdW  Elec       q    Type
REMARK                         _______ _______ _______ _____ _____    ______ ____
ROOT
ATOM      1  C   UNL     1       9.450  -1.475  24.798  0.00  0.00    +0.164 C 
ATOM      2  C   UNL     1       9.679  -0.406  23.764  0.00  0.00    +0.013 A 
ATOM      3  C   UNL     1       9.144  -0.545  22.481  0.00  0.00    +0.133 A 
ATOM      4  C   UNL     1       9.316   0.467  21.534  0.00  0.00    +0.046 A 
ATOM      5  C   UNL     1      10.016   1.631  21.860  0.00  0.00    +0.004 A 
ATOM      6  C   UNL     1      10.569   1.771  23.129  0.00  0.00    +0.001 A 
ATOM      7  O   UNL     1       8.426  -1.639  22.068  0.00  0.00    -0.455 OA
ATOM      8  C   UNL     1       8.297  -2.706  22.921  0.00  0.00    +0.133 A 
ATOM      9  C   UNL     1       7.600  -3.811  22.428  0.00  0.00    +0.046 A 
ATOM     10  C   UNL     1       7.387  -4.928  23.237  0.00  0.00    +0.004 A 
ATOM     11  C   UNL     1       7.891  -4.952  24.534  0.00  0.00    +0.001 A 
ATOM     12  C   UNL     1       8.607  -3.859  25.023  0.00  0.00    +0.008 A 
ATOM     13  C   UNL     1      10.411   0.755  24.071  0.00  0.00    +0.008 A 
ATOM     14  C   UNL     1       8.795  -2.715  24.225  0.00  0.00    +0.013 A 
ENDROOT
BRANCH   1  15
ATOM     15  C   UNL     1       8.639  -0.903  25.967  0.00  0.00    +0.319 C 
ATOM     16  O   UNL     1       9.068  -0.768  27.110  0.00  0.00    -0.250 OA
BRANCH  15  17
ATOM     17  O   UNL     1       7.383  -0.518  25.594  0.00  0.00    -0.459 OA
BRANCH  17  18
ATOM     18  C   UNL     1       6.870   0.682  26.189  0.00  0.00    +0.282 C 
BRANCH  18  19
ATOM     19  C   UNL     1       7.522   1.895  25.514  0.00  0.00    +0.175 C 
BRANCH  19  20
ATOM     20  N   UNL     1       6.596   2.703  24.507  0.00  0.00    +0.247 N 
ATOM     21  C   UNL     1       6.440   1.834  23.244  0.00  0.00    +0.193 C 
BRANCH  20  23
ATOM     22  C   UNL     1       8.647   4.315  24.860  0.00  0.00    +0.063 C 
ATOM     23  C   UNL     1       7.329   4.057  24.124  0.00  0.00    +0.060 C 
ATOM     24  C   UNL     1       7.458   4.241  22.611  0.00  0.00    +0.063 C 
ENDBRANCH  20  23
BRANCH  20  25
ATOM     25  C   UNL     1       5.189   2.897  25.247  0.00  0.00    +0.060 C 
ATOM     26  C   UNL     1       4.014   3.014  24.261  0.00  0.00    +0.063 C 
ATOM     27  C   UNL     1       5.139   4.096  26.193  0.00  0.00    +0.063 C 
ENDBRANCH  20  25
ENDBRANCH  19  20
ENDBRANCH  18  19
ENDBRANCH  17  18
ENDBRANCH  15  17
ENDBRANCH   1  15
TORSDOF 7
ENDMDL
MODEL 8
REMARK VINA RESULT:      -6.3      2.369      6.485
REMARK  Name = 
REMARK  12 active torsions:
REMARK  status: ('A' for Active; 'I' for Inactive)
REMARK    1  A    between atoms: C_1  and  C_2
REMARK    2  A    between atoms: C_2  and  C_3
REMARK    3  A    between atoms: C_2  and  N_4
REMARK    4  A    between atoms: N_4  and  C_5
REMARK    5  A    between atoms: N_4  and  C_6
REMARK    6  A    between atoms: N_4  and  C_25
REMARK    7  A    between atoms: C_6  and  C_7
REMARK    8  A    between atoms: C_7  and  O_8
REMARK    9  A    between atoms: O_8  and  C_9
REMARK   10  A    between atoms: C_9  and  C_11
REMARK   11  A    between atoms: C_25  and  C_26
REMARK   12  A    between atoms: C_25  and  C_27
REMARK                            x       y       z     vdW  Elec       q    Type
REMARK                         _______ _______ _______ _____ _____    ______ ____
ROOT
ATOM      1  C   UNL     1       8.844  -3.390  23.755  0.00  0.00    +0.164 C 
ATOM      2  C   UNL     1       8.708  -1.911  23.999  0.00  0.00    +0.013 A 
ATOM      3  C   UNL     1       7.459  -1.294  23.890  0.00  0.00    +0.133 A 
ATOM      4  C   UNL     1       7.323   0.069  24.161  0.00  0.00    +0.046 A 
ATOM      5  C   UNL     1       8.428   0.828  24.551  0.00  0.00    +0.004 A 
ATOM      6  C   UNL     1       9.679   0.227  24.644  0.00  0.00    +0.001 A 
ATOM      7  O   UNL     1       6.311  -1.954  23.532  0.00  0.00    -0.455 OA
ATOM      8  C   UNL     1       6.393  -3.274  23.167  0.00  0.00    +0.133 A 
ATOM      9  C   UNL     1       5.200  -3.879  22.764  0.00  0.00    +0.046 A 
ATOM     10  C   UNL     1       5.180  -5.228  22.411  0.00  0.00    +0.004 A 
ATOM     11  C   UNL     1       6.357  -5.971  22.436  0.00  0.00    +0.001 A 
ATOM     12  C   UNL     1       7.554  -5.365  22.817  0.00  0.00    +0.008 A 
ATOM     13  C   UNL     1       9.821  -1.130  24.359  0.00  0.00    +0.008 A 
ATOM     14  C   UNL     1       7.576  -4.014  23.210  0.00  0.00    +0.013 A 
ENDROOT
BRANCH   1  15
ATOM     15  C   UNL     1       9.304  -4.088  25.040  0.00  0.00    +0.319 C 
ATOM     16  O   UNL     1      10.173  -4.955  25.087  0.00  0.00    -0.250 OA
BRANCH  15  17
ATOM     17  O   UNL     1       8.664  -3.616  26.150  0.00  0.00    -0.459 OA
BRANCH  17  18
ATOM     18  C   UNL     1       7.670  -4.469  26.736  0.00  0.00    +0.282 C 
BRANCH  18  19
ATOM     19  C   UNL     1       6.306  -3.773  26.663  0.00  0.00    +0.175 C 
BRANCH  19  20
ATOM     20  N   UNL     1       5.082  -4.591  27.260  0.00  0.00    +0.247 N 
ATOM     21  C   UNL     1       4.999  -4.246  28.760  0.00  0.00    +0.193 C 
BRANCH  20  23
ATOM     22  C   UNL     1       5.021  -7.008  28.305  0.00  0.00    +0.063 C 
ATOM     23  C   UNL     1       5.385  -6.141  27.096  0.00  0.00    +0.060 C 
ATOM     24  C   UNL     1       4.835  -6.705  25.784  0.00  0.00    +0.063 C 
ENDBRANCH  20  23
BRANCH  20  25
ATOM     25  C   UNL     1       3.779  -4.084  26.481  0.00  0.00    +0.060 C 
ATOM     26  C   UNL     1       3.901  -2.623  26.015  0.00  0.00    +0.063 C 
ATOM     27  C   UNL     1       2.480  -4.224  27.275  0.00  0.00    +0.063 C 
ENDBRANCH  20  25
ENDBRANCH  19  20
ENDBRANCH  18  19
ENDBRANCH  17  18
ENDBRANCH  15  17
ENDBRANCH   1  15
TORSDOF 7
ENDMDL
MODEL 9
REMARK VINA RESULT:      -6.3      2.585      6.738
REMARK  Name = 
REMARK  12 active torsions:
REMARK  status: ('A' for Active; 'I' for Inactive)
REMARK    1  A    between atoms: C_1  and  C_2
REMARK    2  A    between atoms: C_2  and  C_3
REMARK    3  A    between atoms: C_2  and  N_4
REMARK    4  A    between atoms: N_4  and  C_5
REMARK    5  A    between atoms: N_4  and  C_6
REMARK    6  A    between atoms: N_4  and  C_25
REMARK    7  A    between atoms: C_6  and  C_7
REMARK    8  A    between atoms: C_7  and  O_8
REMARK    9  A    between atoms: O_8  and  C_9
REMARK   10  A    between atoms: C_9  and  C_11
REMARK   11  A    between atoms: C_25  and  C_26
REMARK   12  A    between atoms: C_25  and  C_27
REMARK                            x       y       z     vdW  Elec       q    Type
REMARK                         _______ _______ _______ _____ _____    ______ ____
ROOT
ATOM      1  C   UNL     1       9.446  -1.539  24.781  0.00  0.00    +0.164 C 
ATOM      2  C   UNL     1       9.637  -0.413  23.801  0.00  0.00    +0.013 A 
ATOM      3  C   UNL     1       9.090  -0.499  22.519  0.00  0.00    +0.133 A 
ATOM      4  C   UNL     1       9.226   0.564  21.624  0.00  0.00    +0.046 A 
ATOM      5  C   UNL     1       9.901   1.726  22.001  0.00  0.00    +0.004 A 
ATOM      6  C   UNL     1      10.467   1.814  23.270  0.00  0.00    +0.001 A 
ATOM      7  O   UNL     1       8.393  -1.588  22.058  0.00  0.00    -0.455 OA
ATOM      8  C   UNL     1       8.300  -2.700  22.857  0.00  0.00    +0.133 A 
ATOM      9  C   UNL     1       7.624  -3.795  22.314  0.00  0.00    +0.046 A 
ATOM     10  C   UNL     1       7.447  -4.956  23.067  0.00  0.00    +0.004 A 
ATOM     11  C   UNL     1       7.968  -5.035  24.356  0.00  0.00    +0.001 A 
ATOM     12  C   UNL     1       8.664  -3.951  24.892  0.00  0.00    +0.008 A 
ATOM     13  C   UNL     1      10.345   0.748  24.160  0.00  0.00    +0.008 A 
ATOM     14  C   UNL     1       8.814  -2.764  24.153  0.00  0.00    +0.013 A 
ENDROOT
BRANCH   1  15
ATOM     15  C   UNL     1       8.637  -1.048  25.987  0.00  0.00    +0.319 C 
ATOM     16  O   UNL     1       9.106  -0.851  27.105  0.00  0.00    -0.250 OA
BRANCH  15  17
ATOM     17  O   UNL     1       7.328  -0.814  25.678  0.00  0.00    -0.459 OA
BRANCH  17  18
ATOM     18  C   UNL     1       6.345  -1.356  26.572  0.00  0.00    +0.282 C 
BRANCH  18  19
ATOM     19  C   UNL     1       5.431  -2.310  25.793  0.00  0.00    +0.175 C 
BRANCH  19  20
ATOM     20  N   UNL     1       4.783  -3.487  26.641  0.00  0.00    +0.247 N 
ATOM     21  C   UNL     1       5.928  -4.162  27.421  0.00  0.00    +0.193 C 
BRANCH  20  23
ATOM     22  C   UNL     1       4.075  -4.084  24.176  0.00  0.00    +0.063 C 
ATOM     23  C   UNL     1       4.143  -4.537  25.637  0.00  0.00    +0.060 C 
ATOM     24  C   UNL     1       4.750  -5.933  25.790  0.00  0.00    +0.063 C 
ENDBRANCH  20  23
BRANCH  20  25
ATOM     25  C   UNL     1       3.736  -2.800  27.638  0.00  0.00    +0.060 C 
ATOM     26  C   UNL     1       3.052  -3.816  28.569  0.00  0.00    +0.063 C 
ATOM     27  C   UNL     1       2.647  -1.985  26.939  0.00  0.00    +0.063 C 
ENDBRANCH  20  25
ENDBRANCH  19  20
ENDBRANCH  18  19
ENDBRANCH  17  18
ENDBRANCH  15  17
ENDBRANCH   1  15
TORSDOF 7
ENDMDL
