MODEL 1
REMARK VINA RESULT:      -6.9      0.000      0.000
REMARK  Name = 
REMARK  5 active torsions:
REMARK  status: ('A' for Active; 'I' for Inactive)
REMARK    1  A    between atoms: C_1  and  C_2
REMARK    2  A    between atoms: C_2  and  O_3
REMARK    3  A    between atoms: O_3  and  C_4
REMARK    4  A    between atoms: C_4  and  C_6
REMARK    5  A    between atoms: C_8  and  C_9
REMARK                            x       y       z     vdW  Elec       q    Type
REMARK                         _______ _______ _______ _____ _____    ______ ____
ROOT
ATOM      1  C   UNL     1       8.710  -3.108  24.209  0.00  0.00    +0.299 C 
ATOM      2  C   UNL     1       8.065  -3.083  22.840  0.00  0.00    +0.253 C 
ATOM      3  O   UNL     1       7.601  -4.078  22.280  0.00  0.00    -0.273 OA
ATOM      4  N   UNL     1       8.126  -1.906  22.131  0.00  0.00    -0.283 N 
ATOM      5  H   UNL     1       7.887  -2.031  21.154  0.00  0.00    +0.155 HD
ATOM      6  C   UNL     1       8.704  -0.693  22.542  0.00  0.00    +0.043 A 
ATOM      7  C   UNL     1       9.252   0.100  21.524  0.00  0.00    +0.025 A 
ATOM      8  C   UNL     1       9.937   1.276  21.831  0.00  0.00    +0.022 A 
ATOM      9  C   UNL     1      10.069   1.669  23.160  0.00  0.00    +0.042 A 
ATOM     10  C   UNL     1       9.493   0.917  24.183  0.00  0.00    +0.032 A 
ATOM     11 CL   UNL     1      10.929   3.111  23.537  0.00  0.00    -0.084 Cl
ATOM     12  C   UNL     1       8.771  -0.246  23.875  0.00  0.00    +0.023 A 
ATOM     13  C   UNL     1       8.013  -0.933  24.964  0.00  0.00    +0.079 C 
ATOM     14  N   UNL     1       7.984  -2.211  25.117  0.00  0.00    -0.258 NA
ENDROOT
BRANCH  13  15
ATOM     15  C   UNL     1       7.191  -0.152  25.954  0.00  0.00    +0.036 A 
ATOM     16  C   UNL     1       7.596   0.073  27.271  0.00  0.00    +0.133 A 
ATOM     17  F   UNL     1       8.724  -0.461  27.758  0.00  0.00    -0.205 F 
ATOM     18  C   UNL     1       6.852   0.898  28.117  0.00  0.00    +0.039 A 
ATOM     19  C   UNL     1       5.699   1.524  27.649  0.00  0.00    +0.003 A 
ATOM     20  C   UNL     1       5.281   1.315  26.337  0.00  0.00    +0.001 A 
ATOM     21  C   UNL     1       6.022   0.479  25.496  0.00  0.00    +0.013 A 
ENDBRANCH  13  15
BRANCH   1  22
ATOM     22  C   UNL     1       8.705  -4.498  24.832  0.00  0.00    +0.341 C 
ATOM     23  O   UNL     1       9.501  -5.401  24.599  0.00  0.00    -0.248 OA
BRANCH  22  24
ATOM     24  O   UNL     1       7.583  -4.641  25.606  0.00  0.00    -0.463 OA
BRANCH  24  26
ATOM     25  C   UNL     1       6.487  -5.288  27.630  0.00  0.00    +0.048 C 
ATOM     26  C   UNL     1       7.795  -5.306  26.859  0.00  0.00    +0.229 C 
ENDBRANCH  24  26
ENDBRANCH  22  24
ENDBRANCH   1  22
TORSDOF 4
ENDMDL
MODEL 2
REMARK VINA RESULT:      -6.5      3.706      6.554
REMARK  Name = 
REMARK  5 active torsions:
REMARK  status: ('A' for Active; 'I' for Inactive)
REMARK    1  A    between atoms: C_1  and  C_2
REMARK    2  A    between atoms: C_2  and  O_3
REMARK    3  A    between atoms: O_3  and  C_4
REMARK    4  A    between atoms: C_4  and  C_6
REMARK    5  A    between atoms: C_8  and  C_9
REMARK                            x       y       z     vdW  Elec       q    Type
REMARK                         _______ _______ _______ _____ _____    ______ ____
ROOT
ATOM      1  C   UNL     1       8.747  -0.877  24.947  0.00  0.00    +0.299 C 
ATOM      2  C   UNL     1       7.616   0.124  25.048  0.00  0.00    +0.253 C 
ATOM      3  O   UNL     1       7.732   1.322  24.785  0.00  0.00    -0.273 OA
ATOM      4  N   UNL     1       6.431  -0.311  25.595  0.00  0.00    -0.283 N 
ATOM      5  H   UNL     1       5.815   0.455  25.840  0.00  0.00    +0.155 HD
ATOM      6  C   UNL     1       6.130  -1.603  26.057  0.00  0.00    +0.043 A 
ATOM      7  C   UNL     1       5.224  -1.676  27.124  0.00  0.00    +0.025 A 
ATOM      8  C   UNL     1       4.931  -2.901  27.724  0.00  0.00    +0.022 A 
ATOM      9  C   UNL     1       5.536  -4.062  27.251  0.00  0.00    +0.042 A 
ATOM     10  C   UNL     1       6.405  -4.016  26.162  0.00  0.00    +0.032 A 
ATOM     11 CL   UNL     1       5.184  -5.569  28.004  0.00  0.00    -0.084 Cl
ATOM     12  C   UNL     1       6.674  -2.791  25.532  0.00  0.00    +0.023 A 
ATOM     13  C   UNL     1       7.461  -2.791  24.263  0.00  0.00    +0.079 C 
ATOM     14  N   UNL     1       8.389  -1.938  23.997  0.00  0.00    -0.258 NA
ENDROOT
BRANCH  13  15
ATOM     15  C   UNL     1       7.187  -3.795  23.176  0.00  0.00    +0.036 A 
ATOM     16  C   UNL     1       7.738  -5.079  23.167  0.00  0.00    +0.133 A 
ATOM     17  F   UNL     1       8.612  -5.471  24.104  0.00  0.00    -0.205 F 
ATOM     18  C   UNL     1       7.365  -6.011  22.198  0.00  0.00    +0.039 A 
ATOM     19  C   UNL     1       6.419  -5.677  21.232  0.00  0.00    +0.003 A 
ATOM     20  C   UNL     1       5.855  -4.403  21.226  0.00  0.00    +0.001 A 
ATOM     21  C   UNL     1       6.240  -3.468  22.191  0.00  0.00    +0.013 A 
ENDBRANCH  13  15
BRANCH   1  22
ATOM     22  C   UNL     1      10.046  -0.244  24.462  0.00  0.00    +0.341 C 
ATOM     23  O   UNL     1      10.831   0.411  25.139  0.00  0.00    -0.248 OA
BRANCH  22  24
ATOM     24  O   UNL     1      10.146  -0.405  23.104  0.00  0.00    -0.463 OA
BRANCH  24  26
ATOM     25  C   UNL     1       8.962   0.783  21.400  0.00  0.00    +0.048 C 
ATOM     26  C   UNL     1      10.146   0.816  22.352  0.00  0.00    +0.229 C 
ENDBRANCH  24  26
ENDBRANCH  22  24
ENDBRANCH   1  22
TORSDOF 4
ENDMDL
MODEL 3
REMARK VINA RESULT:      -6.4      3.616      5.982
REMARK  Name = 
REMARK  5 active torsions:
REMARK  status: ('A' for Active; 'I' for Inactive)
REMARK    1  A    between atoms: C_1  and  C_2
REMARK    2  A    between atoms: C_2  and  O_3
REMARK    3  A    between atoms: O_3  and  C_4
REMARK    4  A    between atoms: C_4  and  C_6
REMARK    5  A    between atoms: C_8  and  C_9
REMARK                            x       y       z     vdW  Elec       q    Type
REMARK                         _______ _______ _______ _____ _____    ______ ____
ROOT
ATOM      1  C   UNL     1       7.998  -2.154  24.603  0.00  0.00    +0.299 C 
ATOM      2  C   UNL     1       8.951  -3.190  24.047  0.00  0.00    +0.253 C 
ATOM      3  O   UNL     1      10.157  -2.997  23.882  0.00  0.00    -0.273 OA
ATOM      4  N   UNL     1       8.408  -4.362  23.573  0.00  0.00    -0.283 N 
ATOM      5  H   UNL     1       9.065  -4.894  23.015  0.00  0.00    +0.155 HD
ATOM      6  C   UNL     1       7.052  -4.731  23.568  0.00  0.00    +0.043 A 
ATOM      7  C   UNL     1       6.648  -5.558  22.510  0.00  0.00    +0.025 A 
ATOM      8  C   UNL     1       5.305  -5.904  22.353  0.00  0.00    +0.022 A 
ATOM      9  C   UNL     1       4.362  -5.431  23.260  0.00  0.00    +0.042 A 
ATOM     10  C   UNL     1       4.751  -4.644  24.343  0.00  0.00    +0.032 A 
ATOM     11 CL   UNL     1       2.705  -5.846  23.054  0.00  0.00    -0.084 Cl
ATOM     12  C   UNL     1       6.105  -4.325  24.526  0.00  0.00    +0.023 A 
ATOM     13  C   UNL     1       6.519  -3.637  25.786  0.00  0.00    +0.079 C 
ATOM     14  N   UNL     1       7.365  -2.667  25.824  0.00  0.00    -0.258 NA
ENDROOT
BRANCH  13  15
ATOM     15  C   UNL     1       5.984  -4.072  27.123  0.00  0.00    +0.036 A 
ATOM     16  C   UNL     1       4.958  -3.397  27.789  0.00  0.00    +0.133 A 
ATOM     17  F   UNL     1       4.432  -2.266  27.301  0.00  0.00    -0.205 F 
ATOM     18  C   UNL     1       4.420  -3.904  28.973  0.00  0.00    +0.039 A 
ATOM     19  C   UNL     1       4.890  -5.105  29.500  0.00  0.00    +0.003 A 
ATOM     20  C   UNL     1       5.910  -5.794  28.848  0.00  0.00    +0.001 A 
ATOM     21  C   UNL     1       6.455  -5.278  27.669  0.00  0.00    +0.013 A 
ENDBRANCH  13  15
BRANCH   1  22
ATOM     22  C   UNL     1       8.698  -0.848  24.960  0.00  0.00    +0.341 C 
ATOM     23  O   UNL     1       9.235  -0.582  26.029  0.00  0.00    -0.248 OA
BRANCH  22  24
ATOM     24  O   UNL     1       8.521   0.050  23.940  0.00  0.00    -0.463 OA
BRANCH  24  26
ATOM     25  C   UNL     1       9.739   0.070  21.883  0.00  0.00    +0.048 C 
ATOM     26  C   UNL     1       9.734   0.519  23.334  0.00  0.00    +0.229 C 
ENDBRANCH  24  26
ENDBRANCH  22  24
ENDBRANCH   1  22
TORSDOF 4
ENDMDL
MODEL 4
REMARK VINA RESULT:      -6.3      3.698      6.536
REMARK  Name = 
REMARK  5 active torsions:
REMARK  status: ('A' for Active; 'I' for Inactive)
REMARK    1  A    between atoms: C_1  and  C_2
REMARK    2  A    between atoms: C_2  and  O_3
REMARK    3  A    between atoms: O_3  and  C_4
REMARK    4  A    between atoms: C_4  and  C_6
REMARK    5  A    between atoms: C_8  and  C_9
REMARK                            x       y       z     vdW  Elec       q    Type
REMARK                         _______ _______ _______ _____ _____    ______ ____
ROOT
ATOM      1  C   UNL     1       8.405  -0.280  23.396  0.00  0.00    +0.299 C 
ATOM      2  C   UNL     1       7.216   0.629  23.167  0.00  0.00    +0.253 C 
ATOM      3  O   UNL     1       7.251   1.644  22.470  0.00  0.00    -0.273 OA
ATOM      4  N   UNL     1       6.074   0.375  23.892  0.00  0.00    -0.283 N 
ATOM      5  H   UNL     1       5.418   1.146  23.860  0.00  0.00    +0.155 HD
ATOM      6  C   UNL     1       5.866  -0.662  24.817  0.00  0.00    +0.043 A 
ATOM      7  C   UNL     1       4.993  -0.371  25.874  0.00  0.00    +0.025 A 
ATOM      8  C   UNL     1       4.792  -1.293  26.902  0.00  0.00    +0.022 A 
ATOM      9  C   UNL     1       5.457  -2.515  26.871  0.00  0.00    +0.042 A 
ATOM     10  C   UNL     1       6.295  -2.841  25.806  0.00  0.00    +0.032 A 
ATOM     11 CL   UNL     1       5.219  -3.643  28.149  0.00  0.00    -0.084 Cl
ATOM     12  C   UNL     1       6.471  -1.931  24.751  0.00  0.00    +0.023 A 
ATOM     13  C   UNL     1       7.225  -2.371  23.539  0.00  0.00    +0.079 C 
ATOM     14  N   UNL     1       8.091  -1.636  22.931  0.00  0.00    -0.258 NA
ENDROOT
BRANCH  13  15
ATOM     15  C   UNL     1       6.988  -3.722  22.921  0.00  0.00    +0.036 A 
ATOM     16  C   UNL     1       6.092  -3.934  21.871  0.00  0.00    +0.133 A 
ATOM     17  F   UNL     1       5.328  -2.943  21.394  0.00  0.00    -0.205 F 
ATOM     18  C   UNL     1       5.990  -5.184  21.258  0.00  0.00    +0.039 A 
ATOM     19  C   UNL     1       6.799  -6.238  21.676  0.00  0.00    +0.003 A 
ATOM     20  C   UNL     1       7.702  -6.045  22.720  0.00  0.00    +0.001 A 
ATOM     21  C   UNL     1       7.793  -4.796  23.340  0.00  0.00    +0.013 A 
ENDBRANCH  13  15
BRANCH   1  22
ATOM     22  C   UNL     1       9.649   0.187  22.650  0.00  0.00    +0.341 C 
ATOM     23  O   UNL     1       9.825   0.150  21.438  0.00  0.00    -0.248 OA
BRANCH  22  24
ATOM     24  O   UNL     1      10.614   0.538  23.559  0.00  0.00    -0.463 OA
BRANCH  24  26
ATOM     25  C   UNL     1      10.633   2.923  23.389  0.00  0.00    +0.048 C 
ATOM     26  C   UNL     1      10.340   1.738  24.294  0.00  0.00    +0.229 C 
ENDBRANCH  24  26
ENDBRANCH  22  24
ENDBRANCH   1  22
TORSDOF 4
ENDMDL
MODEL 5
REMARK VINA RESULT:      -6.3      3.728      5.936
REMARK  Name = 
REMARK  5 active torsions:
REMARK  status: ('A' for Active; 'I' for Inactive)
REMARK    1  A    between atoms: C_1  and  C_2
REMARK    2  A    between atoms: C_2  and  O_3
REMARK    3  A    between atoms: O_3  and  C_4
REMARK    4  A    between atoms: C_4  and  C_6
REMARK    5  A    between atoms: C_8  and  C_9
REMARK                            x       y       z     vdW  Elec       q    Type
REMARK                         _______ _______ _______ _____ _____    ______ ____
ROOT
ATOM      1  C   UNL     1       7.919  -2.265  24.691  0.00  0.00    +0.299 C 
ATOM      2  C   UNL     1       8.851  -3.344  24.182  0.00  0.00    +0.253 C 
ATOM      3  O   UNL     1      10.069  -3.202  24.064  0.00  0.00    -0.273 OA
ATOM      4  N   UNL     1       8.280  -4.499  23.697  0.00  0.00    -0.283 N 
ATOM      5  H   UNL     1       8.937  -5.062  23.170  0.00  0.00    +0.155 HD
ATOM      6  C   UNL     1       6.912  -4.813  23.641  0.00  0.00    +0.043 A 
ATOM      7  C   UNL     1       6.517  -5.633  22.575  0.00  0.00    +0.025 A 
ATOM      8  C   UNL     1       5.168  -5.927  22.367  0.00  0.00    +0.022 A 
ATOM      9  C   UNL     1       4.209  -5.407  23.232  0.00  0.00    +0.042 A 
ATOM     10  C   UNL     1       4.587  -4.626  24.323  0.00  0.00    +0.032 A 
ATOM     11 CL   UNL     1       2.546  -5.757  22.964  0.00  0.00    -0.084 Cl
ATOM     12  C   UNL     1       5.945  -4.360  24.557  0.00  0.00    +0.023 A 
ATOM     13  C   UNL     1       6.336  -3.676  25.826  0.00  0.00    +0.079 C 
ATOM     14  N   UNL     1       7.218  -2.740  25.890  0.00  0.00    -0.258 NA
ENDROOT
BRANCH  13  15
ATOM     15  C   UNL     1       5.732  -4.075  27.145  0.00  0.00    +0.036 A 
ATOM     16  C   UNL     1       6.221  -5.129  27.921  0.00  0.00    +0.133 A 
ATOM     17  F   UNL     1       7.229  -5.901  27.495  0.00  0.00    -0.205 F 
ATOM     18  C   UNL     1       5.698  -5.388  29.188  0.00  0.00    +0.039 A 
ATOM     19  C   UNL     1       4.685  -4.583  29.706  0.00  0.00    +0.003 A 
ATOM     20  C   UNL     1       4.186  -3.525  28.949  0.00  0.00    +0.001 A 
ATOM     21  C   UNL     1       4.704  -3.276  27.675  0.00  0.00    +0.013 A 
ENDBRANCH  13  15
BRANCH   1  22
ATOM     22  C   UNL     1       8.657  -0.985  25.064  0.00  0.00    +0.341 C 
ATOM     23  O   UNL     1       9.139  -0.718  26.160  0.00  0.00    -0.248 OA
BRANCH  22  24
ATOM     24  O   UNL     1       8.588  -0.104  24.017  0.00  0.00    -0.463 OA
BRANCH  24  26
ATOM     25  C   UNL     1       9.924  -0.222  22.038  0.00  0.00    +0.048 C 
ATOM     26  C   UNL     1       9.856   0.281  23.469  0.00  0.00    +0.229 C 
ENDBRANCH  24  26
ENDBRANCH  22  24
ENDBRANCH   1  22
TORSDOF 4
ENDMDL
MODEL 6
REMARK VINA RESULT:      -6.2      5.063      7.256
REMARK  Name = 
REMARK  5 active torsions:
REMARK  status: ('A' for Active; 'I' for Inactive)
REMARK    1  A    between atoms: C_1  and  C_2
REMARK    2  A    between atoms: C_2  and  O_3
REMARK    3  A    between atoms: O_3  and  C_4
REMARK    4  A    between atoms: C_4  and  C_6
REMARK    5  A    between atoms: C_8  and  C_9
REMARK                            x       y       z     vdW  Elec       q    Type
REMARK                         _______ _______ _______ _____ _____    ______ ____
ROOT
ATOM      1  C   UNL     1       6.955   4.946  23.426  0.00  0.00    +0.299 C 
ATOM      2  C   UNL     1       6.992   5.486  24.840  0.00  0.00    +0.253 C 
ATOM      3  O   UNL     1       5.991   5.816  25.477  0.00  0.00    -0.273 OA
ATOM      4  N   UNL     1       8.228   5.748  25.386  0.00  0.00    -0.283 N 
ATOM      5  H   UNL     1       8.167   6.313  26.225  0.00  0.00    +0.155 HD
ATOM      6  C   UNL     1       9.483   5.546  24.789  0.00  0.00    +0.043 A 
ATOM      7  C   UNL     1      10.492   6.441  25.169  0.00  0.00    +0.025 A 
ATOM      8  C   UNL     1      11.749   6.393  24.564  0.00  0.00    +0.022 A 
ATOM      9  C   UNL     1      12.004   5.442  23.581  0.00  0.00    +0.042 A 
ATOM     10  C   UNL     1      11.027   4.515  23.220  0.00  0.00    +0.032 A 
ATOM     11 CL   UNL     1      13.549   5.396  22.825  0.00  0.00    -0.084 Cl
ATOM     12  C   UNL     1       9.775   4.536  23.853  0.00  0.00    +0.023 A 
ATOM     13  C   UNL     1       8.812   3.426  23.582  0.00  0.00    +0.079 C 
ATOM     14  N   UNL     1       7.551   3.605  23.390  0.00  0.00    -0.258 NA
ENDROOT
BRANCH  13  15
ATOM     15  C   UNL     1       9.266   1.992  23.549  0.00  0.00    +0.036 A 
ATOM     16  C   UNL     1       9.399   1.262  22.365  0.00  0.00    +0.133 A 
ATOM     17  F   UNL     1       9.057   1.783  21.180  0.00  0.00    -0.205 F 
ATOM     18  C   UNL     1       9.930  -0.029  22.376  0.00  0.00    +0.039 A 
ATOM     19  C   UNL     1      10.353  -0.602  23.574  0.00  0.00    +0.003 A 
ATOM     20  C   UNL     1      10.232   0.111  24.764  0.00  0.00    +0.001 A 
ATOM     21  C   UNL     1       9.689   1.399  24.751  0.00  0.00    +0.013 A 
ENDBRANCH  13  15
BRANCH   1  22
ATOM     22  C   UNL     1       5.536   4.834  22.881  0.00  0.00    +0.341 C 
ATOM     23  O   UNL     1       4.812   5.765  22.545  0.00  0.00    -0.248 OA
BRANCH  22  24
ATOM     24  O   UNL     1       5.131   3.527  22.946  0.00  0.00    -0.463 OA
BRANCH  24  26
ATOM     25  C   UNL     1       4.420   2.527  24.999  0.00  0.00    +0.048 C 
ATOM     26  C   UNL     1       3.976   3.294  23.765  0.00  0.00    +0.229 C 
ENDBRANCH  24  26
ENDBRANCH  22  24
ENDBRANCH   1  22
TORSDOF 4
ENDMDL
MODEL 7
REMARK VINA RESULT:      -6.2      2.339      4.742
REMARK  Name = 
REMARK  5 active torsions:
REMARK  status: ('A' for Active; 'I' for Inactive)
REMARK    1  A    between atoms: C_1  and  C_2
REMARK    2  A    between atoms: C_2  and  O_3
REMARK    3  A    between atoms: O_3  and  C_4
REMARK    4  A    between atoms: C_4  and  C_6
REMARK    5  A    between atoms: C_8  and  C_9
REMARK                            x       y       z     vdW  Elec       q    Type
REMARK                         _______ _______ _______ _____ _____    ______ ____
ROOT
ATOM      1  C   UNL     1       7.387  -3.186  24.850  0.00  0.00    +0.299 C 
ATOM      2  C   UNL     1       7.506  -3.159  26.359  0.00  0.00    +0.253 C 
ATOM      3  O   UNL     1       7.910  -4.107  27.035  0.00  0.00    -0.273 OA
ATOM      4  N   UNL     1       7.004  -2.059  27.015  0.00  0.00    -0.283 N 
ATOM      5  H   UNL     1       6.909  -2.214  28.012  0.00  0.00    +0.155 HD
ATOM      6  C   UNL     1       6.406  -0.924  26.441  0.00  0.00    +0.043 A 
ATOM      7  C   UNL     1       5.414  -0.301  27.210  0.00  0.00    +0.025 A 
ATOM      8  C   UNL     1       4.687   0.774  26.695  0.00  0.00    +0.022 A 
ATOM      9  C   UNL     1       4.958   1.235  25.410  0.00  0.00    +0.042 A 
ATOM     10  C   UNL     1       5.971   0.657  24.647  0.00  0.00    +0.032 A 
ATOM     11 CL   UNL     1       4.049   2.550  24.772  0.00  0.00    -0.084 Cl
ATOM     12  C   UNL     1       6.729  -0.400  25.175  0.00  0.00    +0.023 A 
ATOM     13  C   UNL     1       7.921  -0.881  24.415  0.00  0.00    +0.079 C 
ATOM     14  N   UNL     1       8.219  -2.126  24.267  0.00  0.00    -0.258 NA
ENDROOT
BRANCH  13  15
ATOM     15  C   UNL     1       8.889   0.086  23.789  0.00  0.00    +0.036 A 
ATOM     16  C   UNL     1       9.102   0.166  22.410  0.00  0.00    +0.133 A 
ATOM     17  F   UNL     1       8.499  -0.675  21.560  0.00  0.00    -0.205 F 
ATOM     18  C   UNL     1       9.925   1.155  21.870  0.00  0.00    +0.039 A 
ATOM     19  C   UNL     1      10.535   2.091  22.702  0.00  0.00    +0.003 A 
ATOM     20  C   UNL     1      10.332   2.030  24.078  0.00  0.00    +0.001 A 
ATOM     21  C   UNL     1       9.516   1.031  24.618  0.00  0.00    +0.013 A 
ENDBRANCH  13  15
BRANCH   1  22
ATOM     22  C   UNL     1       7.844  -4.511  24.252  0.00  0.00    +0.341 C 
ATOM     23  O   UNL     1       9.003  -4.889  24.126  0.00  0.00    -0.248 OA
BRANCH  22  24
ATOM     24  O   UNL     1       6.757  -5.175  23.745  0.00  0.00    -0.463 OA
BRANCH  24  26
ATOM     25  C   UNL     1       6.758  -5.809  21.440  0.00  0.00    +0.048 C 
ATOM     26  C   UNL     1       6.343  -4.745  22.441  0.00  0.00    +0.229 C 
ENDBRANCH  24  26
ENDBRANCH  22  24
ENDBRANCH   1  22
TORSDOF 4
ENDMDL
MODEL 8
REMARK VINA RESULT:      -5.9      3.467      5.237
REMARK  Name = 
REMARK  5 active torsions:
REMARK  status: ('A' for Active; 'I' for Inactive)
REMARK    1  A    between atoms: C_1  and  C_2
REMARK    2  A    between atoms: C_2  and  O_3
REMARK    3  A    between atoms: O_3  and  C_4
REMARK    4  A    between atoms: C_4  and  C_6
REMARK    5  A    between atoms: C_8  and  C_9
REMARK                            x       y       z     vdW  Elec       q    Type
REMARK                         _______ _______ _______ _____ _____    ______ ____
ROOT
ATOM      1  C   UNL     1       8.144  -1.276  22.730  0.00  0.00    +0.299 C 
ATOM      2  C   UNL     1       9.068  -2.397  23.155  0.00  0.00    +0.253 C 
ATOM      3  O   UNL     1      10.297  -2.342  23.079  0.00  0.00    -0.273 OA
ATOM      4  N   UNL     1       8.491  -3.594  23.516  0.00  0.00    -0.283 N 
ATOM      5  H   UNL     1       9.165  -4.349  23.560  0.00  0.00    +0.155 HD
ATOM      6  C   UNL     1       7.120  -3.897  23.564  0.00  0.00    +0.043 A 
ATOM      7  C   UNL     1       6.779  -5.228  23.288  0.00  0.00    +0.025 A 
ATOM      8  C   UNL     1       5.441  -5.617  23.212  0.00  0.00    +0.022 A 
ATOM      9  C   UNL     1       4.438  -4.675  23.421  0.00  0.00    +0.042 A 
ATOM     10  C   UNL     1       4.757  -3.356  23.741  0.00  0.00    +0.032 A 
ATOM     11 CL   UNL     1       2.788  -5.154  23.311  0.00  0.00    -0.084 Cl
ATOM     12  C   UNL     1       6.102  -2.970  23.855  0.00  0.00    +0.023 A 
ATOM     13  C   UNL     1       6.417  -1.605  24.373  0.00  0.00    +0.079 C 
ATOM     14  N   UNL     1       7.329  -0.845  23.873  0.00  0.00    -0.258 NA
ENDROOT
BRANCH  13  15
ATOM     15  C   UNL     1       5.692  -1.035  25.562  0.00  0.00    +0.036 A 
ATOM     16  C   UNL     1       5.573  -1.712  26.778  0.00  0.00    +0.133 A 
ATOM     17  F   UNL     1       6.044  -2.956  26.936  0.00  0.00    -0.205 F 
ATOM     18  C   UNL     1       4.989  -1.095  27.886  0.00  0.00    +0.039 A 
ATOM     19  C   UNL     1       4.530   0.217  27.796  0.00  0.00    +0.003 A 
ATOM     20  C   UNL     1       4.644   0.910  26.593  0.00  0.00    +0.001 A 
ATOM     21  C   UNL     1       5.218   0.285  25.482  0.00  0.00    +0.013 A 
ENDBRANCH  13  15
BRANCH   1  22
ATOM     22  C   UNL     1       8.901  -0.058  22.217  0.00  0.00    +0.341 C 
ATOM     23  O   UNL     1       9.481   0.036  21.142  0.00  0.00    -0.248 OA
BRANCH  22  24
ATOM     24  O   UNL     1       8.952   0.890  23.207  0.00  0.00    -0.463 OA
BRANCH  24  26
ATOM     25  C   UNL     1      10.907   0.735  24.573  0.00  0.00    +0.048 C 
ATOM     26  C   UNL     1      10.246   1.470  23.419  0.00  0.00    +0.229 C 
ENDBRANCH  24  26
ENDBRANCH  22  24
ENDBRANCH   1  22
TORSDOF 4
ENDMDL
MODEL 9
REMARK VINA RESULT:      -5.8      2.671      5.051
REMARK  Name = 
REMARK  5 active torsions:
REMARK  status: ('A' for Active; 'I' for Inactive)
REMARK    1  A    between atoms: C_1  and  C_2
REMARK    2  A    between atoms: C_2  and  O_3
REMARK    3  A    between atoms: O_3  and  C_4
REMARK    4  A    between atoms: C_4  and  C_6
REMARK    5  A    between atoms: C_8  and  C_9
REMARK                            x       y       z     vdW  Elec       q    Type
REMARK                         _______ _______ _______ _____ _____    ______ ____
ROOT
ATOM      1  C   UNL     1       5.857  -4.508  24.750  0.00  0.00    +0.299 C 
ATOM      2  C   UNL     1       6.182  -4.793  26.201  0.00  0.00    +0.253 C 
ATOM      3  O   UNL     1       6.385  -5.922  26.652  0.00  0.00    -0.273 OA
ATOM      4  N   UNL     1       6.112  -3.742  27.085  0.00  0.00    -0.283 N 
ATOM      5  H   UNL     1       6.113  -4.049  28.051  0.00  0.00    +0.155 HD
ATOM      6  C   UNL     1       5.794  -2.405  26.794  0.00  0.00    +0.043 A 
ATOM      7  C   UNL     1       5.137  -1.698  27.811  0.00  0.00    +0.025 A 
ATOM      8  C   UNL     1       4.687  -0.395  27.593  0.00  0.00    +0.022 A 
ATOM      9  C   UNL     1       4.901   0.210  26.358  0.00  0.00    +0.042 A 
ATOM     10  C   UNL     1       5.592  -0.461  25.349  0.00  0.00    +0.032 A 
ATOM     11 CL   UNL     1       4.331   1.811  26.087  0.00  0.00    -0.084 Cl
ATOM     12  C   UNL     1       6.079  -1.757  25.577  0.00  0.00    +0.023 A 
ATOM     13  C   UNL     1       6.967  -2.383  24.553  0.00  0.00    +0.079 C 
ATOM     14  N   UNL     1       6.871  -3.612  24.180  0.00  0.00    -0.258 NA
ENDROOT
BRANCH  13  15
ATOM     15  C   UNL     1       8.077  -1.604  23.902  0.00  0.00    +0.036 A 
ATOM     16  C   UNL     1       9.123  -1.021  24.622  0.00  0.00    +0.133 A 
ATOM     17  F   UNL     1       9.160  -1.064  25.960  0.00  0.00    -0.205 F 
ATOM     18  C   UNL     1      10.188  -0.404  23.964  0.00  0.00    +0.039 A 
ATOM     19  C   UNL     1      10.231  -0.377  22.572  0.00  0.00    +0.003 A 
ATOM     20  C   UNL     1       9.199  -0.956  21.836  0.00  0.00    +0.001 A 
ATOM     21  C   UNL     1       8.128  -1.563  22.498  0.00  0.00    +0.013 A 
ENDBRANCH  13  15
BRANCH   1  22
ATOM     22  C   UNL     1       5.828  -5.772  23.899  0.00  0.00    +0.341 C 
ATOM     23  O   UNL     1       4.962  -6.640  23.919  0.00  0.00    -0.248 OA
BRANCH  22  24
ATOM     24  O   UNL     1       6.997  -5.865  23.190  0.00  0.00    -0.463 OA
BRANCH  24  26
ATOM     25  C   UNL     1       6.234  -5.266  21.005  0.00  0.00    +0.048 C 
ATOM     26  C   UNL     1       6.853  -6.364  21.853  0.00  0.00    +0.229 C 
ENDBRANCH  24  26
ENDBRANCH  22  24
ENDBRANCH   1  22
TORSDOF 4
ENDMDL
