MODEL 1
REMARK VINA RESULT:      -5.8      0.000      0.000
REMARK  Name = 
REMARK  7 active torsions:
REMARK  status: ('A' for Active; 'I' for Inactive)
REMARK    1  A    between atoms: C_1  and  C_2
REMARK    2  A    between atoms: C_2  and  N_3
REMARK    3  A    between atoms: N_3  and  C_4
REMARK    4  A    between atoms: N_3  and  C_6
REMARK    5  A    between atoms: C_4  and  C_5
REMARK    6  A    between atoms: C_6  and  C_7
REMARK    7  A    between atoms: C_7  and  C_8
REMARK                            x       y       z     vdW  Elec       q    Type
REMARK                         _______ _______ _______ _____ _____    ______ ____
ROOT
ATOM      1  C   UNL     1       9.738  -1.667  23.039  0.00  0.00    -0.021 A 
ATOM      2  C   UNL     1      10.038  -0.283  23.249  0.00  0.00    +0.003 A 
ATOM      3  C   UNL     1       9.782   0.387  22.051  0.00  0.00    +0.047 A 
ATOM      4  C   UNL     1       9.975   1.765  21.896  0.00  0.00    +0.026 A 
ATOM      5  C   UNL     1      10.444   2.482  23.000  0.00  0.00    +0.002 A 
ATOM      6  C   UNL     1      10.708   1.844  24.209  0.00  0.00    +0.001 A 
ATOM      7  N   UNL     1       9.338  -0.551  21.150  0.00  0.00    -0.360 N 
ATOM      8  H   UNL     1       9.075  -0.348  20.195  0.00  0.00    +0.165 HD
ATOM      9  C   UNL     1      10.509   0.465  24.347  0.00  0.00    +0.010 A 
ATOM     10  C   UNL     1       9.305  -1.789  21.731  0.00  0.00    +0.087 A 
ENDROOT
BRANCH   1  11
ATOM     11  C   UNL     1       9.859  -2.782  24.037  0.00  0.00    +0.052 C 
BRANCH  11  12
ATOM     12  C   UNL     1       8.484  -3.216  24.579  0.00  0.00    +0.089 C 
BRANCH  12  13
ATOM     13  N   UNL     1       8.040  -4.574  24.188  0.00  0.00    -0.303 NA
BRANCH  13  15
ATOM     14  C   UNL     1       8.117  -4.994  26.682  0.00  0.00    +0.020 C 
ATOM     15  C   UNL     1       7.408  -5.226  25.351  0.00  0.00    +0.081 C 
ENDBRANCH  13  15
BRANCH  13  16
ATOM     16  C   UNL     1       7.215  -4.601  22.970  0.00  0.00    +0.081 C 
ATOM     17  C   UNL     1       7.255  -5.890  22.156  0.00  0.00    +0.020 C 
ENDBRANCH  13  16
ENDBRANCH  12  13
ENDBRANCH  11  12
ENDBRANCH   1  11
TORSDOF 5
ENDMDL
MODEL 2
REMARK VINA RESULT:      -5.6      0.671      1.831
REMARK  Name = 
REMARK  7 active torsions:
REMARK  status: ('A' for Active; 'I' for Inactive)
REMARK    1  A    between atoms: C_1  and  C_2
REMARK    2  A    between atoms: C_2  and  N_3
REMARK    3  A    between atoms: N_3  and  C_4
REMARK    4  A    between atoms: N_3  and  C_6
REMARK    5  A    between atoms: C_4  and  C_5
REMARK    6  A    between atoms: C_6  and  C_7
REMARK    7  A    between atoms: C_7  and  C_8
REMARK                            x       y       z     vdW  Elec       q    Type
REMARK                         _______ _______ _______ _____ _____    ______ ____
ROOT
ATOM      1  C   UNL     1       9.730  -1.632  23.076  0.00  0.00    -0.021 A 
ATOM      2  C   UNL     1      10.031  -0.244  23.261  0.00  0.00    +0.003 A 
ATOM      3  C   UNL     1       9.798   0.400  22.045  0.00  0.00    +0.047 A 
ATOM      4  C   UNL     1       9.999   1.774  21.863  0.00  0.00    +0.026 A 
ATOM      5  C   UNL     1      10.451   2.513  22.961  0.00  0.00    +0.002 A 
ATOM      6  C   UNL     1      10.691   1.900  24.187  0.00  0.00    +0.001 A 
ATOM      7  N   UNL     1       9.367  -0.556  21.157  0.00  0.00    -0.360 N 
ATOM      8  H   UNL     1       9.121  -0.373  20.193  0.00  0.00    +0.165 HD
ATOM      9  C   UNL     1      10.486   0.525  24.351  0.00  0.00    +0.010 A 
ATOM     10  C   UNL     1       9.320  -1.780  21.764  0.00  0.00    +0.087 A 
ENDROOT
BRANCH   1  11
ATOM     11  C   UNL     1       9.829  -2.725  24.100  0.00  0.00    +0.052 C 
BRANCH  11  12
ATOM     12  C   UNL     1       8.713  -2.624  25.156  0.00  0.00    +0.089 C 
BRANCH  12  13
ATOM     13  N   UNL     1       7.687  -3.692  25.111  0.00  0.00    -0.303 NA
BRANCH  13  15
ATOM     14  C   UNL     1       7.394  -5.243  23.132  0.00  0.00    +0.020 C 
ATOM     15  C   UNL     1       8.221  -4.837  24.349  0.00  0.00    +0.081 C 
ENDBRANCH  13  15
BRANCH  13  16
ATOM     16  C   UNL     1       7.149  -4.054  26.430  0.00  0.00    +0.081 C 
ATOM     17  C   UNL     1       7.605  -5.394  27.001  0.00  0.00    +0.020 C 
ENDBRANCH  13  16
ENDBRANCH  12  13
ENDBRANCH  11  12
ENDBRANCH   1  11
TORSDOF 5
ENDMDL
MODEL 3
REMARK VINA RESULT:      -5.5      1.466      2.010
REMARK  Name = 
REMARK  7 active torsions:
REMARK  status: ('A' for Active; 'I' for Inactive)
REMARK    1  A    between atoms: C_1  and  C_2
REMARK    2  A    between atoms: C_2  and  N_3
REMARK    3  A    between atoms: N_3  and  C_4
REMARK    4  A    between atoms: N_3  and  C_6
REMARK    5  A    between atoms: C_4  and  C_5
REMARK    6  A    between atoms: C_6  and  C_7
REMARK    7  A    between atoms: C_7  and  C_8
REMARK                            x       y       z     vdW  Elec       q    Type
REMARK                         _______ _______ _______ _____ _____    ______ ____
ROOT
ATOM      1  C   UNL     1       9.343  -1.345  24.238  0.00  0.00    -0.021 A 
ATOM      2  C   UNL     1       9.590  -0.086  23.602  0.00  0.00    +0.003 A 
ATOM      3  C   UNL     1       9.532   0.899  24.589  0.00  0.00    +0.047 A 
ATOM      4  C   UNL     1       9.722   2.259  24.315  0.00  0.00    +0.026 A 
ATOM      5  C   UNL     1       9.981   2.623  22.990  0.00  0.00    +0.002 A 
ATOM      6  C   UNL     1      10.047   1.664  21.984  0.00  0.00    +0.001 A 
ATOM      7  N   UNL     1       9.265   0.265  25.778  0.00  0.00    -0.360 N 
ATOM      8  H   UNL     1       9.169   0.735  26.669  0.00  0.00    +0.165 HD
ATOM      9  C   UNL     1       9.855   0.308  22.275  0.00  0.00    +0.010 A 
ATOM     10  C   UNL     1       9.152  -1.083  25.582  0.00  0.00    +0.087 A 
ENDROOT
BRANCH   1  11
ATOM     11  C   UNL     1       9.303  -2.697  23.587  0.00  0.00    +0.052 C 
BRANCH  11  12
ATOM     12  C   UNL     1       9.169  -3.828  24.623  0.00  0.00    +0.089 C 
BRANCH  12  13
ATOM     13  N   UNL     1       8.144  -4.855  24.324  0.00  0.00    -0.303 NA
BRANCH  13  15
ATOM     14  C   UNL     1       7.870  -5.182  26.818  0.00  0.00    +0.020 C 
ATOM     15  C   UNL     1       7.210  -4.947  25.463  0.00  0.00    +0.081 C 
ENDBRANCH  13  15
BRANCH  13  16
ATOM     16  C   UNL     1       7.480  -4.670  23.024  0.00  0.00    +0.081 C 
ATOM     17  C   UNL     1       7.266  -5.930  22.190  0.00  0.00    +0.020 C 
ENDBRANCH  13  16
ENDBRANCH  12  13
ENDBRANCH  11  12
ENDBRANCH   1  11
TORSDOF 5
ENDMDL
MODEL 4
REMARK VINA RESULT:      -5.2      1.770      2.792
REMARK  Name = 
REMARK  7 active torsions:
REMARK  status: ('A' for Active; 'I' for Inactive)
REMARK    1  A    between atoms: C_1  and  C_2
REMARK    2  A    between atoms: C_2  and  N_3
REMARK    3  A    between atoms: N_3  and  C_4
REMARK    4  A    between atoms: N_3  and  C_6
REMARK    5  A    between atoms: C_4  and  C_5
REMARK    6  A    between atoms: C_6  and  C_7
REMARK    7  A    between atoms: C_7  and  C_8
REMARK                            x       y       z     vdW  Elec       q    Type
REMARK                         _______ _______ _______ _____ _____    ______ ____
ROOT
ATOM      1  C   UNL     1       8.608  -1.947  23.943  0.00  0.00    -0.021 A 
ATOM      2  C   UNL     1       8.347  -0.740  23.220  0.00  0.00    +0.003 A 
ATOM      3  C   UNL     1       9.483  -0.453  22.462  0.00  0.00    +0.047 A 
ATOM      4  C   UNL     1       9.578   0.671  21.632  0.00  0.00    +0.026 A 
ATOM      5  C   UNL     1       8.476   1.529  21.575  0.00  0.00    +0.002 A 
ATOM      6  C   UNL     1       7.327   1.269  22.318  0.00  0.00    +0.001 A 
ATOM      7  N   UNL     1      10.397  -1.449  22.710  0.00  0.00    -0.360 N 
ATOM      8  H   UNL     1      11.317  -1.500  22.292  0.00  0.00    +0.165 HD
ATOM      9  C   UNL     1       7.249   0.141  23.142  0.00  0.00    +0.010 A 
ATOM     10  C   UNL     1       9.883  -2.355  23.597  0.00  0.00    +0.087 A 
ENDROOT
BRANCH   1  11
ATOM     11  C   UNL     1       7.683  -2.652  24.894  0.00  0.00    +0.052 C 
BRANCH  11  12
ATOM     12  C   UNL     1       7.218  -4.011  24.339  0.00  0.00    +0.089 C 
BRANCH  12  13
ATOM     13  N   UNL     1       6.819  -4.019  22.913  0.00  0.00    -0.303 NA
BRANCH  13  15
ATOM     14  C   UNL     1       6.349  -5.674  21.056  0.00  0.00    +0.020 C 
ATOM     15  C   UNL     1       7.102  -5.351  22.343  0.00  0.00    +0.081 C 
ENDBRANCH  13  15
BRANCH  13  16
ATOM     16  C   UNL     1       5.444  -3.553  22.678  0.00  0.00    +0.081 C 
ATOM     17  C   UNL     1       4.408  -3.952  23.725  0.00  0.00    +0.020 C 
ENDBRANCH  13  16
ENDBRANCH  12  13
ENDBRANCH  11  12
ENDBRANCH   1  11
TORSDOF 5
ENDMDL
MODEL 5
REMARK VINA RESULT:      -5.1      1.500      6.306
REMARK  Name = 
REMARK  7 active torsions:
REMARK  status: ('A' for Active; 'I' for Inactive)
REMARK    1  A    between atoms: C_1  and  C_2
REMARK    2  A    between atoms: C_2  and  N_3
REMARK    3  A    between atoms: N_3  and  C_4
REMARK    4  A    between atoms: N_3  and  C_6
REMARK    5  A    between atoms: C_4  and  C_5
REMARK    6  A    between atoms: C_6  and  C_7
REMARK    7  A    between atoms: C_7  and  C_8
REMARK                            x       y       z     vdW  Elec       q    Type
REMARK                         _______ _______ _______ _____ _____    ______ ____
ROOT
ATOM      1  C   UNL     1       8.279  -4.283  24.690  0.00  0.00    -0.021 A 
ATOM      2  C   UNL     1       7.405  -4.793  23.678  0.00  0.00    +0.003 A 
ATOM      3  C   UNL     1       6.331  -5.408  24.324  0.00  0.00    +0.047 A 
ATOM      4  C   UNL     1       5.281  -6.024  23.632  0.00  0.00    +0.026 A 
ATOM      5  C   UNL     1       5.330  -6.010  22.235  0.00  0.00    +0.002 A 
ATOM      6  C   UNL     1       6.387  -5.403  21.561  0.00  0.00    +0.001 A 
ATOM      7  N   UNL     1       6.541  -5.273  25.675  0.00  0.00    -0.360 N 
ATOM      8  H   UNL     1       5.918  -5.626  26.389  0.00  0.00    +0.165 HD
ATOM      9  C   UNL     1       7.428  -4.792  22.268  0.00  0.00    +0.010 A 
ATOM     10  C   UNL     1       7.707  -4.598  25.909  0.00  0.00    +0.087 A 
ENDROOT
BRANCH   1  11
ATOM     11  C   UNL     1       9.569  -3.542  24.485  0.00  0.00    +0.052 C 
BRANCH  11  12
ATOM     12  C   UNL     1       9.349  -2.020  24.407  0.00  0.00    +0.089 C 
BRANCH  12  13
ATOM     13  N   UNL     1       9.791  -1.372  23.150  0.00  0.00    -0.303 NA
BRANCH  13  15
ATOM     14  C   UNL     1       7.286  -1.051  22.984  0.00  0.00    +0.020 C 
ATOM     15  C   UNL     1       8.624  -1.198  22.264  0.00  0.00    +0.081 C 
ENDBRANCH  13  15
BRANCH  13  16
ATOM     16  C   UNL     1      10.568  -0.140  23.358  0.00  0.00    +0.081 C 
ATOM     17  C   UNL     1      10.317   0.604  24.666  0.00  0.00    +0.020 C 
ENDBRANCH  13  16
ENDBRANCH  12  13
ENDBRANCH  11  12
ENDBRANCH   1  11
TORSDOF 5
ENDMDL
MODEL 6
REMARK VINA RESULT:      -5.0      2.207      3.839
REMARK  Name = 
REMARK  7 active torsions:
REMARK  status: ('A' for Active; 'I' for Inactive)
REMARK    1  A    between atoms: C_1  and  C_2
REMARK    2  A    between atoms: C_2  and  N_3
REMARK    3  A    between atoms: N_3  and  C_4
REMARK    4  A    between atoms: N_3  and  C_6
REMARK    5  A    between atoms: C_4  and  C_5
REMARK    6  A    between atoms: C_6  and  C_7
REMARK    7  A    between atoms: C_7  and  C_8
REMARK                            x       y       z     vdW  Elec       q    Type
REMARK                         _______ _______ _______ _____ _____    ______ ____
ROOT
ATOM      1  C   UNL     1       8.727   1.232  21.915  0.00  0.00    -0.021 A 
ATOM      2  C   UNL     1       9.378   2.331  22.561  0.00  0.00    +0.003 A 
ATOM      3  C   UNL     1       8.387   3.233  22.951  0.00  0.00    +0.047 A 
ATOM      4  C   UNL     1       8.672   4.435  23.611  0.00  0.00    +0.026 A 
ATOM      5  C   UNL     1      10.013   4.722  23.882  0.00  0.00    +0.002 A 
ATOM      6  C   UNL     1      11.025   3.842  23.508  0.00  0.00    +0.001 A 
ATOM      7  N   UNL     1       7.181   2.703  22.562  0.00  0.00    -0.360 N 
ATOM      8  H   UNL     1       6.284   3.144  22.717  0.00  0.00    +0.165 HD
ATOM      9  C   UNL     1      10.722   2.645  22.849  0.00  0.00    +0.010 A 
ATOM     10  C   UNL     1       7.370   1.499  21.940  0.00  0.00    +0.087 A 
ENDROOT
BRANCH   1  11
ATOM     11  C   UNL     1       9.376   0.014  21.324  0.00  0.00    +0.052 C 
BRANCH  11  12
ATOM     12  C   UNL     1       9.864  -0.960  22.412  0.00  0.00    +0.089 C 
BRANCH  12  13
ATOM     13  N   UNL     1       8.838  -1.407  23.382  0.00  0.00    -0.303 NA
BRANCH  13  15
ATOM     14  C   UNL     1       6.914  -2.706  22.373  0.00  0.00    +0.020 C 
ATOM     15  C   UNL     1       8.322  -2.724  22.962  0.00  0.00    +0.081 C 
ENDBRANCH  13  15
BRANCH  13  16
ATOM     16  C   UNL     1       9.285  -1.363  24.783  0.00  0.00    +0.081 C 
ATOM     17  C   UNL     1       9.902  -0.050  25.254  0.00  0.00    +0.020 C 
ENDBRANCH  13  16
ENDBRANCH  12  13
ENDBRANCH  11  12
ENDBRANCH   1  11
TORSDOF 5
ENDMDL
MODEL 7
REMARK VINA RESULT:      -5.0      1.665      5.933
REMARK  Name = 
REMARK  7 active torsions:
REMARK  status: ('A' for Active; 'I' for Inactive)
REMARK    1  A    between atoms: C_1  and  C_2
REMARK    2  A    between atoms: C_2  and  N_3
REMARK    3  A    between atoms: N_3  and  C_4
REMARK    4  A    between atoms: N_3  and  C_6
REMARK    5  A    between atoms: C_4  and  C_5
REMARK    6  A    between atoms: C_6  and  C_7
REMARK    7  A    between atoms: C_7  and  C_8
REMARK                            x       y       z     vdW  Elec       q    Type
REMARK                         _______ _______ _______ _____ _____    ______ ____
ROOT
ATOM      1  C   UNL     1       9.116  -1.983  22.577  0.00  0.00    -0.021 A 
ATOM      2  C   UNL     1       7.941  -2.766  22.816  0.00  0.00    +0.003 A 
ATOM      3  C   UNL     1       8.174  -3.531  23.960  0.00  0.00    +0.047 A 
ATOM      4  C   UNL     1       7.230  -4.424  24.482  0.00  0.00    +0.026 A 
ATOM      5  C   UNL     1       6.008  -4.537  23.813  0.00  0.00    +0.002 A 
ATOM      6  C   UNL     1       5.744  -3.786  22.671  0.00  0.00    +0.001 A 
ATOM      7  N   UNL     1       9.439  -3.223  24.402  0.00  0.00    -0.360 N 
ATOM      8  H   UNL     1       9.874  -3.629  25.220  0.00  0.00    +0.165 HD
ATOM      9  C   UNL     1       6.699  -2.899  22.163  0.00  0.00    +0.010 A 
ATOM     10  C   UNL     1      10.014  -2.292  23.582  0.00  0.00    +0.087 A 
ENDROOT
BRANCH   1  11
ATOM     11  C   UNL     1       9.342  -1.006  21.460  0.00  0.00    +0.052 C 
BRANCH  11  12
ATOM     12  C   UNL     1       9.527   0.430  21.983  0.00  0.00    +0.089 C 
BRANCH  12  13
ATOM     13  N   UNL     1       8.367   1.004  22.704  0.00  0.00    -0.303 NA
BRANCH  13  15
ATOM     14  C   UNL     1      10.323   1.404  24.260  0.00  0.00    +0.020 C 
ATOM     15  C   UNL     1       8.835   1.588  23.976  0.00  0.00    +0.081 C 
ENDBRANCH  13  15
BRANCH  13  16
ATOM     16  C   UNL     1       7.558   1.924  21.891  0.00  0.00    +0.081 C 
ATOM     17  C   UNL     1       7.597   3.395  22.293  0.00  0.00    +0.020 C 
ENDBRANCH  13  16
ENDBRANCH  12  13
ENDBRANCH  11  12
ENDBRANCH   1  11
TORSDOF 5
ENDMDL
MODEL 8
REMARK VINA RESULT:      -5.0      1.615      2.277
REMARK  Name = 
REMARK  7 active torsions:
REMARK  status: ('A' for Active; 'I' for Inactive)
REMARK    1  A    between atoms: C_1  and  C_2
REMARK    2  A    between atoms: C_2  and  N_3
REMARK    3  A    between atoms: N_3  and  C_4
REMARK    4  A    between atoms: N_3  and  C_6
REMARK    5  A    between atoms: C_4  and  C_5
REMARK    6  A    between atoms: C_6  and  C_7
REMARK    7  A    between atoms: C_7  and  C_8
REMARK                            x       y       z     vdW  Elec       q    Type
REMARK                         _______ _______ _______ _____ _____    ______ ____
ROOT
ATOM      1  C   UNL     1       9.760  -0.607  23.815  0.00  0.00    -0.021 A 
ATOM      2  C   UNL     1       9.163   0.506  23.141  0.00  0.00    +0.003 A 
ATOM      3  C   UNL     1       9.382   1.638  23.928  0.00  0.00    +0.047 A 
ATOM      4  C   UNL     1       8.923   2.911  23.570  0.00  0.00    +0.026 A 
ATOM      5  C   UNL     1       8.219   3.032  22.369  0.00  0.00    +0.002 A 
ATOM      6  C   UNL     1       7.986   1.922  21.561  0.00  0.00    +0.001 A 
ATOM      7  N   UNL     1      10.089   1.230  25.034  0.00  0.00    -0.360 N 
ATOM      8  H   UNL     1      10.389   1.844  25.780  0.00  0.00    +0.165 HD
ATOM      9  C   UNL     1       8.451   0.656  21.934  0.00  0.00    +0.010 A 
ATOM     10  C   UNL     1      10.325  -0.116  24.978  0.00  0.00    +0.087 A 
ENDROOT
BRANCH   1  11
ATOM     11  C   UNL     1       9.784  -2.037  23.358  0.00  0.00    +0.052 C 
BRANCH  11  12
ATOM     12  C   UNL     1       8.531  -2.806  23.817  0.00  0.00    +0.089 C 
BRANCH  12  13
ATOM     13  N   UNL     1       8.459  -4.225  23.399  0.00  0.00    -0.303 NA
BRANCH  13  15
ATOM     14  C   UNL     1       7.729  -4.691  25.778  0.00  0.00    +0.020 C 
ATOM     15  C   UNL     1       8.604  -5.084  24.590  0.00  0.00    +0.081 C 
ENDBRANCH  13  15
BRANCH  13  16
ATOM     16  C   UNL     1       7.283  -4.543  22.576  0.00  0.00    +0.081 C 
ATOM     17  C   UNL     1       7.175  -5.981  22.078  0.00  0.00    +0.020 C 
ENDBRANCH  13  16
ENDBRANCH  12  13
ENDBRANCH  11  12
ENDBRANCH   1  11
TORSDOF 5
ENDMDL
MODEL 9
REMARK VINA RESULT:      -5.0      1.592      5.816
REMARK  Name = 
REMARK  7 active torsions:
REMARK  status: ('A' for Active; 'I' for Inactive)
REMARK    1  A    between atoms: C_1  and  C_2
REMARK    2  A    between atoms: C_2  and  N_3
REMARK    3  A    between atoms: N_3  and  C_4
REMARK    4  A    between atoms: N_3  and  C_6
REMARK    5  A    between atoms: C_4  and  C_5
REMARK    6  A    between atoms: C_6  and  C_7
REMARK    7  A    between atoms: C_7  and  C_8
REMARK                            x       y       z     vdW  Elec       q    Type
REMARK                         _______ _______ _______ _____ _____    ______ ____
ROOT
ATOM      1  C   UNL     1       8.515  -2.316  22.945  0.00  0.00    -0.021 A 
ATOM      2  C   UNL     1       8.549  -3.324  23.962  0.00  0.00    +0.003 A 
ATOM      3  C   UNL     1       7.228  -3.662  24.260  0.00  0.00    +0.047 A 
ATOM      4  C   UNL     1       6.888  -4.619  25.224  0.00  0.00    +0.026 A 
ATOM      5  C   UNL     1       7.933  -5.253  25.904  0.00  0.00    +0.002 A 
ATOM      6  C   UNL     1       9.261  -4.939  25.627  0.00  0.00    +0.001 A 
ATOM      7  N   UNL     1       6.422  -2.894  23.454  0.00  0.00    -0.360 N 
ATOM      8  H   UNL     1       5.412  -2.929  23.455  0.00  0.00    +0.165 HD
ATOM      9  C   UNL     1       9.583  -3.979  24.661  0.00  0.00    +0.010 A 
ATOM     10  C   UNL     1       7.183  -2.083  22.658  0.00  0.00    +0.087 A 
ENDROOT
BRANCH   1  11
ATOM     11  C   UNL     1       9.690  -1.639  22.301  0.00  0.00    +0.052 C 
BRANCH  11  12
ATOM     12  C   UNL     1      10.376  -0.648  23.259  0.00  0.00    +0.089 C 
BRANCH  12  13
ATOM     13  N   UNL     1       9.973   0.770  23.114  0.00  0.00    -0.303 NA
BRANCH  13  15
ATOM     14  C   UNL     1       8.206   1.719  21.569  0.00  0.00    +0.020 C 
ATOM     15  C   UNL     1       9.548   1.007  21.721  0.00  0.00    +0.081 C 
ENDBRANCH  13  15
BRANCH  13  16
ATOM     16  C   UNL     1       8.994   1.215  24.117  0.00  0.00    +0.081 C 
ATOM     17  C   UNL     1       8.883   0.362  25.377  0.00  0.00    +0.020 C 
ENDBRANCH  13  16
ENDBRANCH  12  13
ENDBRANCH  11  12
ENDBRANCH   1  11
TORSDOF 5
ENDMDL
