MODEL 1
REMARK VINA RESULT:      -7.0      0.000      0.000
REMARK  Name = 
REMARK  8 active torsions:
REMARK  status: ('A' for Active; 'I' for Inactive)
REMARK    1  A    between atoms: C_2  and  C_3
REMARK    2  A    between atoms: N_9  and  C_10
REMARK    3  A    between atoms: N_16  and  C_17
REMARK    4  A    between atoms: C_22  and  O_23
REMARK    5  A    between atoms: O_23  and  C_24
REMARK    6  A    between atoms: C_24  and  C_25
REMARK    7  A    between atoms: C_25  and  C_26
REMARK    8  A    between atoms: C_26  and  N_27
REMARK                            x       y       z     vdW  Elec       q    Type
REMARK                         _______ _______ _______ _____ _____    ______ ____
ROOT
ATOM      1  C   UNL     1       8.121   0.313  25.630  0.00  0.00    +0.236 A 
ATOM      2  N   UNL     1       8.040  -0.805  24.881  0.00  0.00    -0.201 NA
ATOM      3  C   UNL     1       8.528  -0.811  23.610  0.00  0.00    +0.155 A 
ATOM      4  N   UNL     1       8.345  -1.915  22.755  0.00  0.00    -0.295 N 
ATOM      5  H   UNL     1       8.551  -1.660  21.789  0.00  0.00    +0.154 HD
ATOM      6  C   UNL     1       9.197   0.351  23.176  0.00  0.00    +0.148 A 
ATOM      7  N   UNL     1       9.834   0.682  21.998  0.00  0.00    -0.231 NA
ATOM      8  C   UNL     1      10.205   1.940  22.152  0.00  0.00    +0.202 A 
ATOM      9  N   UNL     1       9.805   2.447  23.358  0.00  0.00    -0.312 N 
ATOM     10  C   UNL     1       9.212   1.424  24.051  0.00  0.00    +0.167 A 
ATOM     11  N   UNL     1       8.690   1.483  25.286  0.00  0.00    -0.199 NA
ENDROOT
BRANCH   4  12
ATOM     12  C   UNL     1       7.467  -3.017  22.846  0.00  0.00    +0.075 A 
ATOM     13  C   UNL     1       7.861  -4.224  23.468  0.00  0.00    +0.142 A 
ATOM     14  C   UNL     1       7.003  -5.339  23.438  0.00  0.00    +0.047 A 
ATOM     15  C   UNL     1       5.729  -5.254  22.875  0.00  0.00    +0.004 A 
ATOM     16  C   UNL     1       5.296  -4.051  22.346  0.00  0.00    +0.002 A 
ATOM     17  C   UNL     1       6.155  -2.954  22.341  0.00  0.00    +0.027 A 
BRANCH  13  18
ATOM     18  O   UNL     1       9.089  -4.473  24.043  0.00  0.00    -0.490 OA
BRANCH  18  19
ATOM     19  C   UNL     1       9.076  -5.295  25.218  0.00  0.00    +0.231 C 
BRANCH  19  20
ATOM     20  C   UNL     1       8.688  -4.442  26.432  0.00  0.00    +0.062 C 
BRANCH  20  21
ATOM     21  C   UNL     1       7.497  -5.058  27.168  0.00  0.00    +0.126 C 
BRANCH  21  22
ATOM     22  N   UNL     1       6.218  -4.501  26.772  0.00  0.00    -0.337 N 
ATOM     23  C   UNL     1       5.987  -3.205  26.406  0.00  0.00    +0.199 A 
ATOM     24  N   UNL     1       4.741  -3.025  26.030  0.00  0.00    -0.244 NA
ATOM     25  C   UNL     1       4.149  -4.256  26.143  0.00  0.00    +0.130 A 
ATOM     26  C   UNL     1       5.052  -5.192  26.594  0.00  0.00    +0.106 A 
ENDBRANCH  21  22
ENDBRANCH  20  21
ENDBRANCH  19  20
ENDBRANCH  18  19
ENDBRANCH  13  18
ENDBRANCH   4  12
BRANCH   9  27
ATOM     27  C   UNL     1       9.860   3.808  23.831  0.00  0.00    +0.090 C 
ATOM     28  C   UNL     1       8.744   4.750  23.370  0.00  0.00    +0.025 C 
ATOM     29  C   UNL     1       9.311   6.159  23.581  0.00  0.00    +0.002 C 
ATOM     30  C   UNL     1      10.785   5.975  23.945  0.00  0.00    +0.002 C 
ATOM     31  C   UNL     1      11.130   4.571  23.467  0.00  0.00    +0.025 C 
ENDBRANCH   9  27
BRANCH   1  33
ATOM     32  N   UNL     1       6.850   0.252  27.904  0.00  0.00    -0.188 NA
ATOM     33  C   UNL     1       7.405   0.287  26.879  0.00  0.00    +0.140 C 
ENDBRANCH   1  33
TORSDOF 8
ENDMDL
MODEL 2
REMARK VINA RESULT:      -7.0      2.177      6.848
REMARK  Name = 
REMARK  8 active torsions:
REMARK  status: ('A' for Active; 'I' for Inactive)
REMARK    1  A    between atoms: C_2  and  C_3
REMARK    2  A    between atoms: N_9  and  C_10
REMARK    3  A    between atoms: N_16  and  C_17
REMARK    4  A    between atoms: C_22  and  O_23
REMARK    5  A    between atoms: O_23  and  C_24
REMARK    6  A    between atoms: C_24  and  C_25
REMARK    7  A    between atoms: C_25  and  C_26
REMARK    8  A    between atoms: C_26  and  N_27
REMARK                            x       y       z     vdW  Elec       q    Type
REMARK                         _______ _______ _______ _____ _____    ______ ____
ROOT
ATOM      1  C   UNL     1       5.380  -1.193  24.847  0.00  0.00    +0.236 A 
ATOM      2  N   UNL     1       6.388  -0.701  24.098  0.00  0.00    -0.201 NA
ATOM      3  C   UNL     1       6.946  -1.466  23.120  0.00  0.00    +0.155 A 
ATOM      4  N   UNL     1       8.082  -1.038  22.407  0.00  0.00    -0.295 N 
ATOM      5  H   UNL     1       8.502  -1.815  21.899  0.00  0.00    +0.154 HD
ATOM      6  C   UNL     1       6.353  -2.721  22.872  0.00  0.00    +0.148 A 
ATOM      7  N   UNL     1       6.619  -3.720  21.958  0.00  0.00    -0.231 NA
ATOM      8  C   UNL     1       5.776  -4.690  22.259  0.00  0.00    +0.202 A 
ATOM      9  N   UNL     1       5.004  -4.380  23.346  0.00  0.00    -0.312 N 
ATOM     10  C   UNL     1       5.319  -3.097  23.713  0.00  0.00    +0.167 A 
ATOM     11  N   UNL     1       4.785  -2.394  24.723  0.00  0.00    -0.199 NA
ENDROOT
BRANCH   4  12
ATOM     12  C   UNL     1       9.010  -0.010  22.682  0.00  0.00    +0.075 A 
ATOM     13  C   UNL     1       9.784  -0.013  23.866  0.00  0.00    +0.142 A 
ATOM     14  C   UNL     1      10.614   1.085  24.162  0.00  0.00    +0.047 A 
ATOM     15  C   UNL     1      10.751   2.148  23.267  0.00  0.00    +0.004 A 
ATOM     16  C   UNL     1      10.069   2.117  22.063  0.00  0.00    +0.002 A 
ATOM     17  C   UNL     1       9.220   1.049  21.781  0.00  0.00    +0.027 A 
BRANCH  13  18
ATOM     18  O   UNL     1       9.743  -0.971  24.856  0.00  0.00    -0.490 OA
BRANCH  18  19
ATOM     19  C   UNL     1       9.244  -0.537  26.128  0.00  0.00    +0.231 C 
BRANCH  19  20
ATOM     20  C   UNL     1       8.454  -1.677  26.782  0.00  0.00    +0.062 C 
BRANCH  20  21
ATOM     21  C   UNL     1       8.569  -2.959  25.956  0.00  0.00    +0.126 C 
BRANCH  21  22
ATOM     22  N   UNL     1       7.636  -3.995  26.358  0.00  0.00    -0.337 N 
ATOM     23  C   UNL     1       7.714  -5.317  26.021  0.00  0.00    +0.199 A 
ATOM     24  N   UNL     1       6.764  -6.018  26.598  0.00  0.00    -0.244 NA
ATOM     25  C   UNL     1       6.056  -5.116  27.348  0.00  0.00    +0.130 A 
ATOM     26  C   UNL     1       6.586  -3.852  27.222  0.00  0.00    +0.106 A 
ENDBRANCH  21  22
ENDBRANCH  20  21
ENDBRANCH  19  20
ENDBRANCH  18  19
ENDBRANCH  13  18
ENDBRANCH   4  12
BRANCH   9  27
ATOM     27  C   UNL     1       4.100  -5.225  24.085  0.00  0.00    +0.090 C 
ATOM     28  C   UNL     1       4.403  -6.727  24.095  0.00  0.00    +0.025 C 
ATOM     29  C   UNL     1       3.076  -7.389  24.486  0.00  0.00    +0.002 C 
ATOM     30  C   UNL     1       2.025  -6.278  24.474  0.00  0.00    +0.002 C 
ATOM     31  C   UNL     1       2.644  -5.168  23.634  0.00  0.00    +0.025 C 
ENDBRANCH   9  27
BRANCH   1  33
ATOM     32  N   UNL     1       4.703   0.246  26.912  0.00  0.00    -0.188 NA
ATOM     33  C   UNL     1       4.990  -0.395  25.981  0.00  0.00    +0.140 C 
ENDBRANCH   1  33
TORSDOF 8
ENDMDL
MODEL 3
REMARK VINA RESULT:      -6.7      2.777      5.278
REMARK  Name = 
REMARK  8 active torsions:
REMARK  status: ('A' for Active; 'I' for Inactive)
REMARK    1  A    between atoms: C_2  and  C_3
REMARK    2  A    between atoms: N_9  and  C_10
REMARK    3  A    between atoms: N_16  and  C_17
REMARK    4  A    between atoms: C_22  and  O_23
REMARK    5  A    between atoms: O_23  and  C_24
REMARK    6  A    between atoms: C_24  and  C_25
REMARK    7  A    between atoms: C_25  and  C_26
REMARK    8  A    between atoms: C_26  and  N_27
REMARK                            x       y       z     vdW  Elec       q    Type
REMARK                         _______ _______ _______ _____ _____    ______ ____
ROOT
ATOM      1  C   UNL     1       5.834  -3.992  22.345  0.00  0.00    +0.236 A 
ATOM      2  N   UNL     1       4.801  -4.228  23.178  0.00  0.00    -0.201 NA
ATOM      3  C   UNL     1       4.542  -3.370  24.203  0.00  0.00    +0.155 A 
ATOM      4  N   UNL     1       3.556  -3.651  25.169  0.00  0.00    -0.295 N 
ATOM      5  H   UNL     1       3.662  -3.042  25.979  0.00  0.00    +0.154 HD
ATOM      6  C   UNL     1       5.328  -2.202  24.274  0.00  0.00    +0.148 A 
ATOM      7  N   UNL     1       5.324  -1.120  25.130  0.00  0.00    -0.231 NA
ATOM      8  C   UNL     1       6.344  -0.376  24.742  0.00  0.00    +0.202 A 
ATOM      9  N   UNL     1       7.026  -0.944  23.702  0.00  0.00    -0.312 N 
ATOM     10  C   UNL     1       6.352  -2.084  23.350  0.00  0.00    +0.167 A 
ATOM     11  N   UNL     1       6.671  -2.938  22.365  0.00  0.00    -0.199 NA
ENDROOT
BRANCH   4  12
ATOM     12  C   UNL     1       2.891  -4.856  25.484  0.00  0.00    +0.075 A 
ATOM     13  C   UNL     1       3.253  -5.624  26.615  0.00  0.00    +0.142 A 
ATOM     14  C   UNL     1       2.647  -6.875  26.833  0.00  0.00    +0.047 A 
ATOM     15  C   UNL     1       1.631  -7.341  25.997  0.00  0.00    +0.004 A 
ATOM     16  C   UNL     1       1.203  -6.555  24.942  0.00  0.00    +0.002 A 
ATOM     17  C   UNL     1       1.824  -5.331  24.700  0.00  0.00    +0.027 A 
BRANCH  13  18
ATOM     18  O   UNL     1       4.250  -5.316  27.516  0.00  0.00    -0.490 OA
BRANCH  18  19
ATOM     19  C   UNL     1       5.288  -6.294  27.662  0.00  0.00    +0.231 C 
BRANCH  19  20
ATOM     20  C   UNL     1       6.620  -5.587  27.941  0.00  0.00    +0.062 C 
BRANCH  20  21
ATOM     21  C   UNL     1       6.720  -4.286  27.142  0.00  0.00    +0.126 C 
BRANCH  21  22
ATOM     22  N   UNL     1       7.733  -4.318  26.104  0.00  0.00    -0.337 N 
ATOM     23  C   UNL     1       7.838  -5.258  25.117  0.00  0.00    +0.199 A 
ATOM     24  N   UNL     1       8.814  -4.974  24.285  0.00  0.00    -0.244 NA
ATOM     25  C   UNL     1       9.348  -3.798  24.742  0.00  0.00    +0.130 A 
ATOM     26  C   UNL     1       8.685  -3.366  25.868  0.00  0.00    +0.106 A 
ENDBRANCH  21  22
ENDBRANCH  20  21
ENDBRANCH  19  20
ENDBRANCH  18  19
ENDBRANCH  13  18
ENDBRANCH   4  12
BRANCH   9  27
ATOM     27  C   UNL     1       8.279  -0.541  23.114  0.00  0.00    +0.090 C 
ATOM     28  C   UNL     1       9.408  -0.156  24.076  0.00  0.00    +0.025 C 
ATOM     29  C   UNL     1      10.376   0.676  23.227  0.00  0.00    +0.002 C 
ATOM     30  C   UNL     1       9.674   0.916  21.889  0.00  0.00    +0.002 C 
ATOM     31  C   UNL     1       8.200   0.658  22.175  0.00  0.00    +0.025 C 
ENDBRANCH   9  27
BRANCH   1  33
ATOM     32  N   UNL     1       6.380  -5.904  20.660  0.00  0.00    -0.188 NA
ATOM     33  C   UNL     1       6.152  -5.050  21.420  0.00  0.00    +0.140 C 
ENDBRANCH   1  33
TORSDOF 8
ENDMDL
MODEL 4
REMARK VINA RESULT:      -6.6      2.591      7.273
REMARK  Name = 
REMARK  8 active torsions:
REMARK  status: ('A' for Active; 'I' for Inactive)
REMARK    1  A    between atoms: C_2  and  C_3
REMARK    2  A    between atoms: N_9  and  C_10
REMARK    3  A    between atoms: N_16  and  C_17
REMARK    4  A    between atoms: C_22  and  O_23
REMARK    5  A    between atoms: O_23  and  C_24
REMARK    6  A    between atoms: C_24  and  C_25
REMARK    7  A    between atoms: C_25  and  C_26
REMARK    8  A    between atoms: C_26  and  N_27
REMARK                            x       y       z     vdW  Elec       q    Type
REMARK                         _______ _______ _______ _____ _____    ______ ____
ROOT
ATOM      1  C   UNL     1       6.702   0.764  26.377  0.00  0.00    +0.236 A 
ATOM      2  N   UNL     1       6.229   1.507  25.356  0.00  0.00    -0.201 NA
ATOM      3  C   UNL     1       6.156   0.979  24.104  0.00  0.00    +0.155 A 
ATOM      4  N   UNL     1       5.792   1.762  22.993  0.00  0.00    -0.295 N 
ATOM      5  H   UNL     1       6.021   1.283  22.123  0.00  0.00    +0.154 HD
ATOM      6  C   UNL     1       6.493  -0.383  23.964  0.00  0.00    +0.148 A 
ATOM      7  N   UNL     1       6.500  -1.241  22.883  0.00  0.00    -0.231 NA
ATOM      8  C   UNL     1       6.984  -2.376  23.353  0.00  0.00    +0.202 A 
ATOM      9  N   UNL     1       7.323  -2.281  24.675  0.00  0.00    -0.312 N 
ATOM     10  C   UNL     1       6.958  -1.029  25.097  0.00  0.00    +0.167 A 
ATOM     11  N   UNL     1       7.099  -0.522  26.332  0.00  0.00    -0.199 NA
ENDROOT
BRANCH   4  12
ATOM     12  C   UNL     1       5.726   3.164  22.834  0.00  0.00    +0.075 A 
ATOM     13  C   UNL     1       6.889   3.936  22.608  0.00  0.00    +0.142 A 
ATOM     14  C   UNL     1       6.801   5.340  22.570  0.00  0.00    +0.047 A 
ATOM     15  C   UNL     1       5.569   5.988  22.671  0.00  0.00    +0.004 A 
ATOM     16  C   UNL     1       4.413   5.238  22.799  0.00  0.00    +0.002 A 
ATOM     17  C   UNL     1       4.498   3.850  22.873  0.00  0.00    +0.027 A 
BRANCH  13  18
ATOM     18  O   UNL     1       8.176   3.449  22.513  0.00  0.00    -0.490 OA
BRANCH  18  19
ATOM     19  C   UNL     1       9.056   3.790  23.591  0.00  0.00    +0.231 C 
BRANCH  19  20
ATOM     20  C   UNL     1      10.256   2.835  23.592  0.00  0.00    +0.062 C 
BRANCH  20  21
ATOM     21  C   UNL     1       9.856   1.463  24.136  0.00  0.00    +0.126 C 
BRANCH  21  22
ATOM     22  N   UNL     1       9.956   0.397  23.157  0.00  0.00    -0.337 N 
ATOM     23  C   UNL     1      10.432  -0.862  23.390  0.00  0.00    +0.199 A 
ATOM     24  N   UNL     1      10.326  -1.622  22.323  0.00  0.00    -0.244 NA
ATOM     25  C   UNL     1       9.744  -0.827  21.371  0.00  0.00    +0.130 A 
ATOM     26  C   UNL     1       9.496   0.431  21.870  0.00  0.00    +0.106 A 
ENDBRANCH  21  22
ENDBRANCH  20  21
ENDBRANCH  19  20
ENDBRANCH  18  19
ENDBRANCH  13  18
ENDBRANCH   4  12
BRANCH   9  27
ATOM     27  C   UNL     1       8.033  -3.228  25.498  0.00  0.00    +0.090 C 
ATOM     28  C   UNL     1       9.188  -3.992  24.843  0.00  0.00    +0.025 C 
ATOM     29  C   UNL     1       9.399  -5.220  25.735  0.00  0.00    +0.002 C 
ATOM     30  C   UNL     1       8.236  -5.230  26.729  0.00  0.00    +0.002 C 
ATOM     31  C   UNL     1       7.176  -4.340  26.093  0.00  0.00    +0.025 C 
ENDBRANCH   9  27
BRANCH   1  33
ATOM     32  N   UNL     1       7.090   2.014  28.630  0.00  0.00    -0.188 NA
ATOM     33  C   UNL     1       6.929   1.464  27.615  0.00  0.00    +0.140 C 
ENDBRANCH   1  33
TORSDOF 8
ENDMDL
MODEL 5
REMARK VINA RESULT:      -6.4      2.271      5.076
REMARK  Name = 
REMARK  8 active torsions:
REMARK  status: ('A' for Active; 'I' for Inactive)
REMARK    1  A    between atoms: C_2  and  C_3
REMARK    2  A    between atoms: N_9  and  C_10
REMARK    3  A    between atoms: N_16  and  C_17
REMARK    4  A    between atoms: C_22  and  O_23
REMARK    5  A    between atoms: O_23  and  C_24
REMARK    6  A    between atoms: C_24  and  C_25
REMARK    7  A    between atoms: C_25  and  C_26
REMARK    8  A    between atoms: C_26  and  N_27
REMARK                            x       y       z     vdW  Elec       q    Type
REMARK                         _______ _______ _______ _____ _____    ______ ____
ROOT
ATOM      1  C   UNL     1       8.244  -3.647  25.042  0.00  0.00    +0.236 A 
ATOM      2  N   UNL     1       7.069  -3.939  25.635  0.00  0.00    -0.201 NA
ATOM      3  C   UNL     1       6.084  -3.002  25.692  0.00  0.00    +0.155 A 
ATOM      4  N   UNL     1       4.896  -3.224  26.415  0.00  0.00    -0.295 N 
ATOM      5  H   UNL     1       4.389  -2.350  26.553  0.00  0.00    +0.154 HD
ATOM      6  C   UNL     1       6.318  -1.784  25.021  0.00  0.00    +0.148 A 
ATOM      7  N   UNL     1       5.552  -0.651  24.839  0.00  0.00    -0.231 NA
ATOM      8  C   UNL     1       6.336   0.188  24.188  0.00  0.00    +0.202 A 
ATOM      9  N   UNL     1       7.582  -0.334  23.974  0.00  0.00    -0.312 N 
ATOM     10  C   UNL     1       7.568  -1.621  24.448  0.00  0.00    +0.167 A 
ATOM     11  N   UNL     1       8.582  -2.499  24.425  0.00  0.00    -0.199 NA
ENDROOT
BRANCH   4  12
ATOM     12  C   UNL     1       4.579  -4.191  27.394  0.00  0.00    +0.075 A 
ATOM     13  C   UNL     1       4.291  -5.530  27.042  0.00  0.00    +0.142 A 
ATOM     14  C   UNL     1       3.867  -6.437  28.031  0.00  0.00    +0.047 A 
ATOM     15  C   UNL     1       3.802  -6.063  29.374  0.00  0.00    +0.004 A 
ATOM     16  C   UNL     1       4.171  -4.781  29.742  0.00  0.00    +0.002 A 
ATOM     17  C   UNL     1       4.558  -3.868  28.763  0.00  0.00    +0.027 A 
BRANCH  13  18
ATOM     18  O   UNL     1       4.285  -6.046  25.763  0.00  0.00    -0.490 OA
BRANCH  18  19
ATOM     19  C   UNL     1       3.000  -6.148  25.135  0.00  0.00    +0.231 C 
BRANCH  19  20
ATOM     20  C   UNL     1       3.166  -6.039  23.614  0.00  0.00    +0.062 C 
BRANCH  20  21
ATOM     21  C   UNL     1       3.856  -4.727  23.238  0.00  0.00    +0.126 C 
BRANCH  21  22
ATOM     22  N   UNL     1       5.176  -4.908  22.665  0.00  0.00    -0.337 N 
ATOM     23  C   UNL     1       5.929  -3.937  22.067  0.00  0.00    +0.199 A 
ATOM     24  N   UNL     1       7.110  -4.393  21.714  0.00  0.00    -0.244 NA
ATOM     25  C   UNL     1       7.125  -5.703  22.114  0.00  0.00    +0.130 A 
ATOM     26  C   UNL     1       5.935  -6.043  22.717  0.00  0.00    +0.106 A 
ENDBRANCH  21  22
ENDBRANCH  20  21
ENDBRANCH  19  20
ENDBRANCH  18  19
ENDBRANCH  13  18
ENDBRANCH   4  12
BRANCH   9  27
ATOM     27  C   UNL     1       8.761   0.317  23.462  0.00  0.00    +0.090 C 
ATOM     28  C   UNL     1       9.460   1.320  24.387  0.00  0.00    +0.025 C 
ATOM     29  C   UNL     1      10.311   2.185  23.451  0.00  0.00    +0.002 C 
ATOM     30  C   UNL     1       9.911   1.795  22.027  0.00  0.00    +0.002 C 
ATOM     31  C   UNL     1       8.557   1.114  22.178  0.00  0.00    +0.025 C 
ENDBRANCH   9  27
BRANCH   1  33
ATOM     32  N   UNL     1      10.149  -5.406  25.307  0.00  0.00    -0.188 NA
ATOM     33  C   UNL     1       9.292  -4.623  25.205  0.00  0.00    +0.140 C 
ENDBRANCH   1  33
TORSDOF 8
ENDMDL
MODEL 6
REMARK VINA RESULT:      -6.4      2.172      7.153
REMARK  Name = 
REMARK  8 active torsions:
REMARK  status: ('A' for Active; 'I' for Inactive)
REMARK    1  A    between atoms: C_2  and  C_3
REMARK    2  A    between atoms: N_9  and  C_10
REMARK    3  A    between atoms: N_16  and  C_17
REMARK    4  A    between atoms: C_22  and  O_23
REMARK    5  A    between atoms: O_23  and  C_24
REMARK    6  A    between atoms: C_24  and  C_25
REMARK    7  A    between atoms: C_25  and  C_26
REMARK    8  A    between atoms: C_26  and  N_27
REMARK                            x       y       z     vdW  Elec       q    Type
REMARK                         _______ _______ _______ _____ _____    ______ ____
ROOT
ATOM      1  C   UNL     1       8.390  -3.542  26.003  0.00  0.00    +0.236 A 
ATOM      2  N   UNL     1       8.540  -2.261  25.613  0.00  0.00    -0.201 NA
ATOM      3  C   UNL     1       7.567  -1.348  25.882  0.00  0.00    +0.155 A 
ATOM      4  N   UNL     1       7.628  -0.035  25.377  0.00  0.00    -0.295 N 
ATOM      5  H   UNL     1       6.724   0.428  25.467  0.00  0.00    +0.154 HD
ATOM      6  C   UNL     1       6.477  -1.785  26.663  0.00  0.00    +0.148 A 
ATOM      7  N   UNL     1       5.356  -1.145  27.150  0.00  0.00    -0.231 NA
ATOM      8  C   UNL     1       4.659  -2.091  27.751  0.00  0.00    +0.202 A 
ATOM      9  N   UNL     1       5.257  -3.316  27.643  0.00  0.00    -0.312 N 
ATOM     10  C   UNL     1       6.454  -3.127  27.001  0.00  0.00    +0.167 A 
ATOM     11  N   UNL     1       7.365  -4.066  26.702  0.00  0.00    -0.199 NA
ENDROOT
BRANCH   4  12
ATOM     12  C   UNL     1       8.419   0.523  24.349  0.00  0.00    +0.075 A 
ATOM     13  C   UNL     1       8.353   0.036  23.023  0.00  0.00    +0.142 A 
ATOM     14  C   UNL     1       9.238   0.537  22.050  0.00  0.00    +0.047 A 
ATOM     15  C   UNL     1      10.131   1.568  22.348  0.00  0.00    +0.004 A 
ATOM     16  C   UNL     1      10.139   2.115  23.619  0.00  0.00    +0.002 A 
ATOM     17  C   UNL     1       9.290   1.599  24.596  0.00  0.00    +0.027 A 
BRANCH  13  18
ATOM     18  O   UNL     1       7.548  -0.991  22.577  0.00  0.00    -0.490 OA
BRANCH  18  19
ATOM     19  C   UNL     1       8.228  -2.166  22.117  0.00  0.00    +0.231 C 
BRANCH  19  20
ATOM     20  C   UNL     1       7.335  -3.392  22.342  0.00  0.00    +0.062 C 
BRANCH  20  21
ATOM     21  C   UNL     1       6.043  -2.998  23.058  0.00  0.00    +0.126 C 
BRANCH  21  22
ATOM     22  N   UNL     1       5.356  -4.116  23.676  0.00  0.00    -0.337 N 
ATOM     23  C   UNL     1       4.059  -4.120  24.106  0.00  0.00    +0.199 A 
ATOM     24  N   UNL     1       3.705  -5.304  24.554  0.00  0.00    -0.244 NA
ATOM     25  C   UNL     1       4.810  -6.098  24.391  0.00  0.00    +0.130 A 
ATOM     26  C   UNL     1       5.847  -5.382  23.837  0.00  0.00    +0.106 A 
ENDBRANCH  21  22
ENDBRANCH  20  21
ENDBRANCH  19  20
ENDBRANCH  18  19
ENDBRANCH  13  18
ENDBRANCH   4  12
BRANCH   9  27
ATOM     27  C   UNL     1       4.740  -4.612  28.006  0.00  0.00    +0.090 C 
ATOM     28  C   UNL     1       3.217  -4.781  27.996  0.00  0.00    +0.025 C 
ATOM     29  C   UNL     1       2.956  -6.012  28.872  0.00  0.00    +0.002 C 
ATOM     30  C   UNL     1       4.296  -6.369  29.517  0.00  0.00    +0.002 C 
ATOM     31  C   UNL     1       5.134  -5.102  29.395  0.00  0.00    +0.025 C 
ENDBRANCH   9  27
BRANCH   1  33
ATOM     32  N   UNL     1      10.175  -5.228  25.128  0.00  0.00    -0.188 NA
ATOM     33  C   UNL     1       9.370  -4.473  25.504  0.00  0.00    +0.140 C 
ENDBRANCH   1  33
TORSDOF 8
ENDMDL
MODEL 7
REMARK VINA RESULT:      -6.3      2.662      5.184
REMARK  Name = 
REMARK  8 active torsions:
REMARK  status: ('A' for Active; 'I' for Inactive)
REMARK    1  A    between atoms: C_2  and  C_3
REMARK    2  A    between atoms: N_9  and  C_10
REMARK    3  A    between atoms: N_16  and  C_17
REMARK    4  A    between atoms: C_22  and  O_23
REMARK    5  A    between atoms: O_23  and  C_24
REMARK    6  A    between atoms: C_24  and  C_25
REMARK    7  A    between atoms: C_25  and  C_26
REMARK    8  A    between atoms: C_26  and  N_27
REMARK                            x       y       z     vdW  Elec       q    Type
REMARK                         _______ _______ _______ _____ _____    ______ ____
ROOT
ATOM      1  C   UNL     1       5.756  -1.548  26.414  0.00  0.00    +0.236 A 
ATOM      2  N   UNL     1       5.814  -2.708  27.099  0.00  0.00    -0.201 NA
ATOM      3  C   UNL     1       6.808  -3.602  26.843  0.00  0.00    +0.155 A 
ATOM      4  N   UNL     1       6.827  -4.876  27.442  0.00  0.00    -0.295 N 
ATOM      5  H   UNL     1       7.487  -5.489  26.965  0.00  0.00    +0.154 HD
ATOM      6  C   UNL     1       7.803  -3.207  25.926  0.00  0.00    +0.148 A 
ATOM      7  N   UNL     1       8.949  -3.820  25.464  0.00  0.00    -0.231 NA
ATOM      8  C   UNL     1       9.436  -2.992  24.558  0.00  0.00    +0.202 A 
ATOM      9  N   UNL     1       8.641  -1.893  24.387  0.00  0.00    -0.312 N 
ATOM     10  C   UNL     1       7.622  -1.985  25.300  0.00  0.00    +0.167 A 
ATOM     11  N   UNL     1       6.623  -1.108  25.484  0.00  0.00    -0.199 NA
ENDROOT
BRANCH   4  12
ATOM     12  C   UNL     1       5.815  -5.594  28.115  0.00  0.00    +0.075 A 
ATOM     13  C   UNL     1       4.995  -6.525  27.435  0.00  0.00    +0.142 A 
ATOM     14  C   UNL     1       3.923  -7.136  28.111  0.00  0.00    +0.047 A 
ATOM     15  C   UNL     1       3.697  -6.903  29.468  0.00  0.00    +0.004 A 
ATOM     16  C   UNL     1       4.549  -6.065  30.166  0.00  0.00    +0.002 A 
ATOM     17  C   UNL     1       5.592  -5.429  29.495  0.00  0.00    +0.027 A 
BRANCH  13  18
ATOM     18  O   UNL     1       5.073  -6.844  26.096  0.00  0.00    -0.490 OA
BRANCH  18  19
ATOM     19  C   UNL     1       3.833  -7.174  25.458  0.00  0.00    +0.231 C 
BRANCH  19  20
ATOM     20  C   UNL     1       3.648  -6.291  24.217  0.00  0.00    +0.062 C 
BRANCH  20  21
ATOM     21  C   UNL     1       4.206  -4.888  24.462  0.00  0.00    +0.126 C 
BRANCH  21  22
ATOM     22  N   UNL     1       5.258  -4.512  23.537  0.00  0.00    -0.337 N 
ATOM     23  C   UNL     1       6.366  -5.254  23.241  0.00  0.00    +0.199 A 
ATOM     24  N   UNL     1       7.096  -4.679  22.312  0.00  0.00    -0.244 NA
ATOM     25  C   UNL     1       6.425  -3.530  21.985  0.00  0.00    +0.130 A 
ATOM     26  C   UNL     1       5.273  -3.410  22.729  0.00  0.00    +0.106 A 
ENDBRANCH  21  22
ENDBRANCH  20  21
ENDBRANCH  19  20
ENDBRANCH  18  19
ENDBRANCH  13  18
ENDBRANCH   4  12
BRANCH   9  27
ATOM     27  C   UNL     1       8.729  -0.858  23.387  0.00  0.00    +0.090 C 
ATOM     28  C   UNL     1       9.040  -1.300  21.954  0.00  0.00    +0.025 C 
ATOM     29  C   UNL     1       9.560  -0.035  21.261  0.00  0.00    +0.002 C 
ATOM     30  C   UNL     1       9.729   1.016  22.360  0.00  0.00    +0.002 C 
ATOM     31  C   UNL     1       9.778   0.216  23.655  0.00  0.00    +0.025 C 
ENDBRANCH   9  27
BRANCH   1  33
ATOM     32  N   UNL     1       3.586  -0.143  26.747  0.00  0.00    -0.188 NA
ATOM     33  C   UNL     1       4.565  -0.761  26.608  0.00  0.00    +0.140 C 
ENDBRANCH   1  33
TORSDOF 8
ENDMDL
MODEL 8
REMARK VINA RESULT:      -6.2      3.094      4.919
REMARK  Name = 
REMARK  8 active torsions:
REMARK  status: ('A' for Active; 'I' for Inactive)
REMARK    1  A    between atoms: C_2  and  C_3
REMARK    2  A    between atoms: N_9  and  C_10
REMARK    3  A    between atoms: N_16  and  C_17
REMARK    4  A    between atoms: C_22  and  O_23
REMARK    5  A    between atoms: O_23  and  C_24
REMARK    6  A    between atoms: C_24  and  C_25
REMARK    7  A    between atoms: C_25  and  C_26
REMARK    8  A    between atoms: C_26  and  N_27
REMARK                            x       y       z     vdW  Elec       q    Type
REMARK                         _______ _______ _______ _____ _____    ______ ____
ROOT
ATOM      1  C   UNL     1       6.831  -1.175  26.700  0.00  0.00    +0.236 A 
ATOM      2  N   UNL     1       6.813  -2.506  26.912  0.00  0.00    -0.201 NA
ATOM      3  C   UNL     1       7.607  -3.325  26.169  0.00  0.00    +0.155 A 
ATOM      4  N   UNL     1       7.521  -4.726  26.270  0.00  0.00    -0.295 N 
ATOM      5  H   UNL     1       7.997  -5.174  25.488  0.00  0.00    +0.154 HD
ATOM      6  C   UNL     1       8.500  -2.707  25.269  0.00  0.00    +0.148 A 
ATOM      7  N   UNL     1       9.453  -3.204  24.405  0.00  0.00    -0.231 NA
ATOM      8  C   UNL     1       9.919  -2.145  23.767  0.00  0.00    +0.202 A 
ATOM      9  N   UNL     1       9.285  -0.995  24.152  0.00  0.00    -0.312 N 
ATOM     10  C   UNL     1       8.416  -1.329  25.158  0.00  0.00    +0.167 A 
ATOM     11  N   UNL     1       7.604  -0.499  25.830  0.00  0.00    -0.199 NA
ENDROOT
BRANCH   4  12
ATOM     12  C   UNL     1       6.524  -5.551  26.837  0.00  0.00    +0.075 A 
ATOM     13  C   UNL     1       5.500  -6.120  26.045  0.00  0.00    +0.142 A 
ATOM     14  C   UNL     1       4.459  -6.840  26.659  0.00  0.00    +0.047 A 
ATOM     15  C   UNL     1       4.459  -7.075  28.035  0.00  0.00    +0.004 A 
ATOM     16  C   UNL     1       5.505  -6.602  28.808  0.00  0.00    +0.002 A 
ATOM     17  C   UNL     1       6.520  -5.858  28.210  0.00  0.00    +0.027 A 
BRANCH  13  18
ATOM     18  O   UNL     1       5.347  -5.959  24.684  0.00  0.00    -0.490 OA
BRANCH  18  19
ATOM     19  C   UNL     1       4.278  -6.700  24.082  0.00  0.00    +0.231 C 
BRANCH  19  20
ATOM     20  C   UNL     1       3.497  -5.785  23.130  0.00  0.00    +0.062 C 
BRANCH  20  21
ATOM     21  C   UNL     1       2.002  -5.818  23.452  0.00  0.00    +0.126 C 
BRANCH  21  22
ATOM     22  N   UNL     1       1.375  -7.097  23.178  0.00  0.00    -0.337 N 
ATOM     23  C   UNL     1       1.231  -7.669  21.946  0.00  0.00    +0.199 A 
ATOM     24  N   UNL     1       0.689  -8.864  22.031  0.00  0.00    -0.244 NA
ATOM     25  C   UNL     1       0.493  -9.076  23.370  0.00  0.00    +0.130 A 
ATOM     26  C   UNL     1       0.921  -7.993  24.104  0.00  0.00    +0.106 A 
ENDBRANCH  21  22
ENDBRANCH  20  21
ENDBRANCH  19  20
ENDBRANCH  18  19
ENDBRANCH  13  18
ENDBRANCH   4  12
BRANCH   9  27
ATOM     27  C   UNL     1       9.378   0.324  23.579  0.00  0.00    +0.090 C 
ATOM     28  C   UNL     1       9.651   0.413  22.074  0.00  0.00    +0.025 C 
ATOM     29  C   UNL     1      10.186   1.833  21.858  0.00  0.00    +0.002 C 
ATOM     30  C   UNL     1      10.403   2.424  23.252  0.00  0.00    +0.002 C 
ATOM     31  C   UNL     1      10.458   1.218  24.180  0.00  0.00    +0.025 C 
ENDBRANCH   9  27
BRANCH   1  33
ATOM     32  N   UNL     1       4.990   0.212  27.917  0.00  0.00    -0.188 NA
ATOM     33  C   UNL     1       5.820  -0.413  27.388  0.00  0.00    +0.140 C 
ENDBRANCH   1  33
TORSDOF 8
ENDMDL
MODEL 9
REMARK VINA RESULT:      -6.0      2.702      8.092
REMARK  Name = 
REMARK  8 active torsions:
REMARK  status: ('A' for Active; 'I' for Inactive)
REMARK    1  A    between atoms: C_2  and  C_3
REMARK    2  A    between atoms: N_9  and  C_10
REMARK    3  A    between atoms: N_16  and  C_17
REMARK    4  A    between atoms: C_22  and  O_23
REMARK    5  A    between atoms: O_23  and  C_24
REMARK    6  A    between atoms: C_24  and  C_25
REMARK    7  A    between atoms: C_25  and  C_26
REMARK    8  A    between atoms: C_26  and  N_27
REMARK                            x       y       z     vdW  Elec       q    Type
REMARK                         _______ _______ _______ _____ _____    ______ ____
ROOT
ATOM      1  C   UNL     1       8.010   1.165  25.149  0.00  0.00    +0.236 A 
ATOM      2  N   UNL     1       8.710   2.137  24.530  0.00  0.00    -0.201 NA
ATOM      3  C   UNL     1       9.329   1.881  23.344  0.00  0.00    +0.155 A 
ATOM      4  N   UNL     1      10.174   2.828  22.735  0.00  0.00    -0.295 N 
ATOM      5  H   UNL     1      10.732   2.393  22.001  0.00  0.00    +0.154 HD
ATOM      6  C   UNL     1       9.110   0.613  22.768  0.00  0.00    +0.148 A 
ATOM      7  N   UNL     1       9.533   0.033  21.590  0.00  0.00    -0.231 NA
ATOM      8  C   UNL     1       9.069  -1.203  21.634  0.00  0.00    +0.202 A 
ATOM      9  N   UNL     1       8.400  -1.458  22.800  0.00  0.00    -0.312 N 
ATOM     10  C   UNL     1       8.364  -0.287  23.511  0.00  0.00    +0.167 A 
ATOM     11  N   UNL     1       7.791  -0.088  24.708  0.00  0.00    -0.199 NA
ENDROOT
BRANCH   4  12
ATOM     12  C   UNL     1      10.781   3.992  23.254  0.00  0.00    +0.075 A 
ATOM     13  C   UNL     1      10.008   5.086  23.708  0.00  0.00    +0.142 A 
ATOM     14  C   UNL     1      10.646   6.274  24.111  0.00  0.00    +0.047 A 
ATOM     15  C   UNL     1      12.038   6.369  24.148  0.00  0.00    +0.004 A 
ATOM     16  C   UNL     1      12.805   5.273  23.793  0.00  0.00    +0.002 A 
ATOM     17  C   UNL     1      12.179   4.106  23.360  0.00  0.00    +0.027 A 
BRANCH  13  18
ATOM     18  O   UNL     1       8.631   5.157  23.710  0.00  0.00    -0.490 OA
BRANCH  18  19
ATOM     19  C   UNL     1       8.070   6.448  23.439  0.00  0.00    +0.231 C 
BRANCH  19  20
ATOM     20  C   UNL     1       6.660   6.529  24.039  0.00  0.00    +0.062 C 
BRANCH  20  21
ATOM     21  C   UNL     1       5.625   5.955  23.070  0.00  0.00    +0.126 C 
BRANCH  21  22
ATOM     22  N   UNL     1       5.372   4.540  23.261  0.00  0.00    -0.337 N 
ATOM     23  C   UNL     1       5.872   3.526  22.493  0.00  0.00    +0.199 A 
ATOM     24  N   UNL     1       5.522   2.349  22.962  0.00  0.00    -0.244 NA
ATOM     25  C   UNL     1       4.782   2.614  24.085  0.00  0.00    +0.130 A 
ATOM     26  C   UNL     1       4.684   3.970  24.296  0.00  0.00    +0.106 A 
ENDBRANCH  21  22
ENDBRANCH  20  21
ENDBRANCH  19  20
ENDBRANCH  18  19
ENDBRANCH  13  18
ENDBRANCH   4  12
BRANCH   9  27
ATOM     27  C   UNL     1       7.902  -2.715  23.301  0.00  0.00    +0.090 C 
ATOM     28  C   UNL     1       8.859  -3.550  24.158  0.00  0.00    +0.025 C 
ATOM     29  C   UNL     1       8.284  -4.971  24.112  0.00  0.00    +0.002 C 
ATOM     30  C   UNL     1       7.161  -4.943  23.073  0.00  0.00    +0.002 C 
ATOM     31  C   UNL     1       7.440  -3.702  22.235  0.00  0.00    +0.025 C 
ENDBRANCH   9  27
BRANCH   1  33
ATOM     32  N   UNL     1       7.170   1.710  27.555  0.00  0.00    -0.188 NA
ATOM     33  C   UNL     1       7.562   1.465  26.485  0.00  0.00    +0.140 C 
ENDBRANCH   1  33
TORSDOF 8
ENDMDL
