MODEL 1
REMARK VINA RESULT:      -7.4      0.000      0.000
REMARK  Name = 
REMARK  6 active torsions:
REMARK  status: ('A' for Active; 'I' for Inactive)
REMARK    1  A    between atoms: C_1  and  O_2
REMARK    2  A    between atoms: O_2  and  C_3
REMARK    3  A    between atoms: C_3  and  O_4
REMARK    4  A    between atoms: N_5  and  C_6
REMARK    5  A    between atoms: C_12  and  C_15
REMARK    6  A    between atoms: C_15  and  C_17
REMARK                            x       y       z     vdW  Elec       q    Type
REMARK                         _______ _______ _______ _____ _____    ______ ____
ROOT
ATOM      1  C   UNL     1      10.711   2.308  23.326  0.00  0.00    +0.235 A 
ATOM      2  N   UNL     1      10.677   1.286  24.250  0.00  0.00    -0.322 N 
ATOM      3  H   UNL     1      11.002   1.374  25.202  0.00  0.00    +0.169 HD
ATOM      4  C   UNL     1      10.120   0.175  23.666  0.00  0.00    +0.068 A 
ATOM      5  C   UNL     1       9.805  -1.104  24.138  0.00  0.00    +0.039 A 
ATOM      6  C   UNL     1       9.211  -1.990  23.218  0.00  0.00    +0.024 A 
ATOM      7  C   UNL     1       9.012  -1.617  21.880  0.00  0.00    +0.014 A 
ATOM      8  C   UNL     1       9.335  -0.327  21.443  0.00  0.00    +0.030 A 
ATOM      9  C   UNL     1       9.892   0.574  22.356  0.00  0.00    +0.091 A 
ATOM     10  N   UNL     1      10.282   1.868  22.161  0.00  0.00    -0.211 NA
ENDROOT
BRANCH   1  12
ATOM     11  C   UNL     1      10.414   4.522  23.541  0.00  0.00    +0.391 C 
ATOM     12  N   UNL     1      11.209   3.513  23.682  0.00  0.00    -0.142 NA
BRANCH  11  14
ATOM     13  C   UNL     1      12.122   6.067  24.064  0.00  0.00    +0.282 C 
ATOM     14  O   UNL     1      10.749   5.813  23.759  0.00  0.00    -0.453 OA
ENDBRANCH  11  14
BRANCH  11  15
ATOM     15  O   UNL     1       9.121   4.487  23.183  0.00  0.00    -0.465 OA
ATOM     16  H   UNL     1       8.863   5.381  22.918  0.00  0.00    +0.297 HD
ENDBRANCH  11  15
ENDBRANCH   1  12
BRANCH   6  17
ATOM     17  C   UNL     1       8.822  -3.346  23.695  0.00  0.00    +0.193 C 
ATOM     18  O   UNL     1       9.603  -3.970  24.411  0.00  0.00    -0.287 OA
BRANCH  17  19
ATOM     19  C   UNL     1       7.505  -3.960  23.353  0.00  0.00    +0.022 A 
ATOM     20  C   UNL     1       7.495  -5.231  22.756  0.00  0.00    +0.014 A 
ATOM     21  C   UNL     1       6.283  -5.869  22.477  0.00  0.00    +0.039 A 
ATOM     22  C   UNL     1       5.086  -5.235  22.793  0.00  0.00    +0.123 A 
ATOM     23  F   UNL     1       3.925  -5.856  22.542  0.00  0.00    -0.205 F 
ATOM     24  C   UNL     1       5.077  -3.978  23.383  0.00  0.00    +0.039 A 
ATOM     25  C   UNL     1       6.288  -3.342  23.675  0.00  0.00    +0.014 A 
ENDBRANCH  17  19
ENDBRANCH   6  17
TORSDOF 5
ENDMDL
MODEL 2
REMARK VINA RESULT:      -7.3      5.203      8.931
REMARK  Name = 
REMARK  6 active torsions:
REMARK  status: ('A' for Active; 'I' for Inactive)
REMARK    1  A    between atoms: C_1  and  O_2
REMARK    2  A    between atoms: O_2  and  C_3
REMARK    3  A    between atoms: C_3  and  O_4
REMARK    4  A    between atoms: N_5  and  C_6
REMARK    5  A    between atoms: C_12  and  C_15
REMARK    6  A    between atoms: C_15  and  C_17
REMARK                            x       y       z     vdW  Elec       q    Type
REMARK                         _______ _______ _______ _____ _____    ______ ____
ROOT
ATOM      1  C   UNL     1       6.480  -5.073  28.043  0.00  0.00    +0.235 A 
ATOM      2  N   UNL     1       6.095  -4.052  27.202  0.00  0.00    -0.322 N 
ATOM      3  H   UNL     1       5.259  -3.500  27.328  0.00  0.00    +0.169 HD
ATOM      4  C   UNL     1       7.034  -3.915  26.209  0.00  0.00    +0.068 A 
ATOM      5  C   UNL     1       7.176  -3.028  25.135  0.00  0.00    +0.039 A 
ATOM      6  C   UNL     1       8.314  -3.196  24.321  0.00  0.00    +0.024 A 
ATOM      7  C   UNL     1       9.217  -4.245  24.550  0.00  0.00    +0.014 A 
ATOM      8  C   UNL     1       9.047  -5.110  25.636  0.00  0.00    +0.030 A 
ATOM      9  C   UNL     1       7.940  -4.932  26.473  0.00  0.00    +0.091 A 
ATOM     10  N   UNL     1       7.572  -5.644  27.579  0.00  0.00    -0.211 NA
ENDROOT
BRANCH   1  12
ATOM     11  C   UNL     1       5.256  -6.593  29.152  0.00  0.00    +0.391 C 
ATOM     12  N   UNL     1       5.710  -5.384  29.110  0.00  0.00    -0.142 NA
BRANCH  11  14
ATOM     13  C   UNL     1       3.033  -7.179  29.695  0.00  0.00    +0.282 C 
ATOM     14  O   UNL     1       4.404  -7.072  30.085  0.00  0.00    -0.453 OA
ENDBRANCH  11  14
BRANCH  11  15
ATOM     15  O   UNL     1       5.552  -7.596  28.311  0.00  0.00    -0.465 OA
ATOM     16  H   UNL     1       5.246  -8.421  28.714  0.00  0.00    +0.297 HD
ENDBRANCH  11  15
ENDBRANCH   1  12
BRANCH   6  17
ATOM     17  C   UNL     1       8.521  -2.246  23.195  0.00  0.00    +0.193 C 
ATOM     18  O   UNL     1       8.027  -2.505  22.100  0.00  0.00    -0.287 OA
BRANCH  17  19
ATOM     19  C   UNL     1       9.287  -0.974  23.360  0.00  0.00    +0.022 A 
ATOM     20  C   UNL     1       9.367  -0.096  22.267  0.00  0.00    +0.014 A 
ATOM     21  C   UNL     1      10.021   1.133  22.398  0.00  0.00    +0.039 A 
ATOM     22  C   UNL     1      10.594   1.479  23.616  0.00  0.00    +0.123 A 
ATOM     23  F   UNL     1      11.205   2.665  23.745  0.00  0.00    -0.205 F 
ATOM     24  C   UNL     1      10.526   0.622  24.707  0.00  0.00    +0.039 A 
ATOM     25  C   UNL     1       9.862  -0.603  24.584  0.00  0.00    +0.014 A 
ENDBRANCH  17  19
ENDBRANCH   6  17
TORSDOF 5
ENDMDL
MODEL 3
REMARK VINA RESULT:      -7.1      4.656      8.779
REMARK  Name = 
REMARK  6 active torsions:
REMARK  status: ('A' for Active; 'I' for Inactive)
REMARK    1  A    between atoms: C_1  and  O_2
REMARK    2  A    between atoms: O_2  and  C_3
REMARK    3  A    between atoms: C_3  and  O_4
REMARK    4  A    between atoms: N_5  and  C_6
REMARK    5  A    between atoms: C_12  and  C_15
REMARK    6  A    between atoms: C_15  and  C_17
REMARK                            x       y       z     vdW  Elec       q    Type
REMARK                         _______ _______ _______ _____ _____    ______ ____
ROOT
ATOM      1  C   UNL     1       4.712  -4.583  23.359  0.00  0.00    +0.235 A 
ATOM      2  N   UNL     1       5.400  -3.809  22.450  0.00  0.00    -0.322 N 
ATOM      3  H   UNL     1       5.034  -3.533  21.550  0.00  0.00    +0.169 HD
ATOM      4  C   UNL     1       6.621  -3.476  22.983  0.00  0.00    +0.068 A 
ATOM      5  C   UNL     1       7.685  -2.687  22.531  0.00  0.00    +0.039 A 
ATOM      6  C   UNL     1       8.794  -2.566  23.392  0.00  0.00    +0.024 A 
ATOM      7  C   UNL     1       8.842  -3.260  24.610  0.00  0.00    +0.014 A 
ATOM      8  C   UNL     1       7.758  -4.037  25.034  0.00  0.00    +0.030 A 
ATOM      9  C   UNL     1       6.635  -4.137  24.204  0.00  0.00    +0.091 A 
ATOM     10  N   UNL     1       5.474  -4.827  24.404  0.00  0.00    -0.211 NA
ENDROOT
BRANCH   1  12
ATOM     11  C   UNL     1       3.270  -6.293  23.171  0.00  0.00    +0.391 C 
ATOM     12  N   UNL     1       3.469  -5.021  23.055  0.00  0.00    -0.142 NA
BRANCH  11  14
ATOM     13  C   UNL     1       1.820  -8.111  23.588  0.00  0.00    +0.282 C 
ATOM     14  O   UNL     1       2.129  -6.935  22.835  0.00  0.00    -0.453 OA
ENDBRANCH  11  14
BRANCH  11  15
ATOM     15  O   UNL     1       4.126  -7.203  23.659  0.00  0.00    -0.465 OA
ATOM     16  H   UNL     1       3.866  -8.070  23.315  0.00  0.00    +0.297 HD
ENDBRANCH  11  15
ENDBRANCH   1  12
BRANCH   6  17
ATOM     17  C   UNL     1       9.927  -1.700  22.964  0.00  0.00    +0.193 C 
ATOM     18  O   UNL     1      10.917  -2.225  22.460  0.00  0.00    -0.287 OA
BRANCH  17  19
ATOM     19  C   UNL     1       9.887  -0.214  23.103  0.00  0.00    +0.022 A 
ATOM     20  C   UNL     1       9.804   0.564  21.938  0.00  0.00    +0.014 A 
ATOM     21  C   UNL     1       9.701   1.956  22.026  0.00  0.00    +0.039 A 
ATOM     22  C   UNL     1       9.685   2.565  23.276  0.00  0.00    +0.123 A 
ATOM     23  F   UNL     1       9.568   3.897  23.359  0.00  0.00    -0.205 F 
ATOM     24  C   UNL     1       9.768   1.810  24.439  0.00  0.00    +0.039 A 
ATOM     25  C   UNL     1       9.858   0.417  24.356  0.00  0.00    +0.014 A 
ENDBRANCH  17  19
ENDBRANCH   6  17
TORSDOF 5
ENDMDL
MODEL 4
REMARK VINA RESULT:      -7.0      2.142      2.463
REMARK  Name = 
REMARK  6 active torsions:
REMARK  status: ('A' for Active; 'I' for Inactive)
REMARK    1  A    between atoms: C_1  and  O_2
REMARK    2  A    between atoms: O_2  and  C_3
REMARK    3  A    between atoms: C_3  and  O_4
REMARK    4  A    between atoms: N_5  and  C_6
REMARK    5  A    between atoms: C_12  and  C_15
REMARK    6  A    between atoms: C_15  and  C_17
REMARK                            x       y       z     vdW  Elec       q    Type
REMARK                         _______ _______ _______ _____ _____    ______ ____
ROOT
ATOM      1  C   UNL     1       7.343   2.131  22.025  0.00  0.00    +0.235 A 
ATOM      2  N   UNL     1       6.887   1.163  22.893  0.00  0.00    -0.322 N 
ATOM      3  H   UNL     1       6.043   1.246  23.441  0.00  0.00    +0.169 HD
ATOM      4  C   UNL     1       7.749   0.094  22.860  0.00  0.00    +0.068 A 
ATOM      5  C   UNL     1       7.755  -1.156  23.489  0.00  0.00    +0.039 A 
ATOM      6  C   UNL     1       8.831  -2.014  23.182  0.00  0.00    +0.024 A 
ATOM      7  C   UNL     1       9.870  -1.596  22.338  0.00  0.00    +0.014 A 
ATOM      8  C   UNL     1       9.829  -0.340  21.722  0.00  0.00    +0.030 A 
ATOM      9  C   UNL     1       8.749   0.507  21.990  0.00  0.00    +0.091 A 
ATOM     10  N   UNL     1       8.497   1.761  21.511  0.00  0.00    -0.211 NA
ENDROOT
BRANCH   1  12
ATOM     11  C   UNL     1       7.241   4.362  22.247  0.00  0.00    +0.391 C 
ATOM     12  N   UNL     1       6.642   3.278  21.879  0.00  0.00    -0.142 NA
BRANCH  11  14
ATOM     13  C   UNL     1       7.547   6.676  22.612  0.00  0.00    +0.282 C 
ATOM     14  O   UNL     1       6.683   5.593  22.261  0.00  0.00    -0.453 OA
ENDBRANCH  11  14
BRANCH  11  15
ATOM     15  O   UNL     1       8.513   4.482  22.657  0.00  0.00    -0.465 OA
ATOM     16  H   UNL     1       9.087   4.297  21.900  0.00  0.00    +0.297 HD
ENDBRANCH  11  15
ENDBRANCH   1  12
BRANCH   6  17
ATOM     17  C   UNL     1       8.849  -3.368  23.799  0.00  0.00    +0.193 C 
ATOM     18  O   UNL     1       9.880  -3.760  24.342  0.00  0.00    -0.287 OA
BRANCH  17  19
ATOM     19  C   UNL     1       7.647  -4.255  23.803  0.00  0.00    +0.022 A 
ATOM     20  C   UNL     1       7.250  -4.847  22.594  0.00  0.00    +0.014 A 
ATOM     21  C   UNL     1       6.169  -5.733  22.565  0.00  0.00    +0.039 A 
ATOM     22  C   UNL     1       5.487  -6.022  23.742  0.00  0.00    +0.123 A 
ATOM     23  F   UNL     1       4.462  -6.885  23.717  0.00  0.00    -0.205 F 
ATOM     24  C   UNL     1       5.866  -5.444  24.947  0.00  0.00    +0.039 A 
ATOM     25  C   UNL     1       6.955  -4.568  24.983  0.00  0.00    +0.014 A 
ENDBRANCH  17  19
ENDBRANCH   6  17
TORSDOF 5
ENDMDL
MODEL 5
REMARK VINA RESULT:      -6.9      4.657      8.169
REMARK  Name = 
REMARK  6 active torsions:
REMARK  status: ('A' for Active; 'I' for Inactive)
REMARK    1  A    between atoms: C_1  and  O_2
REMARK    2  A    between atoms: O_2  and  C_3
REMARK    3  A    between atoms: C_3  and  O_4
REMARK    4  A    between atoms: N_5  and  C_6
REMARK    5  A    between atoms: C_12  and  C_15
REMARK    6  A    between atoms: C_15  and  C_17
REMARK                            x       y       z     vdW  Elec       q    Type
REMARK                         _______ _______ _______ _____ _____    ______ ____
ROOT
ATOM      1  C   UNL     1       7.489  -5.250  26.647  0.00  0.00    +0.235 A 
ATOM      2  N   UNL     1       8.457  -4.270  26.630  0.00  0.00    -0.322 N 
ATOM      3  H   UNL     1       9.040  -4.037  27.421  0.00  0.00    +0.169 HD
ATOM      4  C   UNL     1       8.495  -3.703  25.379  0.00  0.00    +0.068 A 
ATOM      5  C   UNL     1       9.297  -2.717  24.795  0.00  0.00    +0.039 A 
ATOM      6  C   UNL     1       9.038  -2.409  23.444  0.00  0.00    +0.024 A 
ATOM      7  C   UNL     1       7.984  -3.022  22.753  0.00  0.00    +0.014 A 
ATOM      8  C   UNL     1       7.204  -4.009  23.367  0.00  0.00    +0.030 A 
ATOM      9  C   UNL     1       7.474  -4.350  24.696  0.00  0.00    +0.091 A 
ATOM     10  N   UNL     1       6.855  -5.270  25.493  0.00  0.00    -0.211 NA
ENDROOT
BRANCH   1  12
ATOM     11  C   UNL     1       6.366  -5.507  28.573  0.00  0.00    +0.391 C 
ATOM     12  N   UNL     1       7.278  -5.960  27.778  0.00  0.00    -0.142 NA
BRANCH  11  14
ATOM     13  C   UNL     1       4.679  -6.236  30.057  0.00  0.00    +0.282 C 
ATOM     14  O   UNL     1       6.066  -6.021  29.787  0.00  0.00    -0.453 OA
ENDBRANCH  11  14
BRANCH  11  15
ATOM     15  O   UNL     1       5.538  -4.476  28.347  0.00  0.00    -0.465 OA
ATOM     16  H   UNL     1       5.778  -3.763  28.956  0.00  0.00    +0.297 HD
ENDBRANCH  11  15
ENDBRANCH   1  12
BRANCH   6  17
ATOM     17  C   UNL     1       9.899  -1.394  22.776  0.00  0.00    +0.193 C 
ATOM     18  O   UNL     1      10.877  -1.773  22.136  0.00  0.00    -0.287 OA
BRANCH  17  19
ATOM     19  C   UNL     1       9.596   0.067  22.837  0.00  0.00    +0.022 A 
ATOM     20  C   UNL     1       8.924   0.656  21.755  0.00  0.00    +0.014 A 
ATOM     21  C   UNL     1       8.565   2.007  21.799  0.00  0.00    +0.039 A 
ATOM     22  C   UNL     1       8.883   2.765  22.921  0.00  0.00    +0.123 A 
ATOM     23  F   UNL     1       8.523   4.055  22.969  0.00  0.00    -0.205 F 
ATOM     24  C   UNL     1       9.549   2.198  24.000  0.00  0.00    +0.039 A 
ATOM     25  C   UNL     1       9.897   0.845  23.966  0.00  0.00    +0.014 A 
ENDBRANCH  17  19
ENDBRANCH   6  17
TORSDOF 5
ENDMDL
MODEL 6
REMARK VINA RESULT:      -6.9      4.771      8.800
REMARK  Name = 
REMARK  6 active torsions:
REMARK  status: ('A' for Active; 'I' for Inactive)
REMARK    1  A    between atoms: C_1  and  O_2
REMARK    2  A    between atoms: O_2  and  C_3
REMARK    3  A    between atoms: C_3  and  O_4
REMARK    4  A    between atoms: N_5  and  C_6
REMARK    5  A    between atoms: C_12  and  C_15
REMARK    6  A    between atoms: C_15  and  C_17
REMARK                            x       y       z     vdW  Elec       q    Type
REMARK                         _______ _______ _______ _____ _____    ______ ____
ROOT
ATOM      1  C   UNL     1       6.035  -5.484  25.298  0.00  0.00    +0.235 A 
ATOM      2  N   UNL     1       5.835  -4.578  24.280  0.00  0.00    -0.322 N 
ATOM      3  H   UNL     1       4.959  -4.460  23.791  0.00  0.00    +0.169 HD
ATOM      4  C   UNL     1       6.997  -3.876  24.074  0.00  0.00    +0.068 A 
ATOM      5  C   UNL     1       7.347  -2.825  23.218  0.00  0.00    +0.039 A 
ATOM      6  C   UNL     1       8.669  -2.345  23.313  0.00  0.00    +0.024 A 
ATOM      7  C   UNL     1       9.594  -2.944  24.180  0.00  0.00    +0.014 A 
ATOM      8  C   UNL     1       9.209  -3.989  25.026  0.00  0.00    +0.030 A 
ATOM      9  C   UNL     1       7.890  -4.452  24.967  0.00  0.00    +0.091 A 
ATOM     10  N   UNL     1       7.292  -5.447  25.686  0.00  0.00    -0.211 NA
ENDROOT
BRANCH   1  12
ATOM     11  C   UNL     1       4.517  -7.054  24.780  0.00  0.00    +0.391 C 
ATOM     12  N   UNL     1       5.017  -6.284  25.689  0.00  0.00    -0.142 NA
BRANCH  11  14
ATOM     13  C   UNL     1       2.290  -7.545  24.166  0.00  0.00    +0.282 C 
ATOM     14  O   UNL     1       3.445  -7.860  24.946  0.00  0.00    -0.453 OA
ENDBRANCH  11  14
BRANCH  11  15
ATOM     15  O   UNL     1       4.968  -7.222  23.527  0.00  0.00    -0.465 OA
ATOM     16  H   UNL     1       5.630  -6.537  23.356  0.00  0.00    +0.297 HD
ENDBRANCH  11  15
ENDBRANCH   1  12
BRANCH   6  17
ATOM     17  C   UNL     1       9.066  -1.200  22.448  0.00  0.00    +0.193 C 
ATOM     18  O   UNL     1       9.193  -1.385  21.239  0.00  0.00    -0.287 OA
BRANCH  17  19
ATOM     19  C   UNL     1       9.290   0.170  22.998  0.00  0.00    +0.022 A 
ATOM     20  C   UNL     1      10.024   1.087  22.229  0.00  0.00    +0.014 A 
ATOM     21  C   UNL     1      10.203   2.398  22.678  0.00  0.00    +0.039 A 
ATOM     22  C   UNL     1       9.652   2.789  23.894  0.00  0.00    +0.123 A 
ATOM     23  F   UNL     1       9.809   4.051  24.315  0.00  0.00    -0.205 F 
ATOM     24  C   UNL     1       8.924   1.894  24.668  0.00  0.00    +0.039 A 
ATOM     25  C   UNL     1       8.731   0.585  24.216  0.00  0.00    +0.014 A 
ENDBRANCH  17  19
ENDBRANCH   6  17
TORSDOF 5
ENDMDL
MODEL 7
REMARK VINA RESULT:      -6.9      5.299      9.289
REMARK  Name = 
REMARK  6 active torsions:
REMARK  status: ('A' for Active; 'I' for Inactive)
REMARK    1  A    between atoms: C_1  and  O_2
REMARK    2  A    between atoms: O_2  and  C_3
REMARK    3  A    between atoms: C_3  and  O_4
REMARK    4  A    between atoms: N_5  and  C_6
REMARK    5  A    between atoms: C_12  and  C_15
REMARK    6  A    between atoms: C_15  and  C_17
REMARK                            x       y       z     vdW  Elec       q    Type
REMARK                         _______ _______ _______ _____ _____    ______ ____
ROOT
ATOM      1  C   UNL     1       3.721  -5.831  23.914  0.00  0.00    +0.235 A 
ATOM      2  N   UNL     1       4.971  -6.003  23.360  0.00  0.00    -0.322 N 
ATOM      3  H   UNL     1       5.193  -6.712  22.676  0.00  0.00    +0.169 HD
ATOM      4  C   UNL     1       5.821  -5.056  23.876  0.00  0.00    +0.068 A 
ATOM      5  C   UNL     1       7.164  -4.739  23.641  0.00  0.00    +0.039 A 
ATOM      6  C   UNL     1       7.696  -3.657  24.370  0.00  0.00    +0.024 A 
ATOM      7  C   UNL     1       6.925  -2.983  25.328  0.00  0.00    +0.014 A 
ATOM      8  C   UNL     1       5.583  -3.323  25.534  0.00  0.00    +0.030 A 
ATOM      9  C   UNL     1       5.032  -4.372  24.790  0.00  0.00    +0.091 A 
ATOM     10  N   UNL     1       3.763  -4.875  24.818  0.00  0.00    -0.211 NA
ENDROOT
BRANCH   1  12
ATOM     11  C   UNL     1       2.620  -7.768  24.180  0.00  0.00    +0.391 C 
ATOM     12  N   UNL     1       2.709  -6.647  23.543  0.00  0.00    -0.142 NA
BRANCH  11  14
ATOM     13  C   UNL     1       0.935  -8.571  22.732  0.00  0.00    +0.282 C 
ATOM     14  O   UNL     1       1.736  -8.752  23.902  0.00  0.00    -0.453 OA
ENDBRANCH  11  14
BRANCH  11  15
ATOM     15  O   UNL     1       3.353  -8.159  25.233  0.00  0.00    -0.465 OA
ATOM     16  H   UNL     1       3.430  -9.124  25.200  0.00  0.00    +0.297 HD
ENDBRANCH  11  15
ENDBRANCH   1  12
BRANCH   6  17
ATOM     17  C   UNL     1       9.109  -3.264  24.117  0.00  0.00    +0.193 C 
ATOM     18  O   UNL     1      10.007  -4.047  24.417  0.00  0.00    -0.287 OA
BRANCH  17  19
ATOM     19  C   UNL     1       9.469  -1.959  23.485  0.00  0.00    +0.022 A 
ATOM     20  C   UNL     1       9.145  -1.760  22.133  0.00  0.00    +0.014 A 
ATOM     21  C   UNL     1       9.407  -0.531  21.520  0.00  0.00    +0.039 A 
ATOM     22  C   UNL     1       9.994   0.492  22.257  0.00  0.00    +0.123 A 
ATOM     23  F   UNL     1      10.228   1.675  21.673  0.00  0.00    -0.205 F 
ATOM     24  C   UNL     1      10.322   0.311  23.594  0.00  0.00    +0.039 A 
ATOM     25  C   UNL     1      10.050  -0.912  24.215  0.00  0.00    +0.014 A 
ENDBRANCH  17  19
ENDBRANCH   6  17
TORSDOF 5
ENDMDL
MODEL 8
REMARK VINA RESULT:      -6.7      1.671      2.025
REMARK  Name = 
REMARK  6 active torsions:
REMARK  status: ('A' for Active; 'I' for Inactive)
REMARK    1  A    between atoms: C_1  and  O_2
REMARK    2  A    between atoms: O_2  and  C_3
REMARK    3  A    between atoms: C_3  and  O_4
REMARK    4  A    between atoms: N_5  and  C_6
REMARK    5  A    between atoms: C_12  and  C_15
REMARK    6  A    between atoms: C_15  and  C_17
REMARK                            x       y       z     vdW  Elec       q    Type
REMARK                         _______ _______ _______ _____ _____    ______ ____
ROOT
ATOM      1  C   UNL     1       9.454   1.813  24.378  0.00  0.00    +0.235 A 
ATOM      2  N   UNL     1       8.913   1.016  25.363  0.00  0.00    -0.322 N 
ATOM      3  H   UNL     1       8.447   1.372  26.186  0.00  0.00    +0.169 HD
ATOM      4  C   UNL     1       9.100  -0.302  25.024  0.00  0.00    +0.068 A 
ATOM      5  C   UNL     1       8.723  -1.511  25.619  0.00  0.00    +0.039 A 
ATOM      6  C   UNL     1       9.092  -2.691  24.943  0.00  0.00    +0.024 A 
ATOM      7  C   UNL     1       9.856  -2.642  23.768  0.00  0.00    +0.014 A 
ATOM      8  C   UNL     1      10.211  -1.415  23.197  0.00  0.00    +0.030 A 
ATOM      9  C   UNL     1       9.820  -0.234  23.839  0.00  0.00    +0.091 A 
ATOM     10  N   UNL     1      10.049   1.062  23.475  0.00  0.00    -0.211 NA
ENDROOT
BRANCH   1  12
ATOM     11  C   UNL     1       8.996   3.797  23.433  0.00  0.00    +0.391 C 
ATOM     12  N   UNL     1       9.376   3.158  24.490  0.00  0.00    -0.142 NA
BRANCH  11  14
ATOM     13  C   UNL     1      10.105   5.863  23.718  0.00  0.00    +0.282 C 
ATOM     14  O   UNL     1       8.938   5.142  23.316  0.00  0.00    -0.453 OA
ENDBRANCH  11  14
BRANCH  11  15
ATOM     15  O   UNL     1       8.571   3.264  22.277  0.00  0.00    -0.465 OA
ATOM     16  H   UNL     1       8.175   2.403  22.475  0.00  0.00    +0.297 HD
ENDBRANCH  11  15
ENDBRANCH   1  12
BRANCH   6  17
ATOM     17  C   UNL     1       8.671  -3.996  25.524  0.00  0.00    +0.193 C 
ATOM     18  O   UNL     1       9.289  -4.444  26.487  0.00  0.00    -0.287 OA
BRANCH  17  19
ATOM     19  C   UNL     1       7.508  -4.765  24.989  0.00  0.00    +0.022 A 
ATOM     20  C   UNL     1       6.573  -5.281  25.900  0.00  0.00    +0.014 A 
ATOM     21  C   UNL     1       5.437  -5.952  25.439  0.00  0.00    +0.039 A 
ATOM     22  C   UNL     1       5.240  -6.108  24.072  0.00  0.00    +0.123 A 
ATOM     23  F   UNL     1       4.141  -6.736  23.630  0.00  0.00    -0.205 F 
ATOM     24  C   UNL     1       6.155  -5.605  23.156  0.00  0.00    +0.039 A 
ATOM     25  C   UNL     1       7.286  -4.921  23.613  0.00  0.00    +0.014 A 
ENDBRANCH  17  19
ENDBRANCH   6  17
TORSDOF 5
ENDMDL
MODEL 9
REMARK VINA RESULT:      -6.6      2.723      3.251
REMARK  Name = 
REMARK  6 active torsions:
REMARK  status: ('A' for Active; 'I' for Inactive)
REMARK    1  A    between atoms: C_1  and  O_2
REMARK    2  A    between atoms: O_2  and  C_3
REMARK    3  A    between atoms: C_3  and  O_4
REMARK    4  A    between atoms: N_5  and  C_6
REMARK    5  A    between atoms: C_12  and  C_15
REMARK    6  A    between atoms: C_15  and  C_17
REMARK                            x       y       z     vdW  Elec       q    Type
REMARK                         _______ _______ _______ _____ _____    ______ ____
ROOT
ATOM      1  C   UNL     1       7.499   2.255  22.105  0.00  0.00    +0.235 A 
ATOM      2  N   UNL     1       6.699   1.263  22.630  0.00  0.00    -0.322 N 
ATOM      3  H   UNL     1       5.774   1.421  23.003  0.00  0.00    +0.169 HD
ATOM      4  C   UNL     1       7.358   0.062  22.536  0.00  0.00    +0.068 A 
ATOM      5  C   UNL     1       7.011  -1.254  22.863  0.00  0.00    +0.039 A 
ATOM      6  C   UNL     1       7.974  -2.247  22.596  0.00  0.00    +0.024 A 
ATOM      7  C   UNL     1       9.238  -1.911  22.089  0.00  0.00    +0.014 A 
ATOM      8  C   UNL     1       9.550  -0.585  21.769  0.00  0.00    +0.030 A 
ATOM      9  C   UNL     1       8.589   0.407  21.995  0.00  0.00    +0.091 A 
ATOM     10  N   UNL     1       8.666   1.750  21.764  0.00  0.00    -0.211 NA
ENDROOT
BRANCH   1  12
ATOM     11  C   UNL     1       7.584   4.340  22.930  0.00  0.00    +0.391 C 
ATOM     12  N   UNL     1       7.049   3.529  22.078  0.00  0.00    -0.142 NA
BRANCH  11  14
ATOM     13  C   UNL     1       8.241   6.609  22.965  0.00  0.00    +0.282 C 
ATOM     14  O   UNL     1       7.214   5.626  23.118  0.00  0.00    -0.453 OA
ENDBRANCH  11  14
BRANCH  11  15
ATOM     15  O   UNL     1       8.607   4.081  23.759  0.00  0.00    -0.465 OA
ATOM     16  H   UNL     1       9.297   4.739  23.595  0.00  0.00    +0.297 HD
ENDBRANCH  11  15
ENDBRANCH   1  12
BRANCH   6  17
ATOM     17  C   UNL     1       7.625  -3.664  22.891  0.00  0.00    +0.193 C 
ATOM     18  O   UNL     1       7.361  -4.418  21.957  0.00  0.00    -0.287 OA
BRANCH  17  19
ATOM     19  C   UNL     1       7.610  -4.204  24.283  0.00  0.00    +0.022 A 
ATOM     20  C   UNL     1       6.458  -4.871  24.729  0.00  0.00    +0.014 A 
ATOM     21  C   UNL     1       6.426  -5.446  26.002  0.00  0.00    +0.039 A 
ATOM     22  C   UNL     1       7.542  -5.352  26.827  0.00  0.00    +0.123 A 
ATOM     23  F   UNL     1       7.516  -5.919  28.040  0.00  0.00    -0.205 F 
ATOM     24  C   UNL     1       8.689  -4.695  26.402  0.00  0.00    +0.039 A 
ATOM     25  C   UNL     1       8.731  -4.129  25.124  0.00  0.00    +0.014 A 
ENDBRANCH  17  19
ENDBRANCH   6  17
TORSDOF 5
ENDMDL
