MODEL 1
REMARK VINA RESULT:      -8.6      0.000      0.000
REMARK  Name = 
REMARK  8 active torsions:
REMARK  status: ('A' for Active; 'I' for Inactive)
REMARK    1  A    between atoms: O_1  and  O_2
REMARK    2  A    between atoms: O_2  and  C_3
REMARK    3  A    between atoms: C_3  and  C_4
REMARK    4  A    between atoms: C_4  and  C_5
REMARK    5  A    between atoms: C_14  and  C_16
REMARK    6  A    between atoms: C_16  and  C_17
REMARK    7  A    between atoms: C_24  and  C_29
REMARK    8  A    between atoms: C_32  and  O_33
REMARK                            x       y       z     vdW  Elec       q    Type
REMARK                         _______ _______ _______ _____ _____    ______ ____
ROOT
ATOM      1  C   UNL     1       5.805  -4.973  22.593  0.00  0.00    +0.381 C 
ATOM      2  C   UNL     1       6.290  -3.728  21.828  0.00  0.00    +0.391 C 
ATOM      3  O   UNL     1       5.705  -3.138  20.927  0.00  0.00    -0.239 OA
ATOM      4  N   UNL     1       7.448  -3.365  22.446  0.00  0.00    -0.123 N 
ATOM      5  C   UNL     1       7.735  -4.267  23.415  0.00  0.00    +0.320 C 
ATOM      6  C   UNL     1       9.024  -4.038  24.209  0.00  0.00    +0.192 C 
ATOM      7  N   UNL     1       9.342  -2.589  24.234  0.00  0.00    -0.327 N 
ATOM      8  H   UNL     1       9.948  -2.238  24.968  0.00  0.00    +0.147 HD
ATOM      9  C   UNL     1       8.995  -1.746  23.183  0.00  0.00    +0.073 C 
ATOM     10  C   UNL     1       8.101  -2.175  22.267  0.00  0.00    +0.223 C 
ATOM     11  N   UNL     1       6.915  -5.263  23.566  0.00  0.00    -0.033 NA
ENDROOT
BRANCH   9  12
ATOM     12  C   UNL     1       9.509  -0.350  23.143  0.00  0.00    -0.001 A 
ATOM     13  C   UNL     1      10.093   0.257  24.265  0.00  0.00    +0.013 A 
ATOM     14  C   UNL     1      10.530   1.589  24.213  0.00  0.00    +0.046 A 
ATOM     15  C   UNL     1      10.402   2.320  23.040  0.00  0.00    +0.117 A 
ATOM     16  C   UNL     1       9.831   1.751  21.914  0.00  0.00    +0.046 A 
ATOM     17  C   UNL     1       9.379   0.429  21.973  0.00  0.00    +0.013 A 
BRANCH  15  18
ATOM     18  O   UNL     1      10.850   3.608  23.031  0.00  0.00    -0.507 OA
ATOM     19  H   UNL     1      11.788   3.611  22.782  0.00  0.00    +0.292 HD
ENDBRANCH  15  18
ENDBRANCH   9  12
BRANCH   1  20
ATOM     20  O   UNL     1       5.452  -6.004  21.668  0.00  0.00    -0.169 OA
BRANCH  20  21
ATOM     21  O   UNL     1       6.092  -5.675  20.396  0.00  0.00    -0.245 OA
ATOM     22  H   UNL     1       6.037  -4.707  20.500  0.00  0.00    +0.253 HD
ENDBRANCH  20  21
ENDBRANCH   1  20
BRANCH   6  23
ATOM     23  C   UNL     1       9.016  -4.691  25.601  0.00  0.00    +0.069 C 
BRANCH  23  24
ATOM     24  C   UNL     1       7.787  -4.581  26.482  0.00  0.00    -0.045 A 
ATOM     25  C   UNL     1       7.129  -3.340  26.554  0.00  0.00    +0.004 A 
ATOM     26  C   UNL     1       5.922  -3.207  27.245  0.00  0.00    +0.000 A 
ATOM     27  C   UNL     1       5.366  -4.309  27.890  0.00  0.00    +0.000 A 
ATOM     28  C   UNL     1       6.039  -5.526  27.884  0.00  0.00    +0.000 A 
ATOM     29  C   UNL     1       7.244  -5.657  27.192  0.00  0.00    +0.004 A 
ENDBRANCH  23  24
ENDBRANCH   6  23
BRANCH   1  30
ATOM     30  C   UNL     1       4.549  -4.515  23.379  0.00  0.00    +0.138 C 
BRANCH  30  31
ATOM     31  C   UNL     1       3.621  -5.616  23.844  0.00  0.00    -0.040 A 
ATOM     32  C   UNL     1       4.009  -6.465  24.891  0.00  0.00    +0.005 A 
ATOM     33  C   UNL     1       3.170  -7.494  25.320  0.00  0.00    +0.014 A 
ATOM     34  C   UNL     1       1.934  -7.681  24.702  0.00  0.00    +0.013 A 
ATOM     35  I   UNL     1       0.674  -9.200  25.358  0.00  0.00    -0.044 I 
ATOM     36  C   UNL     1       1.537  -6.852  23.655  0.00  0.00    +0.014 A 
ATOM     37  C   UNL     1       2.378  -5.820  23.230  0.00  0.00    +0.005 A 
ENDBRANCH  30  31
ENDBRANCH   1  30
TORSDOF 8
ENDMDL
MODEL 2
REMARK VINA RESULT:      -7.5      3.161      4.377
REMARK  Name = 
REMARK  8 active torsions:
REMARK  status: ('A' for Active; 'I' for Inactive)
REMARK    1  A    between atoms: O_1  and  O_2
REMARK    2  A    between atoms: O_2  and  C_3
REMARK    3  A    between atoms: C_3  and  C_4
REMARK    4  A    between atoms: C_4  and  C_5
REMARK    5  A    between atoms: C_14  and  C_16
REMARK    6  A    between atoms: C_16  and  C_17
REMARK    7  A    between atoms: C_24  and  C_29
REMARK    8  A    between atoms: C_32  and  O_33
REMARK                            x       y       z     vdW  Elec       q    Type
REMARK                         _______ _______ _______ _____ _____    ______ ____
ROOT
ATOM      1  C   UNL     1       8.898  -3.665  24.470  0.00  0.00    +0.381 C 
ATOM      2  C   UNL     1       9.813  -2.553  23.927  0.00  0.00    +0.391 C 
ATOM      3  O   UNL     1      10.559  -2.616  22.957  0.00  0.00    -0.239 OA
ATOM      4  N   UNL     1       9.527  -1.460  24.688  0.00  0.00    -0.123 N 
ATOM      5  C   UNL     1       8.626  -1.805  25.639  0.00  0.00    +0.320 C 
ATOM      6  C   UNL     1       8.198  -0.705  26.613  0.00  0.00    +0.192 C 
ATOM      7  N   UNL     1       8.316   0.619  25.952  0.00  0.00    -0.327 N 
ATOM      8  H   UNL     1       7.777   1.395  26.321  0.00  0.00    +0.147 HD
ATOM      9  C   UNL     1       9.279   0.866  24.978  0.00  0.00    +0.073 C 
ATOM     10  C   UNL     1       9.918  -0.178  24.408  0.00  0.00    +0.223 C 
ATOM     11  N   UNL     1       8.228  -3.041  25.664  0.00  0.00    -0.033 NA
ENDROOT
BRANCH   9  12
ATOM     12  C   UNL     1       9.509   2.252  24.489  0.00  0.00    -0.001 A 
ATOM     13  C   UNL     1      10.637   2.593  23.727  0.00  0.00    +0.013 A 
ATOM     14  C   UNL     1      10.851   3.916  23.315  0.00  0.00    +0.046 A 
ATOM     15  C   UNL     1       9.936   4.907  23.646  0.00  0.00    +0.117 A 
ATOM     16  C   UNL     1       8.811   4.604  24.396  0.00  0.00    +0.046 A 
ATOM     17  C   UNL     1       8.609   3.288  24.821  0.00  0.00    +0.013 A 
BRANCH  15  18
ATOM     18  O   UNL     1      10.178   6.178  23.217  0.00  0.00    -0.507 OA
ATOM     19  H   UNL     1      10.221   6.766  23.988  0.00  0.00    +0.292 HD
ENDBRANCH  15  18
ENDBRANCH   9  12
BRANCH   1  20
ATOM     20  O   UNL     1       9.656  -4.857  24.686  0.00  0.00    -0.169 OA
BRANCH  20  21
ATOM     21  O   UNL     1       9.480  -5.226  26.090  0.00  0.00    -0.245 OA
ATOM     22  H   UNL     1       9.105  -6.110  25.917  0.00  0.00    +0.253 HD
ENDBRANCH  20  21
ENDBRANCH   1  20
BRANCH   6  23
ATOM     23  C   UNL     1       6.824  -0.950  27.257  0.00  0.00    +0.069 C 
BRANCH  23  24
ATOM     24  C   UNL     1       5.821   0.184  27.358  0.00  0.00    -0.045 A 
ATOM     25  C   UNL     1       5.859   1.006  28.498  0.00  0.00    +0.004 A 
ATOM     26  C   UNL     1       5.050   2.140  28.591  0.00  0.00    +0.000 A 
ATOM     27  C   UNL     1       4.177   2.458  27.554  0.00  0.00    +0.000 A 
ATOM     28  C   UNL     1       4.080   1.618  26.450  0.00  0.00    +0.000 A 
ATOM     29  C   UNL     1       4.891   0.486  26.358  0.00  0.00    +0.004 A 
ENDBRANCH  23  24
ENDBRANCH   6  23
BRANCH   1  30
ATOM     30  C   UNL     1       7.836  -3.907  23.365  0.00  0.00    +0.138 C 
BRANCH  30  31
ATOM     31  C   UNL     1       6.447  -4.263  23.847  0.00  0.00    -0.040 A 
ATOM     32  C   UNL     1       5.423  -3.306  23.801  0.00  0.00    +0.005 A 
ATOM     33  C   UNL     1       4.140  -3.615  24.256  0.00  0.00    +0.014 A 
ATOM     34  C   UNL     1       3.874  -4.886  24.763  0.00  0.00    +0.013 A 
ATOM     35  I   UNL     1       1.957  -5.353  25.419  0.00  0.00    -0.044 I 
ATOM     36  C   UNL     1       4.882  -5.846  24.824  0.00  0.00    +0.014 A 
ATOM     37  C   UNL     1       6.165  -5.535  24.364  0.00  0.00    +0.005 A 
ENDBRANCH  30  31
ENDBRANCH   1  30
TORSDOF 8
ENDMDL
MODEL 3
REMARK VINA RESULT:      -7.4      2.496      3.537
REMARK  Name = 
REMARK  8 active torsions:
REMARK  status: ('A' for Active; 'I' for Inactive)
REMARK    1  A    between atoms: O_1  and  O_2
REMARK    2  A    between atoms: O_2  and  C_3
REMARK    3  A    between atoms: C_3  and  C_4
REMARK    4  A    between atoms: C_4  and  C_5
REMARK    5  A    between atoms: C_14  and  C_16
REMARK    6  A    between atoms: C_16  and  C_17
REMARK    7  A    between atoms: C_24  and  C_29
REMARK    8  A    between atoms: C_32  and  O_33
REMARK                            x       y       z     vdW  Elec       q    Type
REMARK                         _______ _______ _______ _____ _____    ______ ____
ROOT
ATOM      1  C   UNL     1       7.809  -4.736  25.365  0.00  0.00    +0.381 C 
ATOM      2  C   UNL     1       8.961  -3.747  25.117  0.00  0.00    +0.391 C 
ATOM      3  O   UNL     1      10.042  -3.985  24.588  0.00  0.00    -0.239 OA
ATOM      4  N   UNL     1       8.475  -2.535  25.507  0.00  0.00    -0.123 N 
ATOM      5  C   UNL     1       7.228  -2.699  26.011  0.00  0.00    +0.320 C 
ATOM      6  C   UNL     1       6.525  -1.443  26.528  0.00  0.00    +0.192 C 
ATOM      7  N   UNL     1       7.028  -0.253  25.798  0.00  0.00    -0.327 N 
ATOM      8  H   UNL     1       6.454   0.582  25.777  0.00  0.00    +0.147 HD
ATOM      9  C   UNL     1       8.332  -0.190  25.315  0.00  0.00    +0.073 C 
ATOM     10  C   UNL     1       9.059  -1.326  25.240  0.00  0.00    +0.223 C 
ATOM     11  N   UNL     1       6.752  -3.907  26.043  0.00  0.00    -0.033 NA
ENDROOT
BRANCH   9  12
ATOM     12  C   UNL     1       8.868   1.088  24.776  0.00  0.00    -0.001 A 
ATOM     13  C   UNL     1      10.099   1.153  24.105  0.00  0.00    +0.013 A 
ATOM     14  C   UNL     1      10.602   2.378  23.644  0.00  0.00    +0.046 A 
ATOM     15  C   UNL     1       9.876   3.546  23.836  0.00  0.00    +0.117 A 
ATOM     16  C   UNL     1       8.658   3.518  24.493  0.00  0.00    +0.046 A 
ATOM     17  C   UNL     1       8.167   2.298  24.968  0.00  0.00    +0.013 A 
BRANCH  15  18
ATOM     18  O   UNL     1      10.397   4.714  23.363  0.00  0.00    -0.507 OA
ATOM     19  H   UNL     1       9.990   4.913  22.505  0.00  0.00    +0.292 HD
ENDBRANCH  15  18
ENDBRANCH   9  12
BRANCH   1  20
ATOM     20  O   UNL     1       8.295  -5.884  26.062  0.00  0.00    -0.169 OA
BRANCH  20  21
ATOM     21  O   UNL     1       7.834  -5.771  27.445  0.00  0.00    -0.245 OA
ATOM     22  H   UNL     1       8.167  -4.866  27.591  0.00  0.00    +0.253 HD
ENDBRANCH  20  21
ENDBRANCH   1  20
BRANCH   6  23
ATOM     23  C   UNL     1       4.991  -1.554  26.539  0.00  0.00    +0.069 C 
BRANCH  23  24
ATOM     24  C   UNL     1       4.318  -2.674  27.309  0.00  0.00    -0.045 A 
ATOM     25  C   UNL     1       3.460  -3.541  26.609  0.00  0.00    +0.004 A 
ATOM     26  C   UNL     1       2.912  -4.664  27.232  0.00  0.00    +0.000 A 
ATOM     27  C   UNL     1       3.198  -4.926  28.568  0.00  0.00    +0.000 A 
ATOM     28  C   UNL     1       3.991  -4.042  29.292  0.00  0.00    +0.000 A 
ATOM     29  C   UNL     1       4.539  -2.921  28.668  0.00  0.00    +0.004 A 
ENDBRANCH  23  24
ENDBRANCH   6  23
BRANCH   1  30
ATOM     30  C   UNL     1       7.303  -5.147  23.958  0.00  0.00    +0.138 C 
BRANCH  30  31
ATOM     31  C   UNL     1       5.813  -5.378  23.830  0.00  0.00    -0.040 A 
ATOM     32  C   UNL     1       4.998  -4.395  23.250  0.00  0.00    +0.005 A 
ATOM     33  C   UNL     1       3.621  -4.588  23.140  0.00  0.00    +0.014 A 
ATOM     34  C   UNL     1       3.047  -5.768  23.612  0.00  0.00    +0.013 A 
ATOM     35  I   UNL     1       0.998  -6.064  23.425  0.00  0.00    -0.044 I 
ATOM     36  C   UNL     1       3.841  -6.751  24.198  0.00  0.00    +0.014 A 
ATOM     37  C   UNL     1       5.221  -6.557  24.304  0.00  0.00    +0.005 A 
ENDBRANCH  30  31
ENDBRANCH   1  30
TORSDOF 8
ENDMDL
MODEL 4
REMARK VINA RESULT:      -7.2      3.184      4.276
REMARK  Name = 
REMARK  8 active torsions:
REMARK  status: ('A' for Active; 'I' for Inactive)
REMARK    1  A    between atoms: O_1  and  O_2
REMARK    2  A    between atoms: O_2  and  C_3
REMARK    3  A    between atoms: C_3  and  C_4
REMARK    4  A    between atoms: C_4  and  C_5
REMARK    5  A    between atoms: C_14  and  C_16
REMARK    6  A    between atoms: C_16  and  C_17
REMARK    7  A    between atoms: C_24  and  C_29
REMARK    8  A    between atoms: C_32  and  O_33
REMARK                            x       y       z     vdW  Elec       q    Type
REMARK                         _______ _______ _______ _____ _____    ______ ____
ROOT
ATOM      1  C   UNL     1       9.145  -3.868  24.691  0.00  0.00    +0.381 C 
ATOM      2  C   UNL     1       9.656  -2.634  23.927  0.00  0.00    +0.391 C 
ATOM      3  O   UNL     1      10.380  -2.622  22.937  0.00  0.00    -0.239 OA
ATOM      4  N   UNL     1       9.040  -1.573  24.519  0.00  0.00    -0.123 N 
ATOM      5  C   UNL     1       8.299  -2.018  25.563  0.00  0.00    +0.320 C 
ATOM      6  C   UNL     1       7.547  -0.959  26.373  0.00  0.00    +0.192 C 
ATOM      7  N   UNL     1       7.235   0.203  25.505  0.00  0.00    -0.327 N 
ATOM      8  H   UNL     1       6.478   0.822  25.775  0.00  0.00    +0.147 HD
ATOM      9  C   UNL     1       8.065   0.571  24.450  0.00  0.00    +0.073 C 
ATOM     10  C   UNL     1       9.001  -0.301  24.017  0.00  0.00    +0.223 C 
ATOM     11  N   UNL     1       8.316  -3.293  25.807  0.00  0.00    -0.033 NA
ENDROOT
BRANCH   9  12
ATOM     12  C   UNL     1       7.839   1.856  23.734  0.00  0.00    -0.001 A 
ATOM     13  C   UNL     1       6.865   1.985  22.733  0.00  0.00    +0.013 A 
ATOM     14  C   UNL     1       6.701   3.195  22.043  0.00  0.00    +0.046 A 
ATOM     15  C   UNL     1       7.496   4.290  22.356  0.00  0.00    +0.117 A 
ATOM     16  C   UNL     1       8.466   4.197  23.341  0.00  0.00    +0.046 A 
ATOM     17  C   UNL     1       8.640   2.984  24.014  0.00  0.00    +0.013 A 
BRANCH  15  18
ATOM     18  O   UNL     1       7.296   5.450  21.669  0.00  0.00    -0.507 OA
ATOM     19  H   UNL     1       6.374   5.481  21.369  0.00  0.00    +0.292 HD
ENDBRANCH  15  18
ENDBRANCH   9  12
BRANCH   1  20
ATOM     20  O   UNL     1      10.245  -4.708  25.050  0.00  0.00    -0.169 OA
BRANCH  20  21
ATOM     21  O   UNL     1       9.745  -6.081  25.067  0.00  0.00    -0.245 OA
ATOM     22  H   UNL     1      10.541  -6.475  25.470  0.00  0.00    +0.253 HD
ENDBRANCH  20  21
ENDBRANCH   1  20
BRANCH   6  23
ATOM     23  C   UNL     1       6.325  -1.510  27.126  0.00  0.00    +0.069 C 
BRANCH  23  24
ATOM     24  C   UNL     1       5.206  -0.574  27.542  0.00  0.00    -0.045 A 
ATOM     25  C   UNL     1       3.932  -0.769  26.980  0.00  0.00    +0.004 A 
ATOM     26  C   UNL     1       2.834  -0.025  27.417  0.00  0.00    +0.000 A 
ATOM     27  C   UNL     1       2.999   0.938  28.409  0.00  0.00    +0.000 A 
ATOM     28  C   UNL     1       4.265   1.189  28.927  0.00  0.00    +0.000 A 
ATOM     29  C   UNL     1       5.360   0.443  28.490  0.00  0.00    +0.004 A 
ENDBRANCH  23  24
ENDBRANCH   6  23
BRANCH   1  30
ATOM     30  C   UNL     1       8.212  -4.614  23.702  0.00  0.00    +0.138 C 
BRANCH  30  31
ATOM     31  C   UNL     1       6.734  -4.573  24.025  0.00  0.00    -0.040 A 
ATOM     32  C   UNL     1       6.189  -5.494  24.930  0.00  0.00    +0.005 A 
ATOM     33  C   UNL     1       4.826  -5.478  25.226  0.00  0.00    +0.014 A 
ATOM     34  C   UNL     1       3.996  -4.539  24.615  0.00  0.00    +0.013 A 
ATOM     35  I   UNL     1       1.969  -4.501  25.074  0.00  0.00    -0.044 I 
ATOM     36  C   UNL     1       4.520  -3.622  23.707  0.00  0.00    +0.014 A 
ATOM     37  C   UNL     1       5.887  -3.637  23.415  0.00  0.00    +0.005 A 
ENDBRANCH  30  31
ENDBRANCH   1  30
TORSDOF 8
ENDMDL
MODEL 5
REMARK VINA RESULT:      -7.2      4.710      8.623
REMARK  Name = 
REMARK  8 active torsions:
REMARK  status: ('A' for Active; 'I' for Inactive)
REMARK    1  A    between atoms: O_1  and  O_2
REMARK    2  A    between atoms: O_2  and  C_3
REMARK    3  A    between atoms: C_3  and  C_4
REMARK    4  A    between atoms: C_4  and  C_5
REMARK    5  A    between atoms: C_14  and  C_16
REMARK    6  A    between atoms: C_16  and  C_17
REMARK    7  A    between atoms: C_24  and  C_29
REMARK    8  A    between atoms: C_32  and  O_33
REMARK                            x       y       z     vdW  Elec       q    Type
REMARK                         _______ _______ _______ _____ _____    ______ ____
ROOT
ATOM      1  C   UNL     1       5.539   1.076  27.062  0.00  0.00    +0.381 C 
ATOM      2  C   UNL     1       4.836  -0.214  26.605  0.00  0.00    +0.391 C 
ATOM      3  O   UNL     1       3.629  -0.426  26.562  0.00  0.00    -0.239 OA
ATOM      4  N   UNL     1       5.839  -1.021  26.156  0.00  0.00    -0.123 N 
ATOM      5  C   UNL     1       7.028  -0.402  26.355  0.00  0.00    +0.320 C 
ATOM      6  C   UNL     1       8.282  -1.170  25.932  0.00  0.00    +0.192 C 
ATOM      7  N   UNL     1       7.948  -2.097  24.823  0.00  0.00    -0.327 N 
ATOM      8  H   UNL     1       8.697  -2.422  24.220  0.00  0.00    +0.147 HD
ATOM      9  C   UNL     1       6.687  -2.676  24.708  0.00  0.00    +0.073 C 
ATOM     10  C   UNL     1       5.665  -2.168  25.429  0.00  0.00    +0.223 C 
ATOM     11  N   UNL     1       7.004   0.770  26.915  0.00  0.00    -0.033 NA
ENDROOT
BRANCH   9  12
ATOM     12  C   UNL     1       6.449  -3.755  23.713  0.00  0.00    -0.001 A 
ATOM     13  C   UNL     1       7.471  -4.238  22.883  0.00  0.00    +0.013 A 
ATOM     14  C   UNL     1       7.210  -5.227  21.923  0.00  0.00    +0.046 A 
ATOM     15  C   UNL     1       5.931  -5.752  21.793  0.00  0.00    +0.117 A 
ATOM     16  C   UNL     1       4.899  -5.299  22.598  0.00  0.00    +0.046 A 
ATOM     17  C   UNL     1       5.158  -4.300  23.542  0.00  0.00    +0.013 A 
BRANCH  15  18
ATOM     18  O   UNL     1       5.723  -6.719  20.855  0.00  0.00    -0.507 OA
ATOM     19  H   UNL     1       5.368  -6.304  20.052  0.00  0.00    +0.292 HD
ENDBRANCH  15  18
ENDBRANCH   9  12
BRANCH   1  20
ATOM     20  O   UNL     1       5.070   1.452  28.359  0.00  0.00    -0.169 OA
BRANCH  20  21
ATOM     21  O   UNL     1       4.862   0.216  29.112  0.00  0.00    -0.245 OA
ATOM     22  H   UNL     1       5.799   0.080  29.347  0.00  0.00    +0.253 HD
ENDBRANCH  20  21
ENDBRANCH   1  20
BRANCH   6  23
ATOM     23  C   UNL     1       9.489  -0.265  25.636  0.00  0.00    +0.069 C 
BRANCH  23  24
ATOM     24  C   UNL     1       9.555   0.508  24.332  0.00  0.00    -0.045 A 
ATOM     25  C   UNL     1      10.463   1.578  24.239  0.00  0.00    +0.004 A 
ATOM     26  C   UNL     1      10.661   2.246  23.029  0.00  0.00    +0.000 A 
ATOM     27  C   UNL     1       9.941   1.866  21.899  0.00  0.00    +0.000 A 
ATOM     28  C   UNL     1       8.992   0.854  21.993  0.00  0.00    +0.000 A 
ATOM     29  C   UNL     1       8.796   0.186  23.202  0.00  0.00    +0.004 A 
ENDBRANCH  23  24
ENDBRANCH   6  23
BRANCH   1  30
ATOM     30  C   UNL     1       5.142   2.157  26.023  0.00  0.00    +0.138 C 
BRANCH  30  31
ATOM     31  C   UNL     1       6.256   3.067  25.554  0.00  0.00    -0.040 A 
ATOM     32  C   UNL     1       6.925   3.886  26.475  0.00  0.00    +0.005 A 
ATOM     33  C   UNL     1       7.944   4.742  26.055  0.00  0.00    +0.014 A 
ATOM     34  C   UNL     1       8.300   4.786  24.708  0.00  0.00    +0.013 A 
ATOM     35  I   UNL     1       9.834   6.044  24.087  0.00  0.00    -0.044 I 
ATOM     36  C   UNL     1       7.639   3.985  23.779  0.00  0.00    +0.014 A 
ATOM     37  C   UNL     1       6.621   3.126  24.202  0.00  0.00    +0.005 A 
ENDBRANCH  30  31
ENDBRANCH   1  30
TORSDOF 8
ENDMDL
MODEL 6
REMARK VINA RESULT:      -7.0      2.844      3.699
REMARK  Name = 
REMARK  8 active torsions:
REMARK  status: ('A' for Active; 'I' for Inactive)
REMARK    1  A    between atoms: O_1  and  O_2
REMARK    2  A    between atoms: O_2  and  C_3
REMARK    3  A    between atoms: C_3  and  C_4
REMARK    4  A    between atoms: C_4  and  C_5
REMARK    5  A    between atoms: C_14  and  C_16
REMARK    6  A    between atoms: C_16  and  C_17
REMARK    7  A    between atoms: C_24  and  C_29
REMARK    8  A    between atoms: C_32  and  O_33
REMARK                            x       y       z     vdW  Elec       q    Type
REMARK                         _______ _______ _______ _____ _____    ______ ____
ROOT
ATOM      1  C   UNL     1       8.415  -4.116  25.008  0.00  0.00    +0.381 C 
ATOM      2  C   UNL     1       9.152  -2.878  24.468  0.00  0.00    +0.391 C 
ATOM      3  O   UNL     1      10.161  -2.860  23.771  0.00  0.00    -0.239 OA
ATOM      4  N   UNL     1       8.378  -1.819  24.838  0.00  0.00    -0.123 N 
ATOM      5  C   UNL     1       7.334  -2.270  25.575  0.00  0.00    +0.320 C 
ATOM      6  C   UNL     1       6.361  -1.215  26.105  0.00  0.00    +0.192 C 
ATOM      7  N   UNL     1       6.354  -0.042  25.197  0.00  0.00    -0.327 N 
ATOM      8  H   UNL     1       5.551   0.579  25.211  0.00  0.00    +0.147 HD
ATOM      9  C   UNL     1       7.485   0.332  24.477  0.00  0.00    +0.073 C 
ATOM     10  C   UNL     1       8.509  -0.541  24.366  0.00  0.00    +0.223 C 
ATOM     11  N   UNL     1       7.267  -3.548  25.796  0.00  0.00    -0.033 NA
ENDROOT
BRANCH   9  12
ATOM     12  C   UNL     1       7.510   1.625  23.742  0.00  0.00    -0.001 A 
ATOM     13  C   UNL     1       8.277   2.715  24.182  0.00  0.00    +0.013 A 
ATOM     14  C   UNL     1       8.248   3.937  23.495  0.00  0.00    +0.046 A 
ATOM     15  C   UNL     1       7.467   4.079  22.356  0.00  0.00    +0.117 A 
ATOM     16  C   UNL     1       6.699   3.023  21.894  0.00  0.00    +0.046 A 
ATOM     17  C   UNL     1       6.714   1.812  22.591  0.00  0.00    +0.013 A 
BRANCH  15  18
ATOM     18  O   UNL     1       7.477   5.280  21.713  0.00  0.00    -0.507 OA
ATOM     19  H   UNL     1       8.381   5.635  21.725  0.00  0.00    +0.292 HD
ENDBRANCH  15  18
ENDBRANCH   9  12
BRANCH   1  20
ATOM     20  O   UNL     1       9.334  -4.966  25.698  0.00  0.00    -0.169 OA
BRANCH  20  21
ATOM     21  O   UNL     1       9.884  -5.892  24.710  0.00  0.00    -0.245 OA
ATOM     22  H   UNL     1       9.146  -5.818  24.077  0.00  0.00    +0.253 HD
ENDBRANCH  20  21
ENDBRANCH   1  20
BRANCH   6  23
ATOM     23  C   UNL     1       4.957  -1.766  26.408  0.00  0.00    +0.069 C 
BRANCH  23  24
ATOM     24  C   UNL     1       4.601  -2.198  27.818  0.00  0.00    -0.045 A 
ATOM     25  C   UNL     1       4.182  -1.212  28.729  0.00  0.00    +0.004 A 
ATOM     26  C   UNL     1       3.719  -1.561  30.000  0.00  0.00    +0.000 A 
ATOM     27  C   UNL     1       3.687  -2.899  30.384  0.00  0.00    +0.000 A 
ATOM     28  C   UNL     1       4.161  -3.878  29.519  0.00  0.00    +0.000 A 
ATOM     29  C   UNL     1       4.622  -3.528  28.249  0.00  0.00    +0.004 A 
ENDBRANCH  23  24
ENDBRANCH   6  23
BRANCH   1  30
ATOM     30  C   UNL     1       7.857  -4.846  23.758  0.00  0.00    +0.138 C 
BRANCH  30  31
ATOM     31  C   UNL     1       6.355  -5.019  23.707  0.00  0.00    -0.040 A 
ATOM     32  C   UNL     1       5.758  -6.136  24.308  0.00  0.00    +0.005 A 
ATOM     33  C   UNL     1       4.375  -6.318  24.256  0.00  0.00    +0.014 A 
ATOM     34  C   UNL     1       3.579  -5.381  23.598  0.00  0.00    +0.013 A 
ATOM     35  I   UNL     1       1.517  -5.639  23.541  0.00  0.00    -0.044 I 
ATOM     36  C   UNL     1       4.157  -4.269  22.989  0.00  0.00    +0.014 A 
ATOM     37  C   UNL     1       5.542  -4.088  23.046  0.00  0.00    +0.005 A 
ENDBRANCH  30  31
ENDBRANCH   1  30
TORSDOF 8
ENDMDL
MODEL 7
REMARK VINA RESULT:      -7.0      4.546      8.541
REMARK  Name = 
REMARK  8 active torsions:
REMARK  status: ('A' for Active; 'I' for Inactive)
REMARK    1  A    between atoms: O_1  and  O_2
REMARK    2  A    between atoms: O_2  and  C_3
REMARK    3  A    between atoms: C_3  and  C_4
REMARK    4  A    between atoms: C_4  and  C_5
REMARK    5  A    between atoms: C_14  and  C_16
REMARK    6  A    between atoms: C_16  and  C_17
REMARK    7  A    between atoms: C_24  and  C_29
REMARK    8  A    between atoms: C_32  and  O_33
REMARK                            x       y       z     vdW  Elec       q    Type
REMARK                         _______ _______ _______ _____ _____    ______ ____
ROOT
ATOM      1  C   UNL     1       8.996  -1.054  23.272  0.00  0.00    +0.381 C 
ATOM      2  C   UNL     1       8.937  -2.473  23.864  0.00  0.00    +0.391 C 
ATOM      3  O   UNL     1       9.822  -3.322  23.846  0.00  0.00    -0.239 OA
ATOM      4  N   UNL     1       7.736  -2.538  24.505  0.00  0.00    -0.123 N 
ATOM      5  C   UNL     1       7.065  -1.377  24.306  0.00  0.00    +0.320 C 
ATOM      6  C   UNL     1       5.674  -1.271  24.934  0.00  0.00    +0.192 C 
ATOM      7  N   UNL     1       5.606  -2.130  26.142  0.00  0.00    -0.327 N 
ATOM      8  H   UNL     1       4.900  -1.929  26.842  0.00  0.00    +0.147 HD
ATOM      9  C   UNL     1       6.345  -3.305  26.246  0.00  0.00    +0.073 C 
ATOM     10  C   UNL     1       7.359  -3.520  25.381  0.00  0.00    +0.223 C 
ATOM     11  N   UNL     1       7.642  -0.472  23.575  0.00  0.00    -0.033 NA
ENDROOT
BRANCH   9  12
ATOM     12  C   UNL     1       6.098  -4.246  27.371  0.00  0.00    -0.001 A 
ATOM     13  C   UNL     1       6.844  -5.424  27.531  0.00  0.00    +0.013 A 
ATOM     14  C   UNL     1       6.562  -6.317  28.575  0.00  0.00    +0.046 A 
ATOM     15  C   UNL     1       5.546  -6.034  29.478  0.00  0.00    +0.117 A 
ATOM     16  C   UNL     1       4.791  -4.880  29.351  0.00  0.00    +0.046 A 
ATOM     17  C   UNL     1       5.062  -4.001  28.298  0.00  0.00    +0.013 A 
BRANCH  15  18
ATOM     18  O   UNL     1       5.312  -6.923  30.485  0.00  0.00    -0.507 OA
ATOM     19  H   UNL     1       4.439  -6.740  30.868  0.00  0.00    +0.292 HD
ENDBRANCH  15  18
ENDBRANCH   9  12
BRANCH   1  20
ATOM     20  O   UNL     1       9.396  -1.115  21.902  0.00  0.00    -0.169 OA
BRANCH  20  21
ATOM     21  O   UNL     1      10.793  -1.544  21.884  0.00  0.00    -0.245 OA
ATOM     22  H   UNL     1      10.861  -1.715  22.841  0.00  0.00    +0.253 HD
ENDBRANCH  20  21
ENDBRANCH   1  20
BRANCH   6  23
ATOM     23  C   UNL     1       5.217   0.176  25.182  0.00  0.00    +0.069 C 
BRANCH  23  24
ATOM     24  C   UNL     1       5.850   0.990  26.294  0.00  0.00    -0.045 A 
ATOM     25  C   UNL     1       5.580   2.369  26.345  0.00  0.00    +0.004 A 
ATOM     26  C   UNL     1       6.028   3.149  27.414  0.00  0.00    +0.000 A 
ATOM     27  C   UNL     1       6.769   2.564  28.437  0.00  0.00    +0.000 A 
ATOM     28  C   UNL     1       7.101   1.215  28.367  0.00  0.00    +0.000 A 
ATOM     29  C   UNL     1       6.651   0.438  27.299  0.00  0.00    +0.004 A 
ENDBRANCH  23  24
ENDBRANCH   6  23
BRANCH   1  30
ATOM     30  C   UNL     1      10.067  -0.301  24.103  0.00  0.00    +0.138 C 
BRANCH  30  31
ATOM     31  C   UNL     1       9.984   1.210  24.079  0.00  0.00    -0.040 A 
ATOM     32  C   UNL     1       8.970   1.867  24.790  0.00  0.00    +0.005 A 
ATOM     33  C   UNL     1       8.872   3.259  24.765  0.00  0.00    +0.014 A 
ATOM     34  C   UNL     1       9.788   4.004  24.024  0.00  0.00    +0.013 A 
ATOM     35  I   UNL     1       9.655   6.078  24.006  0.00  0.00    -0.044 I 
ATOM     36  C   UNL     1      10.796   3.366  23.304  0.00  0.00    +0.014 A 
ATOM     37  C   UNL     1      10.895   1.972  23.335  0.00  0.00    +0.005 A 
ENDBRANCH  30  31
ENDBRANCH   1  30
TORSDOF 8
ENDMDL
MODEL 8
REMARK VINA RESULT:      -6.8      3.161      5.148
REMARK  Name = 
REMARK  8 active torsions:
REMARK  status: ('A' for Active; 'I' for Inactive)
REMARK    1  A    between atoms: O_1  and  O_2
REMARK    2  A    between atoms: O_2  and  C_3
REMARK    3  A    between atoms: C_3  and  C_4
REMARK    4  A    between atoms: C_4  and  C_5
REMARK    5  A    between atoms: C_14  and  C_16
REMARK    6  A    between atoms: C_16  and  C_17
REMARK    7  A    between atoms: C_24  and  C_29
REMARK    8  A    between atoms: C_32  and  O_33
REMARK                            x       y       z     vdW  Elec       q    Type
REMARK                         _______ _______ _______ _____ _____    ______ ____
ROOT
ATOM      1  C   UNL     1       9.230  -2.506  23.206  0.00  0.00    +0.381 C 
ATOM      2  C   UNL     1       8.670  -1.234  23.868  0.00  0.00    +0.391 C 
ATOM      3  O   UNL     1       8.618  -0.109  23.384  0.00  0.00    -0.239 OA
ATOM      4  N   UNL     1       8.147  -1.655  25.053  0.00  0.00    -0.123 N 
ATOM      5  C   UNL     1       8.390  -2.980  25.199  0.00  0.00    +0.320 C 
ATOM      6  C   UNL     1       7.894  -3.632  26.492  0.00  0.00    +0.192 C 
ATOM      7  N   UNL     1       6.713  -2.893  27.002  0.00  0.00    -0.327 N 
ATOM      8  H   UNL     1       6.080  -3.368  27.636  0.00  0.00    +0.147 HD
ATOM      9  C   UNL     1       6.559  -1.526  26.790  0.00  0.00    +0.073 C 
ATOM     10  C   UNL     1       7.328  -0.915  25.863  0.00  0.00    +0.223 C 
ATOM     11  N   UNL     1       9.047  -3.575  24.250  0.00  0.00    -0.033 NA
ENDROOT
BRANCH   9  12
ATOM     12  C   UNL     1       5.478  -0.779  27.487  0.00  0.00    -0.001 A 
ATOM     13  C   UNL     1       4.385  -1.433  28.077  0.00  0.00    +0.013 A 
ATOM     14  C   UNL     1       3.357  -0.702  28.690  0.00  0.00    +0.046 A 
ATOM     15  C   UNL     1       3.418   0.684  28.735  0.00  0.00    +0.117 A 
ATOM     16  C   UNL     1       4.483   1.361  28.165  0.00  0.00    +0.046 A 
ATOM     17  C   UNL     1       5.497   0.632  27.537  0.00  0.00    +0.013 A 
BRANCH  15  18
ATOM     18  O   UNL     1       2.403   1.355  29.351  0.00  0.00    -0.507 OA
ATOM     19  H   UNL     1       1.560   0.937  29.109  0.00  0.00    +0.292 HD
ENDBRANCH  15  18
ENDBRANCH   9  12
BRANCH   1  20
ATOM     20  O   UNL     1      10.557  -2.265  22.734  0.00  0.00    -0.169 OA
BRANCH  20  21
ATOM     21  O   UNL     1      10.436  -1.516  21.485  0.00  0.00    -0.245 OA
ATOM     22  H   UNL     1       9.474  -1.372  21.544  0.00  0.00    +0.253 HD
ENDBRANCH  20  21
ENDBRANCH   1  20
BRANCH   6  23
ATOM     23  C   UNL     1       7.667  -5.148  26.372  0.00  0.00    +0.069 C 
BRANCH  23  24
ATOM     24  C   UNL     1       6.492  -5.796  27.080  0.00  0.00    -0.045 A 
ATOM     25  C   UNL     1       6.580  -5.993  28.469  0.00  0.00    +0.004 A 
ATOM     26  C   UNL     1       5.485  -6.466  29.196  0.00  0.00    +0.000 A 
ATOM     27  C   UNL     1       4.294  -6.767  28.542  0.00  0.00    +0.000 A 
ATOM     28  C   UNL     1       4.214  -6.640  27.159  0.00  0.00    +0.000 A 
ATOM     29  C   UNL     1       5.308  -6.166  26.434  0.00  0.00    +0.004 A 
ENDBRANCH  23  24
ENDBRANCH   6  23
BRANCH   1  30
ATOM     30  C   UNL     1       8.289  -2.802  22.010  0.00  0.00    +0.138 C 
BRANCH  30  31
ATOM     31  C   UNL     1       7.065  -3.636  22.320  0.00  0.00    -0.040 A 
ATOM     32  C   UNL     1       5.871  -3.011  22.707  0.00  0.00    +0.005 A 
ATOM     33  C   UNL     1       4.738  -3.767  23.011  0.00  0.00    +0.014 A 
ATOM     34  C   UNL     1       4.793  -5.157  22.930  0.00  0.00    +0.013 A 
ATOM     35  I   UNL     1       3.099  -6.283  23.360  0.00  0.00    -0.044 I 
ATOM     36  C   UNL     1       5.974  -5.795  22.555  0.00  0.00    +0.014 A 
ATOM     37  C   UNL     1       7.106  -5.035  22.248  0.00  0.00    +0.005 A 
ENDBRANCH  30  31
ENDBRANCH   1  30
TORSDOF 8
ENDMDL
MODEL 9
REMARK VINA RESULT:      -6.8      4.348      8.834
REMARK  Name = 
REMARK  8 active torsions:
REMARK  status: ('A' for Active; 'I' for Inactive)
REMARK    1  A    between atoms: O_1  and  O_2
REMARK    2  A    between atoms: O_2  and  C_3
REMARK    3  A    between atoms: C_3  and  C_4
REMARK    4  A    between atoms: C_4  and  C_5
REMARK    5  A    between atoms: C_14  and  C_16
REMARK    6  A    between atoms: C_16  and  C_17
REMARK    7  A    between atoms: C_24  and  C_29
REMARK    8  A    between atoms: C_32  and  O_33
REMARK                            x       y       z     vdW  Elec       q    Type
REMARK                         _______ _______ _______ _____ _____    ______ ____
ROOT
ATOM      1  C   UNL     1       6.247   0.414  26.355  0.00  0.00    +0.381 C 
ATOM      2  C   UNL     1       5.024  -0.518  26.431  0.00  0.00    +0.391 C 
ATOM      3  O   UNL     1       3.845  -0.189  26.498  0.00  0.00    -0.239 OA
ATOM      4  N   UNL     1       5.531  -1.775  26.294  0.00  0.00    -0.123 N 
ATOM      5  C   UNL     1       6.882  -1.703  26.220  0.00  0.00    +0.320 C 
ATOM      6  C   UNL     1       7.635  -3.028  26.087  0.00  0.00    +0.192 C 
ATOM      7  N   UNL     1       6.770  -4.028  25.413  0.00  0.00    -0.327 N 
ATOM      8  H   UNL     1       7.208  -4.822  24.960  0.00  0.00    +0.147 HD
ATOM      9  C   UNL     1       5.385  -4.008  25.553  0.00  0.00    +0.073 C 
ATOM     10  C   UNL     1       4.793  -2.903  26.054  0.00  0.00    +0.223 C 
ATOM     11  N   UNL     1       7.422  -0.524  26.300  0.00  0.00    -0.033 NA
ENDROOT
BRANCH   9  12
ATOM     12  C   UNL     1       4.566  -5.139  25.041  0.00  0.00    -0.001 A 
ATOM     13  C   UNL     1       4.548  -6.390  25.676  0.00  0.00    +0.013 A 
ATOM     14  C   UNL     1       3.802  -7.453  25.148  0.00  0.00    +0.046 A 
ATOM     15  C   UNL     1       3.055  -7.274  23.992  0.00  0.00    +0.117 A 
ATOM     16  C   UNL     1       3.048  -6.052  23.340  0.00  0.00    +0.046 A 
ATOM     17  C   UNL     1       3.808  -4.999  23.858  0.00  0.00    +0.013 A 
BRANCH  15  18
ATOM     18  O   UNL     1       2.335  -8.331  23.519  0.00  0.00    -0.507 OA
ATOM     19  H   UNL     1       1.410  -8.227  23.794  0.00  0.00    +0.292 HD
ENDBRANCH  15  18
ENDBRANCH   9  12
BRANCH   1  20
ATOM     20  O   UNL     1       6.206   1.358  27.427  0.00  0.00    -0.169 OA
BRANCH  20  21
ATOM     21  O   UNL     1       7.515   1.323  28.077  0.00  0.00    -0.245 OA
ATOM     22  H   UNL     1       7.288   0.632  28.727  0.00  0.00    +0.253 HD
ENDBRANCH  20  21
ENDBRANCH   1  20
BRANCH   6  23
ATOM     23  C   UNL     1       9.025  -2.887  25.445  0.00  0.00    +0.069 C 
BRANCH  23  24
ATOM     24  C   UNL     1       9.196  -2.067  24.181  0.00  0.00    -0.045 A 
ATOM     25  C   UNL     1      10.168  -1.050  24.174  0.00  0.00    +0.004 A 
ATOM     26  C   UNL     1      10.461  -0.346  23.004  0.00  0.00    +0.000 A 
ATOM     27  C   UNL     1       9.774  -0.637  21.828  0.00  0.00    +0.000 A 
ATOM     28  C   UNL     1       8.765  -1.593  21.835  0.00  0.00    +0.000 A 
ATOM     29  C   UNL     1       8.474  -2.296  23.005  0.00  0.00    +0.004 A 
ENDBRANCH  23  24
ENDBRANCH   6  23
BRANCH   1  30
ATOM     30  C   UNL     1       6.125   1.151  24.996  0.00  0.00    +0.138 C 
BRANCH  30  31
ATOM     31  C   UNL     1       7.071   2.313  24.785  0.00  0.00    -0.040 A 
ATOM     32  C   UNL     1       6.633   3.624  25.017  0.00  0.00    +0.005 A 
ATOM     33  C   UNL     1       7.489   4.707  24.811  0.00  0.00    +0.014 A 
ATOM     34  C   UNL     1       8.792   4.483  24.369  0.00  0.00    +0.013 A 
ATOM     35  I   UNL     1      10.075   6.095  24.085  0.00  0.00    -0.044 I 
ATOM     36  C   UNL     1       9.241   3.187  24.125  0.00  0.00    +0.014 A 
ATOM     37  C   UNL     1       8.382   2.104  24.336  0.00  0.00    +0.005 A 
ENDBRANCH  30  31
ENDBRANCH   1  30
TORSDOF 8
ENDMDL
