MODEL 1
REMARK VINA RESULT:      -7.1      0.000      0.000
REMARK  Name = 
REMARK  8 active torsions:
REMARK  status: ('A' for Active; 'I' for Inactive)
REMARK    1  A    between atoms: O_1  and  C_2
REMARK    2  A    between atoms: C_2  and  C_3
REMARK    3  A    between atoms: C_3  and  N_4
REMARK    4  A    between atoms: N_7  and  C_8
REMARK    5  A    between atoms: C_8  and  C_9
REMARK    6  A    between atoms: C_9  and  C_10
REMARK    7  A    between atoms: C_10  and  N_11
REMARK    8  A    between atoms: C_22  and  C_25
REMARK                            x       y       z     vdW  Elec       q    Type
REMARK                         _______ _______ _______ _____ _____    ______ ____
ROOT
ATOM      1  N   UNL     1       6.074  -5.567  26.512  0.00  0.00    -0.298 N 
ATOM      2  C   UNL     1       5.457  -5.706  25.230  0.00  0.00    +0.048 A 
ATOM      3  C   UNL     1       6.125  -5.406  24.018  0.00  0.00    +0.037 A 
ATOM      4  C   UNL     1       5.542  -5.567  22.740  0.00  0.00    +0.057 A 
ATOM      5  C   UNL     1       4.227  -6.007  22.656  0.00  0.00    +0.013 A 
ATOM      6  C   UNL     1       3.525  -6.288  23.821  0.00  0.00    +0.017 A 
ATOM      7  C   UNL     1       4.124  -6.146  25.091  0.00  0.00    +0.034 A 
ATOM      8  S   UNL     1       3.076  -6.593  26.453  0.00  0.00    -0.086 S 
ATOM      9  C   UNL     1       4.138  -6.362  27.853  0.00  0.00    +0.034 A 
ATOM     10  C   UNL     1       3.589  -6.748  29.093  0.00  0.00    +0.017 A 
ATOM     11  C   UNL     1       4.312  -6.625  30.273  0.00  0.00    +0.001 A 
ATOM     12  C   UNL     1       5.575  -6.068  30.230  0.00  0.00    +0.002 A 
ATOM     13  C   UNL     1       6.113  -5.661  29.005  0.00  0.00    +0.024 A 
ATOM     14  C   UNL     1       5.445  -5.851  27.770  0.00  0.00    +0.048 A 
ENDROOT
BRANCH   4  15
ATOM     15  C   UNL     1       6.324  -5.280  21.481  0.00  0.00    +0.417 C 
ATOM     16  F   UNL     1       7.630  -5.652  21.585  0.00  0.00    -0.166 F 
ATOM     17  F   UNL     1       6.341  -3.952  21.170  0.00  0.00    -0.166 F 
ATOM     18  F   UNL     1       5.846  -5.914  20.374  0.00  0.00    -0.166 F 
ENDBRANCH   4  15
BRANCH   1  19
ATOM     19  C   UNL     1       7.555  -5.434  26.566  0.00  0.00    +0.112 C 
BRANCH  19  20
ATOM     20  C   UNL     1       8.031  -3.973  26.640  0.00  0.00    +0.035 C 
BRANCH  20  21
ATOM     21  C   UNL     1       8.792  -3.496  25.402  0.00  0.00    +0.086 C 
BRANCH  21  25
ATOM     22  N   UNL     1      10.080  -0.270  23.979  0.00  0.00    -0.298 NA
ATOM     23  C   UNL     1      10.058  -1.576  23.285  0.00  0.00    +0.100 C 
ATOM     24  C   UNL     1       8.691  -2.302  23.295  0.00  0.00    +0.100 C 
ATOM     25  N   UNL     1       8.090  -2.450  24.639  0.00  0.00    -0.300 NA
ATOM     26  C   UNL     1       8.104  -1.139  25.317  0.00  0.00    +0.100 C 
ATOM     27  C   UNL     1       9.485  -0.442  25.325  0.00  0.00    +0.100 C 
BRANCH  22  28
ATOM     28  C   UNL     1       9.352   0.791  23.256  0.00  0.00    +0.112 C 
BRANCH  28  29
ATOM     29  C   UNL     1       9.680   0.923  21.765  0.00  0.00    +0.171 C 
BRANCH  29  30
ATOM     30  O   UNL     1      10.161   2.242  21.514  0.00  0.00    -0.394 OA
ATOM     31  H   UNL     1      10.444   2.269  20.585  0.00  0.00    +0.209 HD
ENDBRANCH  29  30
ENDBRANCH  28  29
ENDBRANCH  22  28
ENDBRANCH  21  25
ENDBRANCH  20  21
ENDBRANCH  19  20
ENDBRANCH   1  19
TORSDOF 8
ENDMDL
MODEL 2
REMARK VINA RESULT:      -6.7      5.809      9.330
REMARK  Name = 
REMARK  8 active torsions:
REMARK  status: ('A' for Active; 'I' for Inactive)
REMARK    1  A    between atoms: O_1  and  C_2
REMARK    2  A    between atoms: C_2  and  C_3
REMARK    3  A    between atoms: C_3  and  N_4
REMARK    4  A    between atoms: N_7  and  C_8
REMARK    5  A    between atoms: C_8  and  C_9
REMARK    6  A    between atoms: C_9  and  C_10
REMARK    7  A    between atoms: C_10  and  N_11
REMARK    8  A    between atoms: C_22  and  C_25
REMARK                            x       y       z     vdW  Elec       q    Type
REMARK                         _______ _______ _______ _____ _____    ______ ____
ROOT
ATOM      1  N   UNL     1       8.886   2.478  23.942  0.00  0.00    -0.298 N 
ATOM      2  C   UNL     1       9.590   3.720  24.028  0.00  0.00    +0.048 A 
ATOM      3  C   UNL     1      10.845   3.937  23.408  0.00  0.00    +0.037 A 
ATOM      4  C   UNL     1      11.540   5.168  23.455  0.00  0.00    +0.057 A 
ATOM      5  C   UNL     1      10.990   6.219  24.179  0.00  0.00    +0.013 A 
ATOM      6  C   UNL     1       9.772   6.041  24.824  0.00  0.00    +0.017 A 
ATOM      7  C   UNL     1       9.075   4.816  24.751  0.00  0.00    +0.034 A 
ATOM      8  S   UNL     1       7.520   4.802  25.608  0.00  0.00    -0.086 S 
ATOM      9  C   UNL     1       6.902   3.177  25.265  0.00  0.00    +0.034 A 
ATOM     10  C   UNL     1       5.604   2.914  25.748  0.00  0.00    +0.017 A 
ATOM     11  C   UNL     1       4.993   1.682  25.548  0.00  0.00    +0.001 A 
ATOM     12  C   UNL     1       5.697   0.683  24.905  0.00  0.00    +0.002 A 
ATOM     13  C   UNL     1       6.994   0.932  24.446  0.00  0.00    +0.024 A 
ATOM     14  C   UNL     1       7.618   2.199  24.551  0.00  0.00    +0.048 A 
ENDROOT
BRANCH   4  15
ATOM     15  C   UNL     1      12.850   5.354  22.731  0.00  0.00    +0.417 C 
ATOM     16  F   UNL     1      12.773   4.999  21.418  0.00  0.00    -0.166 F 
ATOM     17  F   UNL     1      13.852   4.596  23.262  0.00  0.00    -0.166 F 
ATOM     18  F   UNL     1      13.313   6.636  22.740  0.00  0.00    -0.166 F 
ENDBRANCH   4  15
BRANCH   1  19
ATOM     19  C   UNL     1       9.311   1.503  22.901  0.00  0.00    +0.112 C 
BRANCH  19  20
ATOM     20  C   UNL     1      10.436   0.565  23.370  0.00  0.00    +0.035 C 
BRANCH  20  21
ATOM     21  C   UNL     1       9.954  -0.647  24.170  0.00  0.00    +0.086 C 
BRANCH  21  25
ATOM     22  N   UNL     1       7.258  -3.041  23.126  0.00  0.00    -0.298 NA
ATOM     23  C   UNL     1       7.758  -1.898  22.332  0.00  0.00    +0.100 C 
ATOM     24  C   UNL     1       9.295  -1.837  22.165  0.00  0.00    +0.100 C 
ATOM     25  N   UNL     1      10.050  -1.919  23.435  0.00  0.00    -0.300 NA
ATOM     26  C   UNL     1       9.553  -3.070  24.214  0.00  0.00    +0.100 C 
ATOM     27  C   UNL     1       8.017  -3.098  24.398  0.00  0.00    +0.100 C 
BRANCH  22  28
ATOM     28  C   UNL     1       7.375  -4.337  22.430  0.00  0.00    +0.112 C 
BRANCH  28  29
ATOM     29  C   UNL     1       6.065  -4.920  21.889  0.00  0.00    +0.171 C 
BRANCH  29  30
ATOM     30  O   UNL     1       5.004  -4.010  22.172  0.00  0.00    -0.394 OA
ATOM     31  H   UNL     1       4.176  -4.456  21.931  0.00  0.00    +0.209 HD
ENDBRANCH  29  30
ENDBRANCH  28  29
ENDBRANCH  22  28
ENDBRANCH  21  25
ENDBRANCH  20  21
ENDBRANCH  19  20
ENDBRANCH   1  19
TORSDOF 8
ENDMDL
MODEL 3
REMARK VINA RESULT:      -6.6      3.877      6.840
REMARK  Name = 
REMARK  8 active torsions:
REMARK  status: ('A' for Active; 'I' for Inactive)
REMARK    1  A    between atoms: O_1  and  C_2
REMARK    2  A    between atoms: C_2  and  C_3
REMARK    3  A    between atoms: C_3  and  N_4
REMARK    4  A    between atoms: N_7  and  C_8
REMARK    5  A    between atoms: C_8  and  C_9
REMARK    6  A    between atoms: C_9  and  C_10
REMARK    7  A    between atoms: C_10  and  N_11
REMARK    8  A    between atoms: C_22  and  C_25
REMARK                            x       y       z     vdW  Elec       q    Type
REMARK                         _______ _______ _______ _____ _____    ______ ____
ROOT
ATOM      1  N   UNL     1       9.072  -1.004  25.186  0.00  0.00    -0.298 N 
ATOM      2  C   UNL     1       8.491  -2.284  24.924  0.00  0.00    +0.048 A 
ATOM      3  C   UNL     1       8.045  -3.152  25.950  0.00  0.00    +0.037 A 
ATOM      4  C   UNL     1       7.440  -4.407  25.709  0.00  0.00    +0.057 A 
ATOM      5  C   UNL     1       7.305  -4.842  24.396  0.00  0.00    +0.013 A 
ATOM      6  C   UNL     1       7.753  -4.034  23.359  0.00  0.00    +0.017 A 
ATOM      7  C   UNL     1       8.335  -2.772  23.610  0.00  0.00    +0.034 A 
ATOM      8  S   UNL     1       8.806  -1.876  22.151  0.00  0.00    -0.086 S 
ATOM      9  C   UNL     1       9.424  -0.353  22.814  0.00  0.00    +0.034 A 
ATOM     10  C   UNL     1       9.785   0.616  21.856  0.00  0.00    +0.017 A 
ATOM     11  C   UNL     1      10.281   1.858  22.235  0.00  0.00    +0.001 A 
ATOM     12  C   UNL     1      10.470   2.123  23.577  0.00  0.00    +0.002 A 
ATOM     13  C   UNL     1      10.136   1.155  24.529  0.00  0.00    +0.024 A 
ATOM     14  C   UNL     1       9.545  -0.087  24.190  0.00  0.00    +0.048 A 
ENDROOT
BRANCH   4  15
ATOM     15  C   UNL     1       6.936  -5.264  26.844  0.00  0.00    +0.417 C 
ATOM     16  F   UNL     1       7.943  -5.921  27.485  0.00  0.00    -0.166 F 
ATOM     17  F   UNL     1       6.073  -6.233  26.422  0.00  0.00    -0.166 F 
ATOM     18  F   UNL     1       6.271  -4.572  27.810  0.00  0.00    -0.166 F 
ENDBRANCH   4  15
BRANCH   1  19
ATOM     19  C   UNL     1       8.893  -0.420  26.544  0.00  0.00    +0.112 C 
BRANCH  19  20
ATOM     20  C   UNL     1       7.431  -0.067  26.865  0.00  0.00    +0.035 C 
BRANCH  20  21
ATOM     21  C   UNL     1       6.979   1.293  26.328  0.00  0.00    +0.086 C 
BRANCH  21  25
ATOM     22  N   UNL     1       5.892   3.399  23.418  0.00  0.00    -0.298 NA
ATOM     23  C   UNL     1       6.671   2.144  23.337  0.00  0.00    +0.100 C 
ATOM     24  C   UNL     1       6.068   0.947  24.110  0.00  0.00    +0.100 C 
ATOM     25  N   UNL     1       5.747   1.234  25.525  0.00  0.00    -0.300 NA
ATOM     26  C   UNL     1       4.958   2.479  25.594  0.00  0.00    +0.100 C 
ATOM     27  C   UNL     1       5.590   3.675  24.842  0.00  0.00    +0.100 C 
BRANCH  22  28
ATOM     28  C   UNL     1       4.631   3.358  22.652  0.00  0.00    +0.112 C 
BRANCH  28  29
ATOM     29  C   UNL     1       3.814   4.654  22.648  0.00  0.00    +0.171 C 
BRANCH  29  30
ATOM     30  O   UNL     1       4.586   5.683  22.033  0.00  0.00    -0.394 OA
ATOM     31  H   UNL     1       4.031   6.078  21.340  0.00  0.00    +0.209 HD
ENDBRANCH  29  30
ENDBRANCH  28  29
ENDBRANCH  22  28
ENDBRANCH  21  25
ENDBRANCH  20  21
ENDBRANCH  19  20
ENDBRANCH   1  19
TORSDOF 8
ENDMDL
MODEL 4
REMARK VINA RESULT:      -6.6      3.956      7.324
REMARK  Name = 
REMARK  8 active torsions:
REMARK  status: ('A' for Active; 'I' for Inactive)
REMARK    1  A    between atoms: O_1  and  C_2
REMARK    2  A    between atoms: C_2  and  C_3
REMARK    3  A    between atoms: C_3  and  N_4
REMARK    4  A    between atoms: N_7  and  C_8
REMARK    5  A    between atoms: C_8  and  C_9
REMARK    6  A    between atoms: C_9  and  C_10
REMARK    7  A    between atoms: C_10  and  N_11
REMARK    8  A    between atoms: C_22  and  C_25
REMARK                            x       y       z     vdW  Elec       q    Type
REMARK                         _______ _______ _______ _____ _____    ______ ____
ROOT
ATOM      1  N   UNL     1       8.120  -2.040  23.525  0.00  0.00    -0.298 N 
ATOM      2  C   UNL     1       8.002  -0.648  23.831  0.00  0.00    +0.048 A 
ATOM      3  C   UNL     1       7.715   0.333  22.850  0.00  0.00    +0.037 A 
ATOM      4  C   UNL     1       7.563   1.709  23.139  0.00  0.00    +0.057 A 
ATOM      5  C   UNL     1       7.740   2.141  24.448  0.00  0.00    +0.013 A 
ATOM      6  C   UNL     1       8.048   1.216  25.437  0.00  0.00    +0.017 A 
ATOM      7  C   UNL     1       8.175  -0.159  25.142  0.00  0.00    +0.034 A 
ATOM      8  S   UNL     1       8.532  -1.183  26.548  0.00  0.00    -0.086 S 
ATOM      9  C   UNL     1       8.560  -2.810  25.847  0.00  0.00    +0.034 A 
ATOM     10  C   UNL     1       8.725  -3.860  26.772  0.00  0.00    +0.017 A 
ATOM     11  C   UNL     1       8.761  -5.187  26.362  0.00  0.00    +0.001 A 
ATOM     12  C   UNL     1       8.683  -5.474  25.013  0.00  0.00    +0.002 A 
ATOM     13  C   UNL     1       8.544  -4.433  24.090  0.00  0.00    +0.024 A 
ATOM     14  C   UNL     1       8.413  -3.075  24.473  0.00  0.00    +0.048 A 
ENDROOT
BRANCH   4  15
ATOM     15  C   UNL     1       7.205   2.700  22.059  0.00  0.00    +0.417 C 
ATOM     16  F   UNL     1       5.868   2.957  22.011  0.00  0.00    -0.166 F 
ATOM     17  F   UNL     1       7.542   2.258  20.813  0.00  0.00    -0.166 F 
ATOM     18  F   UNL     1       7.810   3.914  22.196  0.00  0.00    -0.166 F 
ENDBRANCH   4  15
BRANCH   1  19
ATOM     19  C   UNL     1       7.596  -2.516  22.216  0.00  0.00    +0.112 C 
BRANCH  19  20
ATOM     20  C   UNL     1       6.070  -2.709  22.208  0.00  0.00    +0.035 C 
BRANCH  20  21
ATOM     21  C   UNL     1       5.620  -4.171  22.182  0.00  0.00    +0.086 C 
BRANCH  21  25
ATOM     22  N   UNL     1       4.897  -5.818  25.476  0.00  0.00    -0.298 NA
ATOM     23  C   UNL     1       5.159  -4.378  25.266  0.00  0.00    +0.100 C 
ATOM     24  C   UNL     1       4.304  -3.709  24.163  0.00  0.00    +0.100 C 
ATOM     25  N   UNL     1       4.335  -4.409  22.860  0.00  0.00    -0.300 NA
ATOM     26  C   UNL     1       4.058  -5.842  23.079  0.00  0.00    +0.100 C 
ATOM     27  C   UNL     1       4.944  -6.502  24.162  0.00  0.00    +0.100 C 
BRANCH  22  28
ATOM     28  C   UNL     1       3.598  -6.091  26.121  0.00  0.00    +0.112 C 
BRANCH  28  29
ATOM     29  C   UNL     1       3.665  -6.836  27.459  0.00  0.00    +0.171 C 
BRANCH  29  30
ATOM     30  O   UNL     1       4.999  -7.295  27.664  0.00  0.00    -0.394 OA
ATOM     31  H   UNL     1       5.171  -7.251  28.619  0.00  0.00    +0.209 HD
ENDBRANCH  29  30
ENDBRANCH  28  29
ENDBRANCH  22  28
ENDBRANCH  21  25
ENDBRANCH  20  21
ENDBRANCH  19  20
ENDBRANCH   1  19
TORSDOF 8
ENDMDL
MODEL 5
REMARK VINA RESULT:      -6.6      4.103      7.035
REMARK  Name = 
REMARK  8 active torsions:
REMARK  status: ('A' for Active; 'I' for Inactive)
REMARK    1  A    between atoms: O_1  and  C_2
REMARK    2  A    between atoms: C_2  and  C_3
REMARK    3  A    between atoms: C_3  and  N_4
REMARK    4  A    between atoms: N_7  and  C_8
REMARK    5  A    between atoms: C_8  and  C_9
REMARK    6  A    between atoms: C_9  and  C_10
REMARK    7  A    between atoms: C_10  and  N_11
REMARK    8  A    between atoms: C_22  and  C_25
REMARK                            x       y       z     vdW  Elec       q    Type
REMARK                         _______ _______ _______ _____ _____    ______ ____
ROOT
ATOM      1  N   UNL     1       8.574  -1.952  25.004  0.00  0.00    -0.298 N 
ATOM      2  C   UNL     1       8.450  -0.529  25.055  0.00  0.00    +0.048 A 
ATOM      3  C   UNL     1       9.201   0.339  24.225  0.00  0.00    +0.037 A 
ATOM      4  C   UNL     1       9.070   1.747  24.238  0.00  0.00    +0.057 A 
ATOM      5  C   UNL     1       8.185   2.326  25.139  0.00  0.00    +0.013 A 
ATOM      6  C   UNL     1       7.447   1.514  25.991  0.00  0.00    +0.017 A 
ATOM      7  C   UNL     1       7.569   0.108  25.953  0.00  0.00    +0.034 A 
ATOM      8  S   UNL     1       6.513  -0.753  27.091  0.00  0.00    -0.086 S 
ATOM      9  C   UNL     1       6.868  -2.453  26.740  0.00  0.00    +0.034 A 
ATOM     10  C   UNL     1       6.080  -3.389  27.442  0.00  0.00    +0.017 A 
ATOM     11  C   UNL     1       6.248  -4.756  27.261  0.00  0.00    +0.001 A 
ATOM     12  C   UNL     1       7.243  -5.203  26.414  0.00  0.00    +0.002 A 
ATOM     13  C   UNL     1       8.043  -4.278  25.735  0.00  0.00    +0.024 A 
ATOM     14  C   UNL     1       7.845  -2.878  25.822  0.00  0.00    +0.048 A 
ENDROOT
BRANCH   4  15
ATOM     15  C   UNL     1       9.861   2.616  23.292  0.00  0.00    +0.417 C 
ATOM     16  F   UNL     1       9.926   2.091  22.036  0.00  0.00    -0.166 F 
ATOM     17  F   UNL     1      11.154   2.780  23.692  0.00  0.00    -0.166 F 
ATOM     18  F   UNL     1       9.358   3.873  23.141  0.00  0.00    -0.166 F 
ENDBRANCH   4  15
BRANCH   1  19
ATOM     19  C   UNL     1       9.250  -2.555  23.823  0.00  0.00    +0.112 C 
BRANCH  19  20
ATOM     20  C   UNL     1       8.317  -2.731  22.614  0.00  0.00    +0.035 C 
BRANCH  20  21
ATOM     21  C   UNL     1       7.782  -4.153  22.432  0.00  0.00    +0.086 C 
BRANCH  21  25
ATOM     22  N   UNL     1       4.453  -5.231  23.789  0.00  0.00    -0.298 NA
ATOM     23  C   UNL     1       4.999  -3.857  23.822  0.00  0.00    +0.100 C 
ATOM     24  C   UNL     1       5.507  -3.320  22.462  0.00  0.00    +0.100 C 
ATOM     25  N   UNL     1       6.466  -4.213  21.775  0.00  0.00    -0.300 NA
ATOM     26  C   UNL     1       5.907  -5.578  21.735  0.00  0.00    +0.100 C 
ATOM     27  C   UNL     1       5.433  -6.111  23.108  0.00  0.00    +0.100 C 
BRANCH  22  28
ATOM     28  C   UNL     1       3.150  -5.330  23.104  0.00  0.00    +0.112 C 
BRANCH  28  29
ATOM     29  C   UNL     1       2.271  -6.515  23.518  0.00  0.00    +0.171 C 
BRANCH  29  30
ATOM     30  O   UNL     1       2.000  -7.312  22.367  0.00  0.00    -0.394 OA
ATOM     31  H   UNL     1       2.761  -7.903  22.245  0.00  0.00    +0.209 HD
ENDBRANCH  29  30
ENDBRANCH  28  29
ENDBRANCH  22  28
ENDBRANCH  21  25
ENDBRANCH  20  21
ENDBRANCH  19  20
ENDBRANCH   1  19
TORSDOF 8
ENDMDL
MODEL 6
REMARK VINA RESULT:      -6.4      3.090      4.217
REMARK  Name = 
REMARK  8 active torsions:
REMARK  status: ('A' for Active; 'I' for Inactive)
REMARK    1  A    between atoms: O_1  and  C_2
REMARK    2  A    between atoms: C_2  and  C_3
REMARK    3  A    between atoms: C_3  and  N_4
REMARK    4  A    between atoms: N_7  and  C_8
REMARK    5  A    between atoms: C_8  and  C_9
REMARK    6  A    between atoms: C_9  and  C_10
REMARK    7  A    between atoms: C_10  and  N_11
REMARK    8  A    between atoms: C_22  and  C_25
REMARK                            x       y       z     vdW  Elec       q    Type
REMARK                         _______ _______ _______ _____ _____    ______ ____
ROOT
ATOM      1  N   UNL     1       7.152  -2.049  24.945  0.00  0.00    -0.298 N 
ATOM      2  C   UNL     1       6.328  -3.045  24.331  0.00  0.00    +0.048 A 
ATOM      3  C   UNL     1       6.795  -3.903  23.306  0.00  0.00    +0.037 A 
ATOM      4  C   UNL     1       6.005  -4.914  22.709  0.00  0.00    +0.057 A 
ATOM      5  C   UNL     1       4.685  -5.057  23.116  0.00  0.00    +0.013 A 
ATOM      6  C   UNL     1       4.178  -4.218  24.101  0.00  0.00    +0.017 A 
ATOM      7  C   UNL     1       4.982  -3.228  24.706  0.00  0.00    +0.034 A 
ATOM      8  S   UNL     1       4.163  -2.287  25.970  0.00  0.00    -0.086 S 
ATOM      9  C   UNL     1       5.446  -1.209  26.545  0.00  0.00    +0.034 A 
ATOM     10  C   UNL     1       5.101  -0.398  27.645  0.00  0.00    +0.017 A 
ATOM     11  C   UNL     1       6.011   0.493  28.201  0.00  0.00    +0.001 A 
ATOM     12  C   UNL     1       7.262   0.616  27.629  0.00  0.00    +0.002 A 
ATOM     13  C   UNL     1       7.600  -0.169  26.522  0.00  0.00    +0.024 A 
ATOM     14  C   UNL     1       6.733  -1.151  25.981  0.00  0.00    +0.048 A 
ENDROOT
BRANCH   4  15
ATOM     15  C   UNL     1       6.575  -5.833  21.657  0.00  0.00    +0.417 C 
ATOM     16  F   UNL     1       7.878  -5.553  21.373  0.00  0.00    -0.166 F 
ATOM     17  F   UNL     1       5.910  -5.741  20.469  0.00  0.00    -0.166 F 
ATOM     18  F   UNL     1       6.545  -7.152  21.996  0.00  0.00    -0.166 F 
ENDBRANCH   4  15
BRANCH   1  19
ATOM     19  C   UNL     1       8.624  -2.140  24.749  0.00  0.00    +0.112 C 
BRANCH  19  20
ATOM     20  C   UNL     1       9.104  -1.490  23.441  0.00  0.00    +0.035 C 
BRANCH  20  21
ATOM     21  C   UNL     1       9.960  -0.238  23.637  0.00  0.00    +0.086 C 
BRANCH  21  25
ATOM     22  N   UNL     1       7.690   2.736  23.338  0.00  0.00    -0.298 NA
ATOM     23  C   UNL     1       9.045   2.736  23.931  0.00  0.00    +0.100 C 
ATOM     24  C   UNL     1      10.148   2.105  23.047  0.00  0.00    +0.100 C 
ATOM     25  N   UNL     1       9.829   0.748  22.551  0.00  0.00    -0.300 NA
ATOM     26  C   UNL     1       8.481   0.762  21.950  0.00  0.00    +0.100 C 
ATOM     27  C   UNL     1       7.385   1.367  22.859  0.00  0.00    +0.100 C 
BRANCH  22  28
ATOM     28  C   UNL     1       7.537   3.689  22.222  0.00  0.00    +0.112 C 
BRANCH  28  29
ATOM     29  C   UNL     1       7.485   5.169  22.615  0.00  0.00    +0.171 C 
BRANCH  29  30
ATOM     30  O   UNL     1       7.551   5.962  21.432  0.00  0.00    -0.394 OA
ATOM     31  H   UNL     1       7.149   6.821  21.643  0.00  0.00    +0.209 HD
ENDBRANCH  29  30
ENDBRANCH  28  29
ENDBRANCH  22  28
ENDBRANCH  21  25
ENDBRANCH  20  21
ENDBRANCH  19  20
ENDBRANCH   1  19
TORSDOF 8
ENDMDL
MODEL 7
REMARK VINA RESULT:      -6.3      6.097     10.045
REMARK  Name = 
REMARK  8 active torsions:
REMARK  status: ('A' for Active; 'I' for Inactive)
REMARK    1  A    between atoms: O_1  and  C_2
REMARK    2  A    between atoms: C_2  and  C_3
REMARK    3  A    between atoms: C_3  and  N_4
REMARK    4  A    between atoms: N_7  and  C_8
REMARK    5  A    between atoms: C_8  and  C_9
REMARK    6  A    between atoms: C_9  and  C_10
REMARK    7  A    between atoms: C_10  and  N_11
REMARK    8  A    between atoms: C_22  and  C_25
REMARK                            x       y       z     vdW  Elec       q    Type
REMARK                         _______ _______ _______ _____ _____    ______ ____
ROOT
ATOM      1  N   UNL     1       7.159   3.989  23.086  0.00  0.00    -0.298 N 
ATOM      2  C   UNL     1       8.167   4.827  23.657  0.00  0.00    +0.048 A 
ATOM      3  C   UNL     1       9.546   4.668  23.381  0.00  0.00    +0.037 A 
ATOM      4  C   UNL     1      10.554   5.507  23.911  0.00  0.00    +0.057 A 
ATOM      5  C   UNL     1      10.186   6.524  24.784  0.00  0.00    +0.013 A 
ATOM      6  C   UNL     1       8.845   6.700  25.102  0.00  0.00    +0.017 A 
ATOM      7  C   UNL     1       7.845   5.871  24.550  0.00  0.00    +0.034 A 
ATOM      8  S   UNL     1       6.191   6.281  25.049  0.00  0.00    -0.086 S 
ATOM      9  C   UNL     1       5.212   5.115  24.143  0.00  0.00    +0.034 A 
ATOM     10  C   UNL     1       3.817   5.276  24.270  0.00  0.00    +0.017 A 
ATOM     11  C   UNL     1       2.929   4.434  23.612  0.00  0.00    +0.001 A 
ATOM     12  C   UNL     1       3.429   3.389  22.860  0.00  0.00    +0.002 A 
ATOM     13  C   UNL     1       4.811   3.211  22.751  0.00  0.00    +0.024 A 
ATOM     14  C   UNL     1       5.750   4.099  23.333  0.00  0.00    +0.048 A 
ENDROOT
BRANCH   4  15
ATOM     15  C   UNL     1      12.004   5.320  23.539  0.00  0.00    +0.417 C 
ATOM     16  F   UNL     1      12.358   4.006  23.471  0.00  0.00    -0.166 F 
ATOM     17  F   UNL     1      12.853   5.886  24.445  0.00  0.00    -0.166 F 
ATOM     18  F   UNL     1      12.341   5.856  22.332  0.00  0.00    -0.166 F 
ENDBRANCH   4  15
BRANCH   1  19
ATOM     19  C   UNL     1       7.527   3.150  21.913  0.00  0.00    +0.112 C 
BRANCH  19  20
ATOM     20  C   UNL     1       8.429   1.959  22.278  0.00  0.00    +0.035 C 
BRANCH  20  21
ATOM     21  C   UNL     1       7.964   1.168  23.502  0.00  0.00    +0.086 C 
BRANCH  21  25
ATOM     22  N   UNL     1       8.581  -2.532  23.609  0.00  0.00    -0.298 NA
ATOM     23  C   UNL     1       9.104  -1.595  22.591  0.00  0.00    +0.100 C 
ATOM     24  C   UNL     1       9.823  -0.347  23.157  0.00  0.00    +0.100 C 
ATOM     25  N   UNL     1       9.038   0.406  24.160  0.00  0.00    -0.300 NA
ATOM     26  C   UNL     1       8.533  -0.535  25.178  0.00  0.00    +0.100 C 
ATOM     27  C   UNL     1       7.789  -1.762  24.597  0.00  0.00    +0.100 C 
BRANCH  22  28
ATOM     28  C   UNL     1       9.637  -3.286  24.313  0.00  0.00    +0.112 C 
BRANCH  28  29
ATOM     29  C   UNL     1       9.206  -4.626  24.916  0.00  0.00    +0.171 C 
BRANCH  29  30
ATOM     30  O   UNL     1      10.371  -5.380  25.244  0.00  0.00    -0.394 OA
ATOM     31  H   UNL     1      10.510  -5.288  26.201  0.00  0.00    +0.209 HD
ENDBRANCH  29  30
ENDBRANCH  28  29
ENDBRANCH  22  28
ENDBRANCH  21  25
ENDBRANCH  20  21
ENDBRANCH  19  20
ENDBRANCH   1  19
TORSDOF 8
ENDMDL
MODEL 8
REMARK VINA RESULT:      -6.2      4.016      8.029
REMARK  Name = 
REMARK  8 active torsions:
REMARK  status: ('A' for Active; 'I' for Inactive)
REMARK    1  A    between atoms: O_1  and  C_2
REMARK    2  A    between atoms: C_2  and  C_3
REMARK    3  A    between atoms: C_3  and  N_4
REMARK    4  A    between atoms: N_7  and  C_8
REMARK    5  A    between atoms: C_8  and  C_9
REMARK    6  A    between atoms: C_9  and  C_10
REMARK    7  A    between atoms: C_10  and  N_11
REMARK    8  A    between atoms: C_22  and  C_25
REMARK                            x       y       z     vdW  Elec       q    Type
REMARK                         _______ _______ _______ _____ _____    ______ ____
ROOT
ATOM      1  N   UNL     1       8.239   0.717  25.477  0.00  0.00    -0.298 N 
ATOM      2  C   UNL     1       8.874  -0.341  24.754  0.00  0.00    +0.048 A 
ATOM      3  C   UNL     1       8.835  -1.692  25.176  0.00  0.00    +0.037 A 
ATOM      4  C   UNL     1       9.430  -2.756  24.457  0.00  0.00    +0.057 A 
ATOM      5  C   UNL     1      10.128  -2.466  23.291  0.00  0.00    +0.013 A 
ATOM      6  C   UNL     1      10.213  -1.150  22.854  0.00  0.00    +0.017 A 
ATOM      7  C   UNL     1       9.596  -0.099  23.567  0.00  0.00    +0.034 A 
ATOM      8  S   UNL     1       9.786   1.503  22.826  0.00  0.00    -0.086 S 
ATOM      9  C   UNL     1       8.859   2.548  23.916  0.00  0.00    +0.034 A 
ATOM     10  C   UNL     1       8.749   3.893  23.509  0.00  0.00    +0.017 A 
ATOM     11  C   UNL     1       8.047   4.823  24.267  0.00  0.00    +0.001 A 
ATOM     12  C   UNL     1       7.491   4.427  25.467  0.00  0.00    +0.002 A 
ATOM     13  C   UNL     1       7.620   3.099  25.886  0.00  0.00    +0.024 A 
ATOM     14  C   UNL     1       8.249   2.101  25.102  0.00  0.00    +0.048 A 
ENDROOT
BRANCH   4  15
ATOM     15  C   UNL     1       9.310  -4.183  24.930  0.00  0.00    +0.417 C 
ATOM     16  F   UNL     1       8.508  -4.932  24.123  0.00  0.00    -0.166 F 
ATOM     17  F   UNL     1       8.768  -4.275  26.179  0.00  0.00    -0.166 F 
ATOM     18  F   UNL     1      10.497  -4.850  24.993  0.00  0.00    -0.166 F 
ENDBRANCH   4  15
BRANCH   1  19
ATOM     19  C   UNL     1       7.228   0.352  26.507  0.00  0.00    +0.112 C 
BRANCH  19  20
ATOM     20  C   UNL     1       5.855  -0.001  25.911  0.00  0.00    +0.035 C 
BRANCH  20  21
ATOM     21  C   UNL     1       5.261  -1.311  26.432  0.00  0.00    +0.086 C 
BRANCH  21  25
ATOM     22  N   UNL     1       4.384  -4.959  26.315  0.00  0.00    -0.298 NA
ATOM     23  C   UNL     1       3.559  -3.887  26.914  0.00  0.00    +0.100 C 
ATOM     24  C   UNL     1       3.301  -2.668  25.996  0.00  0.00    +0.100 C 
ATOM     25  N   UNL     1       4.525  -2.076  25.412  0.00  0.00    -0.300 NA
ATOM     26  C   UNL     1       5.334  -3.151  24.806  0.00  0.00    +0.100 C 
ATOM     27  C   UNL     1       5.609  -4.348  25.746  0.00  0.00    +0.100 C 
BRANCH  22  28
ATOM     28  C   UNL     1       3.685  -5.721  25.262  0.00  0.00    +0.112 C 
BRANCH  28  29
ATOM     29  C   UNL     1       4.515  -6.804  24.565  0.00  0.00    +0.171 C 
BRANCH  29  30
ATOM     30  O   UNL     1       3.640  -7.833  24.110  0.00  0.00    -0.394 OA
ATOM     31  H   UNL     1       3.842  -8.628  24.630  0.00  0.00    +0.209 HD
ENDBRANCH  29  30
ENDBRANCH  28  29
ENDBRANCH  22  28
ENDBRANCH  21  25
ENDBRANCH  20  21
ENDBRANCH  19  20
ENDBRANCH   1  19
TORSDOF 8
ENDMDL
MODEL 9
REMARK VINA RESULT:      -6.2      4.184      6.295
REMARK  Name = 
REMARK  8 active torsions:
REMARK  status: ('A' for Active; 'I' for Inactive)
REMARK    1  A    between atoms: O_1  and  C_2
REMARK    2  A    between atoms: C_2  and  C_3
REMARK    3  A    between atoms: C_3  and  N_4
REMARK    4  A    between atoms: N_7  and  C_8
REMARK    5  A    between atoms: C_8  and  C_9
REMARK    6  A    between atoms: C_9  and  C_10
REMARK    7  A    between atoms: C_10  and  N_11
REMARK    8  A    between atoms: C_22  and  C_25
REMARK                            x       y       z     vdW  Elec       q    Type
REMARK                         _______ _______ _______ _____ _____    ______ ____
ROOT
ATOM      1  N   UNL     1       8.174  -1.526  25.427  0.00  0.00    -0.298 N 
ATOM      2  C   UNL     1       8.631  -0.948  24.201  0.00  0.00    +0.048 A 
ATOM      3  C   UNL     1       9.191   0.351  24.125  0.00  0.00    +0.037 A 
ATOM      4  C   UNL     1       9.676   0.926  22.928  0.00  0.00    +0.057 A 
ATOM      5  C   UNL     1       9.569   0.202  21.746  0.00  0.00    +0.013 A 
ATOM      6  C   UNL     1       9.002  -1.066  21.772  0.00  0.00    +0.017 A 
ATOM      7  C   UNL     1       8.541  -1.640  22.976  0.00  0.00    +0.034 A 
ATOM      8  S   UNL     1       7.887  -3.282  22.805  0.00  0.00    -0.086 S 
ATOM      9  C   UNL     1       7.473  -3.711  24.474  0.00  0.00    +0.034 A 
ATOM     10  C   UNL     1       7.015  -5.031  24.658  0.00  0.00    +0.017 A 
ATOM     11  C   UNL     1       6.658  -5.504  25.915  0.00  0.00    +0.001 A 
ATOM     12  C   UNL     1       6.708  -4.643  26.994  0.00  0.00    +0.002 A 
ATOM     13  C   UNL     1       7.139  -3.325  26.811  0.00  0.00    +0.024 A 
ATOM     14  C   UNL     1       7.596  -2.831  25.564  0.00  0.00    +0.048 A 
ENDROOT
BRANCH   4  15
ATOM     15  C   UNL     1      10.311   2.295  22.919  0.00  0.00    +0.417 C 
ATOM     16  F   UNL     1       9.408   3.288  23.150  0.00  0.00    -0.166 F 
ATOM     17  F   UNL     1      10.890   2.594  21.720  0.00  0.00    -0.166 F 
ATOM     18  F   UNL     1      11.289   2.460  23.853  0.00  0.00    -0.166 F 
ENDBRANCH   4  15
BRANCH   1  19
ATOM     19  C   UNL     1       8.606  -0.893  26.703  0.00  0.00    +0.112 C 
BRANCH  19  20
ATOM     20  C   UNL     1       7.465  -0.174  27.441  0.00  0.00    +0.035 C 
BRANCH  20  21
ATOM     21  C   UNL     1       7.239   1.272  26.996  0.00  0.00    +0.086 C 
BRANCH  21  25
ATOM     22  N   UNL     1       5.470   2.632  23.978  0.00  0.00    -0.298 NA
ATOM     23  C   UNL     1       5.654   1.201  24.303  0.00  0.00    +0.100 C 
ATOM     24  C   UNL     1       5.227   0.793  25.734  0.00  0.00    +0.100 C 
ATOM     25  N   UNL     1       5.821   1.620  26.807  0.00  0.00    -0.300 NA
ATOM     26  C   UNL     1       5.619   3.045  26.480  0.00  0.00    +0.100 C 
ATOM     27  C   UNL     1       6.081   3.443  25.057  0.00  0.00    +0.100 C 
BRANCH  22  28
ATOM     28  C   UNL     1       4.055   3.020  23.818  0.00  0.00    +0.112 C 
BRANCH  28  29
ATOM     29  C   UNL     1       3.650   3.490  22.417  0.00  0.00    +0.171 C 
BRANCH  29  30
ATOM     30  O   UNL     1       4.653   4.373  21.919  0.00  0.00    -0.394 OA
ATOM     31  H   UNL     1       4.473   4.504  20.973  0.00  0.00    +0.209 HD
ENDBRANCH  29  30
ENDBRANCH  28  29
ENDBRANCH  22  28
ENDBRANCH  21  25
ENDBRANCH  20  21
ENDBRANCH  19  20
ENDBRANCH   1  19
TORSDOF 8
ENDMDL
