MODEL 1
REMARK VINA RESULT:      -7.8      0.000      0.000
REMARK  Name = 
REMARK  8 active torsions:
REMARK  status: ('A' for Active; 'I' for Inactive)
REMARK    1  A    between atoms: C_1  and  O_2
REMARK    2  A    between atoms: O_2  and  C_3
REMARK    3  A    between atoms: C_8  and  C_9
REMARK    4  A    between atoms: C_17  and  O_18
REMARK    5  A    between atoms: N_20  and  C_21
REMARK    6  A    between atoms: C_21  and  C_22
REMARK    7  A    between atoms: C_22  and  C_23
REMARK    8  A    between atoms: C_23  and  O_24
REMARK                            x       y       z     vdW  Elec       q    Type
REMARK                         _______ _______ _______ _____ _____    ______ ____
ROOT
ATOM      1  C   UNL     1       9.232   2.364  23.748  0.00  0.00    +0.001 A 
ATOM      2  C   UNL     1       9.507   1.200  23.003  0.00  0.00    +0.060 A 
ATOM      3  C   UNL     1       9.127   0.875  21.641  0.00  0.00    +0.260 A 
ATOM      4  N   UNL     1       9.720  -0.352  21.423  0.00  0.00    -0.289 N 
ATOM      5  H   UNL     1       9.486  -0.926  20.630  0.00  0.00    +0.172 HD
ATOM      6  C   UNL     1      10.178  -0.954  22.551  0.00  0.00    +0.260 A 
ATOM      7  O   UNL     1      10.838  -2.006  22.562  0.00  0.00    -0.267 OA
ATOM      8  O   UNL     1       8.289   1.350  20.887  0.00  0.00    -0.267 OA
ATOM      9  C   UNL     1       9.737  -0.074  23.563  0.00  0.00    +0.062 A 
ATOM     10  C   UNL     1       8.941  -0.293  24.712  0.00  0.00    +0.021 A 
ATOM     11  C   UNL     1       8.239  -1.486  24.858  0.00  0.00    +0.012 A 
ATOM     12  C   UNL     1       8.216  -2.765  24.254  0.00  0.00    +0.056 A 
ATOM     13  C   UNL     1       7.139  -3.621  24.502  0.00  0.00    +0.118 A 
ATOM     14  C   UNL     1       6.145  -3.279  25.406  0.00  0.00    +0.047 A 
ATOM     15  C   UNL     1       6.190  -2.057  26.087  0.00  0.00    +0.030 A 
ATOM     16  C   UNL     1       7.224  -1.156  25.777  0.00  0.00    +0.050 A 
ATOM     17  N   UNL     1       7.415   0.172  26.160  0.00  0.00    -0.340 N 
ATOM     18  C   UNL     1       8.305   0.768  25.300  0.00  0.00    +0.051 A 
ATOM     19  C   UNL     1       8.543   2.102  24.950  0.00  0.00    +0.035 A 
ENDROOT
BRANCH   1  21
ATOM     20  C   UNL     1       9.454   4.936  23.735  0.00  0.00    +0.128 A 
ATOM     21  C   UNL     1      10.000   3.636  23.536  0.00  0.00    +0.025 A 
ATOM     22  C   UNL     1      11.405   3.579  23.359  0.00  0.00    +0.012 A 
ATOM     23  C   UNL     1      12.226   4.710  23.471  0.00  0.00    +0.001 A 
ATOM     24  C   UNL     1      11.676   5.941  23.789  0.00  0.00    +0.004 A 
ATOM     25  C   UNL     1      10.295   6.053  23.917  0.00  0.00    +0.046 A 
BRANCH  20  27
ATOM     26  C   UNL     1       7.434   5.419  22.591  0.00  0.00    +0.277 C 
ATOM     27  O   UNL     1       8.087   5.078  23.814  0.00  0.00    -0.495 OA
ENDBRANCH  20  27
ENDBRANCH   1  21
BRANCH  13  28
ATOM     28  O   UNL     1       7.091  -4.778  23.782  0.00  0.00    -0.507 OA
ATOM     29  H   UNL     1       6.389  -5.338  24.148  0.00  0.00    +0.292 HD
ENDBRANCH  13  28
BRANCH  17  30
ATOM     30  C   UNL     1       6.587   0.897  27.105  0.00  0.00    +0.124 C 
BRANCH  30  31
ATOM     31  C   UNL     1       7.161   0.907  28.512  0.00  0.00    +0.049 C 
BRANCH  31  32
ATOM     32  C   UNL     1       7.108   2.277  29.181  0.00  0.00    +0.157 C 
BRANCH  32  33
ATOM     33  O   UNL     1       8.226   2.418  30.049  0.00  0.00    -0.395 OA
ATOM     34  H   UNL     1       9.007   2.616  29.504  0.00  0.00    +0.209 HD
ENDBRANCH  32  33
ENDBRANCH  31  32
ENDBRANCH  30  31
ENDBRANCH  17  30
TORSDOF 7
ENDMDL
MODEL 2
REMARK VINA RESULT:      -7.2      1.951      6.879
REMARK  Name = 
REMARK  8 active torsions:
REMARK  status: ('A' for Active; 'I' for Inactive)
REMARK    1  A    between atoms: C_1  and  O_2
REMARK    2  A    between atoms: O_2  and  C_3
REMARK    3  A    between atoms: C_8  and  C_9
REMARK    4  A    between atoms: C_17  and  O_18
REMARK    5  A    between atoms: N_20  and  C_21
REMARK    6  A    between atoms: C_21  and  C_22
REMARK    7  A    between atoms: C_22  and  C_23
REMARK    8  A    between atoms: C_23  and  O_24
REMARK                            x       y       z     vdW  Elec       q    Type
REMARK                         _______ _______ _______ _____ _____    ______ ____
ROOT
ATOM      1  C   UNL     1       6.711  -2.402  24.210  0.00  0.00    +0.001 A 
ATOM      2  C   UNL     1       7.818  -2.030  23.420  0.00  0.00    +0.060 A 
ATOM      3  C   UNL     1       9.207  -2.426  23.548  0.00  0.00    +0.260 A 
ATOM      4  N   UNL     1       9.819  -1.814  22.474  0.00  0.00    -0.289 N 
ATOM      5  H   UNL     1      10.820  -1.750  22.393  0.00  0.00    +0.172 HD
ATOM      6  C   UNL     1       9.054  -0.873  21.862  0.00  0.00    +0.260 A 
ATOM      7  O   UNL     1       9.373  -0.287  20.815  0.00  0.00    -0.267 OA
ATOM      8  O   UNL     1       9.835  -2.936  24.467  0.00  0.00    -0.267 OA
ATOM      9  C   UNL     1       7.915  -0.825  22.694  0.00  0.00    +0.062 A 
ATOM     10  C   UNL     1       7.301   0.251  23.379  0.00  0.00    +0.021 A 
ATOM     11  C   UNL     1       7.964   1.468  23.505  0.00  0.00    +0.012 A 
ATOM     12  C   UNL     1       9.095   2.105  22.941  0.00  0.00    +0.056 A 
ATOM     13  C   UNL     1       9.616   3.247  23.556  0.00  0.00    +0.118 A 
ATOM     14  C   UNL     1       8.986   3.824  24.648  0.00  0.00    +0.047 A 
ATOM     15  C   UNL     1       7.813   3.267  25.171  0.00  0.00    +0.030 A 
ATOM     16  C   UNL     1       7.334   2.070  24.611  0.00  0.00    +0.050 A 
ATOM     17  N   UNL     1       6.313   1.215  25.032  0.00  0.00    -0.340 N 
ATOM     18  C   UNL     1       6.477  -0.013  24.442  0.00  0.00    +0.051 A 
ATOM     19  C   UNL     1       6.045  -1.300  24.783  0.00  0.00    +0.035 A 
ENDROOT
BRANCH   1  21
ATOM     20  C   UNL     1       6.321  -4.864  24.881  0.00  0.00    +0.128 A 
ATOM     21  C   UNL     1       6.045  -3.738  24.055  0.00  0.00    +0.025 A 
ATOM     22  C   UNL     1       4.913  -3.857  23.210  0.00  0.00    +0.012 A 
ATOM     23  C   UNL     1       4.054  -4.964  23.251  0.00  0.00    +0.001 A 
ATOM     24  C   UNL     1       4.281  -5.988  24.157  0.00  0.00    +0.004 A 
ATOM     25  C   UNL     1       5.412  -5.939  24.966  0.00  0.00    +0.046 A 
BRANCH  20  27
ATOM     26  C   UNL     1       7.289  -5.299  27.002  0.00  0.00    +0.277 C 
ATOM     27  O   UNL     1       7.460  -4.859  25.654  0.00  0.00    -0.495 OA
ENDBRANCH  20  27
ENDBRANCH   1  21
BRANCH  13  28
ATOM     28  O   UNL     1      10.789   3.733  23.061  0.00  0.00    -0.507 OA
ATOM     29  H   UNL     1      10.743   4.703  23.062  0.00  0.00    +0.292 HD
ENDBRANCH  13  28
BRANCH  17  30
ATOM     30  C   UNL     1       5.414   1.472  26.142  0.00  0.00    +0.124 C 
BRANCH  30  31
ATOM     31  C   UNL     1       6.020   1.119  27.491  0.00  0.00    +0.049 C 
BRANCH  31  32
ATOM     32  C   UNL     1       6.157   2.315  28.428  0.00  0.00    +0.157 C 
BRANCH  32  33
ATOM     33  O   UNL     1       7.535   2.552  28.685  0.00  0.00    -0.395 OA
ATOM     34  H   UNL     1       7.925   1.728  29.023  0.00  0.00    +0.209 HD
ENDBRANCH  32  33
ENDBRANCH  31  32
ENDBRANCH  30  31
ENDBRANCH  17  30
TORSDOF 7
ENDMDL
MODEL 3
REMARK VINA RESULT:      -7.0      2.680      5.734
REMARK  Name = 
REMARK  8 active torsions:
REMARK  status: ('A' for Active; 'I' for Inactive)
REMARK    1  A    between atoms: C_1  and  O_2
REMARK    2  A    between atoms: O_2  and  C_3
REMARK    3  A    between atoms: C_8  and  C_9
REMARK    4  A    between atoms: C_17  and  O_18
REMARK    5  A    between atoms: N_20  and  C_21
REMARK    6  A    between atoms: C_21  and  C_22
REMARK    7  A    between atoms: C_22  and  C_23
REMARK    8  A    between atoms: C_23  and  O_24
REMARK                            x       y       z     vdW  Elec       q    Type
REMARK                         _______ _______ _______ _____ _____    ______ ____
ROOT
ATOM      1  C   UNL     1       8.359  -0.963  24.428  0.00  0.00    +0.001 A 
ATOM      2  C   UNL     1       7.307  -0.690  25.325  0.00  0.00    +0.060 A 
ATOM      3  C   UNL     1       7.371  -0.338  26.730  0.00  0.00    +0.260 A 
ATOM      4  N   UNL     1       6.052  -0.125  27.072  0.00  0.00    -0.289 N 
ATOM      5  H   UNL     1       5.753  -0.044  28.030  0.00  0.00    +0.172 HD
ATOM      6  C   UNL     1       5.161  -0.564  26.146  0.00  0.00    +0.260 A 
ATOM      7  O   UNL     1       3.937  -0.370  26.209  0.00  0.00    -0.267 OA
ATOM      8  O   UNL     1       8.264  -0.438  27.562  0.00  0.00    -0.267 OA
ATOM      9  C   UNL     1       5.997  -1.199  25.202  0.00  0.00    +0.062 A 
ATOM     10  C   UNL     1       5.993  -2.516  24.684  0.00  0.00    +0.021 A 
ATOM     11  C   UNL     1       5.221  -3.502  25.290  0.00  0.00    +0.012 A 
ATOM     12  C   UNL     1       4.176  -3.574  26.243  0.00  0.00    +0.056 A 
ATOM     13  C   UNL     1       3.853  -4.807  26.815  0.00  0.00    +0.118 A 
ATOM     14  C   UNL     1       4.468  -5.976  26.393  0.00  0.00    +0.047 A 
ATOM     15  C   UNL     1       5.440  -5.947  25.386  0.00  0.00    +0.030 A 
ATOM     16  C   UNL     1       5.831  -4.699  24.869  0.00  0.00    +0.050 A 
ATOM     17  N   UNL     1       6.875  -4.361  24.007  0.00  0.00    -0.340 N 
ATOM     18  C   UNL     1       7.134  -3.016  24.114  0.00  0.00    +0.051 A 
ATOM     19  C   UNL     1       8.262  -2.238  23.833  0.00  0.00    +0.035 A 
ENDROOT
BRANCH   1  21
ATOM     20  C   UNL     1       8.674   1.083  22.887  0.00  0.00    +0.128 A 
ATOM     21  C   UNL     1       9.182   0.134  23.819  0.00  0.00    +0.025 A 
ATOM     22  C   UNL     1      10.466   0.418  24.348  0.00  0.00    +0.012 A 
ATOM     23  C   UNL     1      11.156   1.603  24.058  0.00  0.00    +0.001 A 
ATOM     24  C   UNL     1      10.578   2.564  23.245  0.00  0.00    +0.004 A 
ATOM     25  C   UNL     1       9.343   2.303  22.660  0.00  0.00    +0.046 A 
BRANCH  20  27
ATOM     26  C   UNL     1       6.420   1.738  22.547  0.00  0.00    +0.277 C 
ATOM     27  O   UNL     1       7.477   0.823  22.257  0.00  0.00    -0.495 OA
ENDBRANCH  20  27
ENDBRANCH   1  21
BRANCH  13  28
ATOM     28  O   UNL     1       2.945  -4.797  27.832  0.00  0.00    -0.507 OA
ATOM     29  H   UNL     1       2.802  -3.877  28.105  0.00  0.00    +0.292 HD
ENDBRANCH  13  28
BRANCH  17  30
ATOM     30  C   UNL     1       7.751  -5.308  23.344  0.00  0.00    +0.124 C 
BRANCH  30  31
ATOM     31  C   UNL     1       7.098  -5.987  22.151  0.00  0.00    +0.049 C 
BRANCH  31  32
ATOM     32  C   UNL     1       6.213  -5.055  21.329  0.00  0.00    +0.157 C 
BRANCH  32  33
ATOM     33  O   UNL     1       5.963  -5.647  20.060  0.00  0.00    -0.395 OA
ATOM     34  H   UNL     1       6.216  -6.585  20.110  0.00  0.00    +0.209 HD
ENDBRANCH  32  33
ENDBRANCH  31  32
ENDBRANCH  30  31
ENDBRANCH  17  30
TORSDOF 7
ENDMDL
MODEL 4
REMARK VINA RESULT:      -6.9      2.736      7.259
REMARK  Name = 
REMARK  8 active torsions:
REMARK  status: ('A' for Active; 'I' for Inactive)
REMARK    1  A    between atoms: C_1  and  O_2
REMARK    2  A    between atoms: O_2  and  C_3
REMARK    3  A    between atoms: C_8  and  C_9
REMARK    4  A    between atoms: C_17  and  O_18
REMARK    5  A    between atoms: N_20  and  C_21
REMARK    6  A    between atoms: C_21  and  C_22
REMARK    7  A    between atoms: C_22  and  C_23
REMARK    8  A    between atoms: C_23  and  O_24
REMARK                            x       y       z     vdW  Elec       q    Type
REMARK                         _______ _______ _______ _____ _____    ______ ____
ROOT
ATOM      1  C   UNL     1       6.221  -2.716  24.678  0.00  0.00    +0.001 A 
ATOM      2  C   UNL     1       7.570  -2.641  24.275  0.00  0.00    +0.060 A 
ATOM      3  C   UNL     1       8.760  -3.077  24.979  0.00  0.00    +0.260 A 
ATOM      4  N   UNL     1       9.779  -2.816  24.087  0.00  0.00    -0.289 N 
ATOM      5  H   UNL     1      10.748  -2.839  24.359  0.00  0.00    +0.172 HD
ATOM      6  C   UNL     1       9.414  -2.026  23.044  0.00  0.00    +0.260 A 
ATOM      7  O   UNL     1      10.147  -1.763  22.078  0.00  0.00    -0.267 OA
ATOM      8  O   UNL     1       8.962  -3.360  26.153  0.00  0.00    -0.267 OA
ATOM      9  C   UNL     1       8.086  -1.683  23.377  0.00  0.00    +0.062 A 
ATOM     10  C   UNL     1       7.454  -0.426  23.532  0.00  0.00    +0.021 A 
ATOM     11  C   UNL     1       8.217   0.735  23.606  0.00  0.00    +0.012 A 
ATOM     12  C   UNL     1       9.555   1.124  23.355  0.00  0.00    +0.056 A 
ATOM     13  C   UNL     1      10.013   2.353  23.838  0.00  0.00    +0.118 A 
ATOM     14  C   UNL     1       9.155   3.240  24.468  0.00  0.00    +0.047 A 
ATOM     15  C   UNL     1       7.804   2.921  24.648  0.00  0.00    +0.030 A 
ATOM     16  C   UNL     1       7.358   1.650  24.243  0.00  0.00    +0.050 A 
ATOM     17  N   UNL     1       6.136   1.007  24.453  0.00  0.00    -0.340 N 
ATOM     18  C   UNL     1       6.295  -0.342  24.258  0.00  0.00    +0.051 A 
ATOM     19  C   UNL     1       5.581  -1.460  24.705  0.00  0.00    +0.035 A 
ENDROOT
BRANCH   1  21
ATOM     20  C   UNL     1       4.999  -4.586  23.385  0.00  0.00    +0.128 A 
ATOM     21  C   UNL     1       5.446  -3.999  24.603  0.00  0.00    +0.025 A 
ATOM     22  C   UNL     1       5.336  -4.814  25.756  0.00  0.00    +0.012 A 
ATOM     23  C   UNL     1       4.912  -6.150  25.698  0.00  0.00    +0.001 A 
ATOM     24  C   UNL     1       4.604  -6.730  24.478  0.00  0.00    +0.004 A 
ATOM     25  C   UNL     1       4.644  -5.950  23.327  0.00  0.00    +0.046 A 
BRANCH  20  27
ATOM     26  C   UNL     1       6.016  -4.103  21.298  0.00  0.00    +0.277 C 
ATOM     27  O   UNL     1       4.983  -3.818  22.242  0.00  0.00    -0.495 OA
ENDBRANCH  20  27
ENDBRANCH   1  21
BRANCH  13  28
ATOM     28  O   UNL     1      11.344   2.612  23.700  0.00  0.00    -0.507 OA
ATOM     29  H   UNL     1      11.447   3.387  23.124  0.00  0.00    +0.292 HD
ENDBRANCH  13  28
BRANCH  17  30
ATOM     30  C   UNL     1       4.973   1.609  25.076  0.00  0.00    +0.124 C 
BRANCH  30  31
ATOM     31  C   UNL     1       4.702   3.023  24.589  0.00  0.00    +0.049 C 
BRANCH  31  32
ATOM     32  C   UNL     1       4.181   3.084  23.156  0.00  0.00    +0.157 C 
BRANCH  32  33
ATOM     33  O   UNL     1       2.810   2.704  23.141  0.00  0.00    -0.395 OA
ATOM     34  H   UNL     1       2.470   2.844  22.240  0.00  0.00    +0.209 HD
ENDBRANCH  32  33
ENDBRANCH  31  32
ENDBRANCH  30  31
ENDBRANCH  17  30
TORSDOF 7
ENDMDL
MODEL 5
REMARK VINA RESULT:      -6.8      2.341      3.745
REMARK  Name = 
REMARK  8 active torsions:
REMARK  status: ('A' for Active; 'I' for Inactive)
REMARK    1  A    between atoms: C_1  and  O_2
REMARK    2  A    between atoms: O_2  and  C_3
REMARK    3  A    between atoms: C_8  and  C_9
REMARK    4  A    between atoms: C_17  and  O_18
REMARK    5  A    between atoms: N_20  and  C_21
REMARK    6  A    between atoms: C_21  and  C_22
REMARK    7  A    between atoms: C_22  and  C_23
REMARK    8  A    between atoms: C_23  and  O_24
REMARK                            x       y       z     vdW  Elec       q    Type
REMARK                         _______ _______ _______ _____ _____    ______ ____
ROOT
ATOM      1  C   UNL     1       7.959  -0.903  24.505  0.00  0.00    +0.001 A 
ATOM      2  C   UNL     1       8.202  -2.287  24.391  0.00  0.00    +0.060 A 
ATOM      3  C   UNL     1       7.969  -3.166  23.262  0.00  0.00    +0.260 A 
ATOM      4  N   UNL     1       8.450  -4.384  23.694  0.00  0.00    -0.289 N 
ATOM      5  H   UNL     1       8.262  -5.240  23.200  0.00  0.00    +0.172 HD
ATOM      6  C   UNL     1       8.693  -4.443  25.029  0.00  0.00    +0.260 A 
ATOM      7  O   UNL     1       9.229  -5.405  25.600  0.00  0.00    -0.267 OA
ATOM      8  O   UNL     1       7.290  -3.042  22.251  0.00  0.00    -0.267 OA
ATOM      9  C   UNL     1       8.221  -3.189  25.475  0.00  0.00    +0.062 A 
ATOM     10  C   UNL     1       7.264  -2.845  26.460  0.00  0.00    +0.021 A 
ATOM     11  C   UNL     1       6.426  -3.822  26.990  0.00  0.00    +0.012 A 
ATOM     12  C   UNL     1       6.345  -5.235  27.002  0.00  0.00    +0.056 A 
ATOM     13  C   UNL     1       5.159  -5.850  27.416  0.00  0.00    +0.118 A 
ATOM     14  C   UNL     1       4.099  -5.104  27.908  0.00  0.00    +0.047 A 
ATOM     15  C   UNL     1       4.186  -3.710  27.993  0.00  0.00    +0.030 A 
ATOM     16  C   UNL     1       5.342  -3.081  27.497  0.00  0.00    +0.050 A 
ATOM     17  N   UNL     1       5.623  -1.728  27.295  0.00  0.00    -0.340 N 
ATOM     18  C   UNL     1       6.674  -1.609  26.420  0.00  0.00    +0.051 A 
ATOM     19  C   UNL     1       7.097  -0.579  25.573  0.00  0.00    +0.035 A 
ENDROOT
BRANCH   1  21
ATOM     20  C   UNL     1       8.459   1.112  22.971  0.00  0.00    +0.128 A 
ATOM     21  C   UNL     1       8.880   0.112  23.895  0.00  0.00    +0.025 A 
ATOM     22  C   UNL     1      10.189   0.266  24.413  0.00  0.00    +0.012 A 
ATOM     23  C   UNL     1      10.990   1.381  24.124  0.00  0.00    +0.001 A 
ATOM     24  C   UNL     1      10.501   2.398  23.320  0.00  0.00    +0.004 A 
ATOM     25  C   UNL     1       9.242   2.262  22.744  0.00  0.00    +0.046 A 
BRANCH  20  27
ATOM     26  C   UNL     1       6.301   2.022  22.598  0.00  0.00    +0.277 C 
ATOM     27  O   UNL     1       7.238   0.973  22.351  0.00  0.00    -0.495 OA
ENDBRANCH  20  27
ENDBRANCH   1  21
BRANCH  13  28
ATOM     28  O   UNL     1       5.082  -7.203  27.268  0.00  0.00    -0.507 OA
ATOM     29  H   UNL     1       5.861  -7.601  27.687  0.00  0.00    +0.292 HD
ENDBRANCH  13  28
BRANCH  17  30
ATOM     30  C   UNL     1       4.761  -0.629  27.687  0.00  0.00    +0.124 C 
BRANCH  30  31
ATOM     31  C   UNL     1       5.274   0.124  28.904  0.00  0.00    +0.049 C 
BRANCH  31  32
ATOM     32  C   UNL     1       6.059   1.384  28.555  0.00  0.00    +0.157 C 
BRANCH  32  33
ATOM     33  O   UNL     1       7.451   1.109  28.649  0.00  0.00    -0.395 OA
ATOM     34  H   UNL     1       7.572   0.146  28.592  0.00  0.00    +0.209 HD
ENDBRANCH  32  33
ENDBRANCH  31  32
ENDBRANCH  30  31
ENDBRANCH  17  30
TORSDOF 7
ENDMDL
MODEL 6
REMARK VINA RESULT:      -6.6      2.900      6.146
REMARK  Name = 
REMARK  8 active torsions:
REMARK  status: ('A' for Active; 'I' for Inactive)
REMARK    1  A    between atoms: C_1  and  O_2
REMARK    2  A    between atoms: O_2  and  C_3
REMARK    3  A    between atoms: C_8  and  C_9
REMARK    4  A    between atoms: C_17  and  O_18
REMARK    5  A    between atoms: N_20  and  C_21
REMARK    6  A    between atoms: C_21  and  C_22
REMARK    7  A    between atoms: C_22  and  C_23
REMARK    8  A    between atoms: C_23  and  O_24
REMARK                            x       y       z     vdW  Elec       q    Type
REMARK                         _______ _______ _______ _____ _____    ______ ____
ROOT
ATOM      1  C   UNL     1       7.129  -0.603  24.489  0.00  0.00    +0.001 A 
ATOM      2  C   UNL     1       6.181  -0.576  25.531  0.00  0.00    +0.060 A 
ATOM      3  C   UNL     1       6.362  -0.213  26.923  0.00  0.00    +0.260 A 
ATOM      4  N   UNL     1       5.091  -0.308  27.452  0.00  0.00    -0.289 N 
ATOM      5  H   UNL     1       4.921  -0.295  28.444  0.00  0.00    +0.172 HD
ATOM      6  C   UNL     1       4.202  -0.947  26.647  0.00  0.00    +0.260 A 
ATOM      7  O   UNL     1       2.988  -1.041  26.885  0.00  0.00    -0.267 OA
ATOM      8  O   UNL     1       7.363  -0.099  27.619  0.00  0.00    -0.267 OA
ATOM      9  C   UNL     1       5.019  -1.376  25.578  0.00  0.00    +0.062 A 
ATOM     10  C   UNL     1       5.244  -2.660  25.029  0.00  0.00    +0.021 A 
ATOM     11  C   UNL     1       4.813  -3.795  25.708  0.00  0.00    +0.012 A 
ATOM     12  C   UNL     1       3.959  -4.102  26.795  0.00  0.00    +0.056 A 
ATOM     13  C   UNL     1       4.012  -5.374  27.372  0.00  0.00    +0.118 A 
ATOM     14  C   UNL     1       4.813  -6.371  26.835  0.00  0.00    +0.047 A 
ATOM     15  C   UNL     1       5.599  -6.123  25.704  0.00  0.00    +0.030 A 
ATOM     16  C   UNL     1       5.615  -4.821  25.173  0.00  0.00    +0.050 A 
ATOM     17  N   UNL     1       6.420  -4.254  24.183  0.00  0.00    -0.340 N 
ATOM     18  C   UNL     1       6.376  -2.886  24.291  0.00  0.00    +0.051 A 
ATOM     19  C   UNL     1       7.244  -1.869  23.878  0.00  0.00    +0.035 A 
ENDROOT
BRANCH   1  21
ATOM     20  C   UNL     1       8.873   1.229  23.975  0.00  0.00    +0.128 A 
ATOM     21  C   UNL     1       7.583   0.651  23.803  0.00  0.00    +0.025 A 
ATOM     22  C   UNL     1       6.805   1.187  22.746  0.00  0.00    +0.012 A 
ATOM     23  C   UNL     1       7.302   2.151  21.857  0.00  0.00    +0.001 A 
ATOM     24  C   UNL     1       8.607   2.602  21.977  0.00  0.00    +0.004 A 
ATOM     25  C   UNL     1       9.387   2.144  23.034  0.00  0.00    +0.046 A 
BRANCH  20  27
ATOM     26  C   UNL     1      11.008   0.535  24.739  0.00  0.00    +0.277 C 
ATOM     27  O   UNL     1       9.644   0.829  25.043  0.00  0.00    -0.495 OA
ENDBRANCH  20  27
ENDBRANCH   1  21
BRANCH  13  28
ATOM     28  O   UNL     1       3.281  -5.569  28.505  0.00  0.00    -0.507 OA
ATOM     29  H   UNL     1       3.519  -6.432  28.879  0.00  0.00    +0.292 HD
ENDBRANCH  13  28
BRANCH  17  30
ATOM     30  C   UNL     1       7.387  -4.976  23.378  0.00  0.00    +0.124 C 
BRANCH  30  31
ATOM     31  C   UNL     1       7.146  -4.829  21.885  0.00  0.00    +0.049 C 
BRANCH  31  32
ATOM     32  C   UNL     1       6.087  -5.782  21.342  0.00  0.00    +0.157 C 
BRANCH  32  33
ATOM     33  O   UNL     1       6.056  -6.955  22.147  0.00  0.00    -0.395 OA
ATOM     34  H   UNL     1       5.529  -7.626  21.681  0.00  0.00    +0.209 HD
ENDBRANCH  32  33
ENDBRANCH  31  32
ENDBRANCH  30  31
ENDBRANCH  17  30
TORSDOF 7
ENDMDL
MODEL 7
REMARK VINA RESULT:      -6.5      1.819      2.417
REMARK  Name = 
REMARK  8 active torsions:
REMARK  status: ('A' for Active; 'I' for Inactive)
REMARK    1  A    between atoms: C_1  and  O_2
REMARK    2  A    between atoms: O_2  and  C_3
REMARK    3  A    between atoms: C_8  and  C_9
REMARK    4  A    between atoms: C_17  and  O_18
REMARK    5  A    between atoms: N_20  and  C_21
REMARK    6  A    between atoms: C_21  and  C_22
REMARK    7  A    between atoms: C_22  and  C_23
REMARK    8  A    between atoms: C_23  and  O_24
REMARK                            x       y       z     vdW  Elec       q    Type
REMARK                         _______ _______ _______ _____ _____    ______ ____
ROOT
ATOM      1  C   UNL     1       8.228   2.878  24.518  0.00  0.00    +0.001 A 
ATOM      2  C   UNL     1       8.504   2.150  23.343  0.00  0.00    +0.060 A 
ATOM      3  C   UNL     1       7.883   2.254  22.037  0.00  0.00    +0.260 A 
ATOM      4  N   UNL     1       8.593   1.354  21.269  0.00  0.00    -0.289 N 
ATOM      5  H   UNL     1       8.278   1.063  20.358  0.00  0.00    +0.172 HD
ATOM      6  C   UNL     1       9.380   0.511  21.986  0.00  0.00    +0.260 A 
ATOM      7  O   UNL     1      10.178  -0.295  21.484  0.00  0.00    -0.267 OA
ATOM      8  O   UNL     1       6.833   2.761  21.664  0.00  0.00    -0.267 OA
ATOM      9  C   UNL     1       9.047   0.849  23.316  0.00  0.00    +0.062 A 
ATOM     10  C   UNL     1       8.572   0.060  24.391  0.00  0.00    +0.021 A 
ATOM     11  C   UNL     1       8.113  -1.233  24.159  0.00  0.00    +0.012 A 
ATOM     12  C   UNL     1       8.152  -2.183  23.111  0.00  0.00    +0.056 A 
ATOM     13  C   UNL     1       7.303  -3.293  23.159  0.00  0.00    +0.118 A 
ATOM     14  C   UNL     1       6.497  -3.530  24.262  0.00  0.00    +0.047 A 
ATOM     15  C   UNL     1       6.505  -2.655  25.354  0.00  0.00    +0.030 A 
ATOM     16  C   UNL     1       7.292  -1.492  25.273  0.00  0.00    +0.050 A 
ATOM     17  N   UNL     1       7.358  -0.381  26.115  0.00  0.00    -0.340 N 
ATOM     18  C   UNL     1       7.929   0.668  25.437  0.00  0.00    +0.051 A 
ATOM     19  C   UNL     1       7.875   2.056  25.609  0.00  0.00    +0.035 A 
ENDROOT
BRANCH   1  21
ATOM     20  C   UNL     1       9.862   4.820  24.047  0.00  0.00    +0.128 A 
ATOM     21  C   UNL     1       8.724   4.281  24.713  0.00  0.00    +0.025 A 
ATOM     22  C   UNL     1       7.915   5.217  25.403  0.00  0.00    +0.012 A 
ATOM     23  C   UNL     1       8.150   6.598  25.355  0.00  0.00    +0.001 A 
ATOM     24  C   UNL     1       9.194   7.100  24.594  0.00  0.00    +0.004 A 
ATOM     25  C   UNL     1      10.047   6.214  23.946  0.00  0.00    +0.046 A 
BRANCH  20  27
ATOM     26  C   UNL     1      12.086   4.442  23.315  0.00  0.00    +0.277 C 
ATOM     27  O   UNL     1      10.748   3.958  23.441  0.00  0.00    -0.495 OA
ENDBRANCH  20  27
ENDBRANCH   1  21
BRANCH  13  28
ATOM     28  O   UNL     1       7.273  -4.095  22.058  0.00  0.00    -0.507 OA
ATOM     29  H   UNL     1       6.382  -4.057  21.675  0.00  0.00    +0.292 HD
ENDBRANCH  13  28
BRANCH  17  30
ATOM     30  C   UNL     1       6.662  -0.249  27.380  0.00  0.00    +0.124 C 
BRANCH  30  31
ATOM     31  C   UNL     1       5.152  -0.180  27.224  0.00  0.00    +0.049 C 
BRANCH  31  32
ATOM     32  C   UNL     1       4.617   1.242  27.096  0.00  0.00    +0.157 C 
BRANCH  32  33
ATOM     33  O   UNL     1       3.890   1.361  25.879  0.00  0.00    -0.395 OA
ATOM     34  H   UNL     1       3.329   0.572  25.785  0.00  0.00    +0.209 HD
ENDBRANCH  32  33
ENDBRANCH  31  32
ENDBRANCH  30  31
ENDBRANCH  17  30
TORSDOF 7
ENDMDL
MODEL 8
REMARK VINA RESULT:      -6.5      3.318      7.948
REMARK  Name = 
REMARK  8 active torsions:
REMARK  status: ('A' for Active; 'I' for Inactive)
REMARK    1  A    between atoms: C_1  and  O_2
REMARK    2  A    between atoms: O_2  and  C_3
REMARK    3  A    between atoms: C_8  and  C_9
REMARK    4  A    between atoms: C_17  and  O_18
REMARK    5  A    between atoms: N_20  and  C_21
REMARK    6  A    between atoms: C_21  and  C_22
REMARK    7  A    between atoms: C_22  and  C_23
REMARK    8  A    between atoms: C_23  and  O_24
REMARK                            x       y       z     vdW  Elec       q    Type
REMARK                         _______ _______ _______ _____ _____    ______ ____
ROOT
ATOM      1  C   UNL     1       5.709  -3.923  26.728  0.00  0.00    +0.001 A 
ATOM      2  C   UNL     1       6.684  -4.465  25.865  0.00  0.00    +0.060 A 
ATOM      3  C   UNL     1       8.015  -4.948  26.178  0.00  0.00    +0.260 A 
ATOM      4  N   UNL     1       8.482  -5.417  24.968  0.00  0.00    -0.289 N 
ATOM      5  H   UNL     1       9.451  -5.649  24.822  0.00  0.00    +0.172 HD
ATOM      6  C   UNL     1       7.734  -5.039  23.900  0.00  0.00    +0.260 A 
ATOM      7  O   UNL     1       7.917  -5.444  22.741  0.00  0.00    -0.267 OA
ATOM      8  O   UNL     1       8.739  -4.787  27.152  0.00  0.00    -0.267 OA
ATOM      9  C   UNL     1       6.785  -4.175  24.489  0.00  0.00    +0.062 A 
ATOM     10  C   UNL     1       6.444  -2.830  24.209  0.00  0.00    +0.021 A 
ATOM     11  C   UNL     1       7.259  -2.060  23.386  0.00  0.00    +0.012 A 
ATOM     12  C   UNL     1       8.331  -2.268  22.486  0.00  0.00    +0.056 A 
ATOM     13  C   UNL     1       9.091  -1.176  22.059  0.00  0.00    +0.118 A 
ATOM     14  C   UNL     1       8.751   0.119  22.421  0.00  0.00    +0.047 A 
ATOM     15  C   UNL     1       7.639   0.363  23.237  0.00  0.00    +0.030 A 
ATOM     16  C   UNL     1       6.924  -0.739  23.739  0.00  0.00    +0.050 A 
ATOM     17  N   UNL     1       5.906  -0.801  24.693  0.00  0.00    -0.340 N 
ATOM     18  C   UNL     1       5.809  -2.086  25.168  0.00  0.00    +0.051 A 
ATOM     19  C   UNL     1       5.298  -2.627  26.354  0.00  0.00    +0.035 A 
ENDROOT
BRANCH   1  21
ATOM     20  C   UNL     1       3.874  -5.690  27.139  0.00  0.00    +0.128 A 
ATOM     21  C   UNL     1       4.871  -4.793  27.617  0.00  0.00    +0.025 A 
ATOM     22  C   UNL     1       5.218  -4.932  28.984  0.00  0.00    +0.012 A 
ATOM     23  C   UNL     1       4.696  -5.949  29.796  0.00  0.00    +0.001 A 
ATOM     24  C   UNL     1       3.821  -6.883  29.265  0.00  0.00    +0.004 A 
ATOM     25  C   UNL     1       3.410  -6.752  27.942  0.00  0.00    +0.046 A 
BRANCH  20  27
ATOM     26  C   UNL     1       3.728  -6.625  24.964  0.00  0.00    +0.277 C 
ATOM     27  O   UNL     1       3.415  -5.548  25.848  0.00  0.00    -0.495 OA
ENDBRANCH  20  27
ENDBRANCH   1  21
BRANCH  13  28
ATOM     28  O   UNL     1      10.199  -1.448  21.314  0.00  0.00    -0.507 OA
ATOM     29  H   UNL     1      10.120  -2.350  20.965  0.00  0.00    +0.292 HD
ENDBRANCH  13  28
BRANCH  17  30
ATOM     30  C   UNL     1       5.270   0.346  25.311  0.00  0.00    +0.124 C 
BRANCH  30  31
ATOM     31  C   UNL     1       5.833   0.669  26.686  0.00  0.00    +0.049 C 
BRANCH  31  32
ATOM     32  C   UNL     1       7.065   1.566  26.644  0.00  0.00    +0.157 C 
BRANCH  32  33
ATOM     33  O   UNL     1       8.234   0.760  26.722  0.00  0.00    -0.395 OA
ATOM     34  H   UNL     1       7.984  -0.095  27.113  0.00  0.00    +0.209 HD
ENDBRANCH  32  33
ENDBRANCH  31  32
ENDBRANCH  30  31
ENDBRANCH  17  30
TORSDOF 7
ENDMDL
MODEL 9
REMARK VINA RESULT:      -6.4      3.178      4.513
REMARK  Name = 
REMARK  8 active torsions:
REMARK  status: ('A' for Active; 'I' for Inactive)
REMARK    1  A    between atoms: C_1  and  O_2
REMARK    2  A    between atoms: O_2  and  C_3
REMARK    3  A    between atoms: C_8  and  C_9
REMARK    4  A    between atoms: C_17  and  O_18
REMARK    5  A    between atoms: N_20  and  C_21
REMARK    6  A    between atoms: C_21  and  C_22
REMARK    7  A    between atoms: C_22  and  C_23
REMARK    8  A    between atoms: C_23  and  O_24
REMARK                            x       y       z     vdW  Elec       q    Type
REMARK                         _______ _______ _______ _____ _____    ______ ____
ROOT
ATOM      1  C   UNL     1       7.044  -0.829  24.108  0.00  0.00    +0.001 A 
ATOM      2  C   UNL     1       7.230  -2.192  23.801  0.00  0.00    +0.060 A 
ATOM      3  C   UNL     1       6.684  -2.965  22.702  0.00  0.00    +0.260 A 
ATOM      4  N   UNL     1       7.253  -4.211  22.868  0.00  0.00    -0.289 N 
ATOM      5  H   UNL     1       6.925  -5.020  22.366  0.00  0.00    +0.172 HD
ATOM      6  C   UNL     1       7.855  -4.391  24.072  0.00  0.00    +0.260 A 
ATOM      7  O   UNL     1       8.517  -5.394  24.378  0.00  0.00    -0.267 OA
ATOM      8  O   UNL     1       5.753  -2.757  21.935  0.00  0.00    -0.267 OA
ATOM      9  C   UNL     1       7.538  -3.192  24.748  0.00  0.00    +0.062 A 
ATOM     10  C   UNL     1       6.895  -2.957  25.986  0.00  0.00    +0.021 A 
ATOM     11  C   UNL     1       6.225  -3.992  26.632  0.00  0.00    +0.012 A 
ATOM     12  C   UNL     1       6.136  -5.401  26.534  0.00  0.00    +0.056 A 
ATOM     13  C   UNL     1       5.105  -6.070  27.199  0.00  0.00    +0.118 A 
ATOM     14  C   UNL     1       4.230  -5.391  28.033  0.00  0.00    +0.047 A 
ATOM     15  C   UNL     1       4.352  -4.009  28.222  0.00  0.00    +0.030 A 
ATOM     16  C   UNL     1       5.333  -3.319  27.488  0.00  0.00    +0.050 A 
ATOM     17  N   UNL     1       5.562  -1.949  27.344  0.00  0.00    -0.340 N 
ATOM     18  C   UNL     1       6.331  -1.732  26.228  0.00  0.00    +0.051 A 
ATOM     19  C   UNL     1       6.514  -0.620  25.398  0.00  0.00    +0.035 A 
ENDROOT
BRANCH   1  21
ATOM     20  C   UNL     1       9.188   0.381  23.334  0.00  0.00    +0.128 A 
ATOM     21  C   UNL     1       7.770   0.253  23.365  0.00  0.00    +0.025 A 
ATOM     22  C   UNL     1       7.059   1.067  22.448  0.00  0.00    +0.012 A 
ATOM     23  C   UNL     1       7.702   1.872  21.497  0.00  0.00    +0.001 A 
ATOM     24  C   UNL     1       9.085   1.877  21.411  0.00  0.00    +0.004 A 
ATOM     25  C   UNL     1       9.824   1.137  22.328  0.00  0.00    +0.046 A 
BRANCH  20  27
ATOM     26  C   UNL     1      10.953   0.460  24.916  0.00  0.00    +0.277 C 
ATOM     27  O   UNL     1       9.938  -0.304  24.264  0.00  0.00    -0.495 OA
ENDBRANCH  20  27
ENDBRANCH   1  21
BRANCH  13  28
ATOM     28  O   UNL     1       4.975  -7.404  26.951  0.00  0.00    -0.507 OA
ATOM     29  H   UNL     1       4.060  -7.577  26.677  0.00  0.00    +0.292 HD
ENDBRANCH  13  28
BRANCH  17  30
ATOM     30  C   UNL     1       4.854  -0.904  28.061  0.00  0.00    +0.124 C 
BRANCH  30  31
ATOM     31  C   UNL     1       3.507  -0.568  27.443  0.00  0.00    +0.049 C 
BRANCH  31  32
ATOM     32  C   UNL     1       3.284   0.928  27.246  0.00  0.00    +0.157 C 
BRANCH  32  33
ATOM     33  O   UNL     1       2.238   1.125  26.303  0.00  0.00    -0.395 OA
ATOM     34  H   UNL     1       1.747   0.289  26.218  0.00  0.00    +0.209 HD
ENDBRANCH  32  33
ENDBRANCH  31  32
ENDBRANCH  30  31
ENDBRANCH  17  30
TORSDOF 7
ENDMDL
