MODEL 1
REMARK VINA RESULT:      -7.1      0.000      0.000
REMARK  Name = 
REMARK  18 active torsions:
REMARK  status: ('A' for Active; 'I' for Inactive)
REMARK    1  A    between atoms: O_1  and  C_2
REMARK    2  A    between atoms: C_2  and  C_3
REMARK    3  A    between atoms: C_6  and  O_8
REMARK    4  A    between atoms: O_8  and  C_9
REMARK    5  A    between atoms: C_11  and  O_13
REMARK    6  A    between atoms: C_14  and  O_16
REMARK    7  A    between atoms: C_17  and  O_19
REMARK    8  A    between atoms: O_19  and  C_20
REMARK    9  A    between atoms: C_22  and  O_24
REMARK   10  A    between atoms: C_25  and  O_27
REMARK   11  A    between atoms: C_28  and  O_30
REMARK   12  A    between atoms: C_32  and  C_34
REMARK   13  A    between atoms: C_34  and  O_35
REMARK   14  A    between atoms: C_37  and  C_39
REMARK   15  A    between atoms: C_39  and  O_40
REMARK   16  A    between atoms: C_41  and  O_43
REMARK   17  A    between atoms: C_44  and  O_46
REMARK   18  A    between atoms: C_47  and  O_49
REMARK                            x       y       z     vdW  Elec       q    Type
REMARK                         _______ _______ _______ _____ _____    ______ ____
ROOT
ATOM      1  C   UNL     1       6.875  -2.596  25.230  0.00  0.00    +0.183 C 
ATOM      2  C   UNL     1       6.265  -1.187  25.488  0.00  0.00    +0.178 C 
ATOM      3  O   UNL     1       5.658  -0.579  24.334  0.00  0.00    -0.341 OA
ATOM      4  C   UNL     1       6.532  -0.516  23.201  0.00  0.00    +0.282 C 
ATOM      5  C   UNL     1       6.772  -1.969  22.765  0.00  0.00    +0.201 C 
ATOM      6  C   UNL     1       7.579  -2.670  23.847  0.00  0.00    +0.179 C 
ENDROOT
BRANCH   6   7
ATOM      7  O   UNL     1       8.917  -2.165  23.956  0.00  0.00    -0.386 OA
ATOM      8  H   UNL     1       9.027  -1.739  24.824  0.00  0.00    +0.210 HD
ENDBRANCH   6   7
BRANCH   5   9
ATOM      9  O   UNL     1       5.529  -2.646  22.557  0.00  0.00    -0.384 OA
ATOM     10  H   UNL     1       5.654  -3.290  21.823  0.00  0.00    +0.210 HD
ENDBRANCH   5   9
BRANCH   4  11
ATOM     11  O   UNL     1       7.725   0.232  23.507  0.00  0.00    -0.340 OA
BRANCH  11  12
ATOM     12  C   UNL     1       7.988   1.359  22.643  0.00  0.00    +0.183 C 
ATOM     13  C   UNL     1       9.319   1.149  21.866  0.00  0.00    +0.178 C 
ATOM     14  O   UNL     1      10.484   1.205  22.722  0.00  0.00    -0.341 OA
ATOM     15  C   UNL     1      10.564   2.347  23.572  0.00  0.00    +0.279 C 
ATOM     16  C   UNL     1       9.299   2.513  24.419  0.00  0.00    +0.201 C 
ATOM     17  C   UNL     1       8.092   2.644  23.475  0.00  0.00    +0.179 C 
BRANCH  17  18
ATOM     18  O   UNL     1       8.155   3.790  22.619  0.00  0.00    -0.386 OA
ATOM     19  H   UNL     1       8.112   3.485  21.686  0.00  0.00    +0.210 HD
ENDBRANCH  17  18
BRANCH  16  20
ATOM     20  O   UNL     1       9.168   1.400  25.323  0.00  0.00    -0.384 OA
ATOM     21  H   UNL     1       9.325   0.575  24.792  0.00  0.00    +0.210 HD
ENDBRANCH  16  20
BRANCH  15  22
ATOM     22  O   UNL     1      10.794   3.529  22.813  0.00  0.00    -0.365 OA
ATOM     23  H   UNL     1      11.703   3.445  22.468  0.00  0.00    +0.213 HD
ENDBRANCH  15  22
BRANCH  13  24
ATOM     24  C   UNL     1       9.401  -0.203  21.143  0.00  0.00    +0.190 C 
BRANCH  24  25
ATOM     25  O   UNL     1      10.265  -1.089  21.867  0.00  0.00    -0.392 OA
ATOM     26  H   UNL     1      10.554  -0.590  22.655  0.00  0.00    +0.210 HD
ENDBRANCH  24  25
ENDBRANCH  13  24
ENDBRANCH  11  12
ENDBRANCH   4  11
BRANCH   2  27
ATOM     27  C   UNL     1       5.215  -1.139  26.601  0.00  0.00    +0.190 C 
BRANCH  27  28
ATOM     28  O   UNL     1       3.958  -1.579  26.064  0.00  0.00    -0.392 OA
ATOM     29  H   UNL     1       3.771  -2.437  26.494  0.00  0.00    +0.210 HD
ENDBRANCH  27  28
ENDBRANCH   2  27
BRANCH   1  30
ATOM     30  O   UNL     1       5.951  -3.692  25.419  0.00  0.00    -0.340 OA
BRANCH  30  35
ATOM     31  C   UNL     1       4.978  -6.758  26.049  0.00  0.00    +0.178 C 
ATOM     32  C   UNL     1       4.857  -6.498  27.572  0.00  0.00    +0.177 C 
ATOM     33  C   UNL     1       5.723  -5.380  28.168  0.00  0.00    +0.179 C 
ATOM     34  C   UNL     1       6.941  -5.030  27.328  0.00  0.00    +0.201 C 
ATOM     35  C   UNL     1       6.587  -4.928  25.824  0.00  0.00    +0.282 C 
ATOM     36  O   UNL     1       5.960  -6.075  25.285  0.00  0.00    -0.341 OA
BRANCH  34  37
ATOM     37  O   UNL     1       8.006  -5.955  27.571  0.00  0.00    -0.384 OA
ATOM     38  H   UNL     1       7.615  -6.843  27.662  0.00  0.00    +0.210 HD
ENDBRANCH  34  37
BRANCH  33  39
ATOM     39  O   UNL     1       4.922  -4.212  28.389  0.00  0.00    -0.386 OA
ATOM     40  H   UNL     1       3.985  -4.476  28.358  0.00  0.00    +0.210 HD
ENDBRANCH  33  39
BRANCH  32  41
ATOM     41  O   UNL     1       5.212  -7.750  28.219  0.00  0.00    -0.386 OA
ATOM     42  H   UNL     1       5.216  -8.462  27.558  0.00  0.00    +0.210 HD
ENDBRANCH  32  41
BRANCH  31  43
ATOM     43  C   UNL     1       3.650  -6.717  25.271  0.00  0.00    +0.190 C 
BRANCH  43  44
ATOM     44  O   UNL     1       3.610  -7.626  24.177  0.00  0.00    -0.392 OA
ATOM     45  H   UNL     1       4.171  -7.232  23.482  0.00  0.00    +0.210 HD
ENDBRANCH  43  44
ENDBRANCH  31  43
ENDBRANCH  30  35
ENDBRANCH   1  30
TORSDOF 18
ENDMDL
MODEL 2
REMARK VINA RESULT:      -6.8      1.833      3.801
REMARK  Name = 
REMARK  18 active torsions:
REMARK  status: ('A' for Active; 'I' for Inactive)
REMARK    1  A    between atoms: O_1  and  C_2
REMARK    2  A    between atoms: C_2  and  C_3
REMARK    3  A    between atoms: C_6  and  O_8
REMARK    4  A    between atoms: O_8  and  C_9
REMARK    5  A    between atoms: C_11  and  O_13
REMARK    6  A    between atoms: C_14  and  O_16
REMARK    7  A    between atoms: C_17  and  O_19
REMARK    8  A    between atoms: O_19  and  C_20
REMARK    9  A    between atoms: C_22  and  O_24
REMARK   10  A    between atoms: C_25  and  O_27
REMARK   11  A    between atoms: C_28  and  O_30
REMARK   12  A    between atoms: C_32  and  C_34
REMARK   13  A    between atoms: C_34  and  O_35
REMARK   14  A    between atoms: C_37  and  C_39
REMARK   15  A    between atoms: C_39  and  O_40
REMARK   16  A    between atoms: C_41  and  O_43
REMARK   17  A    between atoms: C_44  and  O_46
REMARK   18  A    between atoms: C_47  and  O_49
REMARK                            x       y       z     vdW  Elec       q    Type
REMARK                         _______ _______ _______ _____ _____    ______ ____
ROOT
ATOM      1  C   UNL     1       6.424  -3.973  24.471  0.00  0.00    +0.183 C 
ATOM      2  C   UNL     1       7.414  -3.800  23.281  0.00  0.00    +0.178 C 
ATOM      3  O   UNL     1       8.803  -3.793  23.655  0.00  0.00    -0.341 OA
ATOM      4  C   UNL     1       9.111  -2.831  24.670  0.00  0.00    +0.282 C 
ATOM      5  C   UNL     1       8.392  -3.304  25.941  0.00  0.00    +0.201 C 
ATOM      6  C   UNL     1       6.892  -3.180  25.722  0.00  0.00    +0.179 C 
ENDROOT
BRANCH   6   7
ATOM      7  O   UNL     1       6.458  -1.817  25.622  0.00  0.00    -0.386 OA
ATOM      8  H   UNL     1       5.513  -1.765  25.852  0.00  0.00    +0.210 HD
ENDBRANCH   6   7
BRANCH   5   9
ATOM      9  O   UNL     1       8.737  -4.660  26.242  0.00  0.00    -0.384 OA
ATOM     10  H   UNL     1       8.428  -5.224  25.497  0.00  0.00    +0.210 HD
ENDBRANCH   5   9
BRANCH   4  11
ATOM     11  O   UNL     1       8.772  -1.498  24.240  0.00  0.00    -0.340 OA
BRANCH  11  12
ATOM     12  C   UNL     1       9.580  -0.970  23.165  0.00  0.00    +0.183 C 
ATOM     13  C   UNL     1      10.155   0.422  23.550  0.00  0.00    +0.178 C 
ATOM     14  O   UNL     1       9.138   1.448  23.635  0.00  0.00    -0.341 OA
ATOM     15  C   UNL     1       8.277   1.548  22.503  0.00  0.00    +0.279 C 
ATOM     16  C   UNL     1       7.621   0.205  22.168  0.00  0.00    +0.201 C 
ATOM     17  C   UNL     1       8.730  -0.825  21.894  0.00  0.00    +0.179 C 
BRANCH  17  18
ATOM     18  O   UNL     1       9.559  -0.492  20.775  0.00  0.00    -0.386 OA
ATOM     19  H   UNL     1       8.980  -0.208  20.033  0.00  0.00    +0.210 HD
ENDBRANCH  17  18
BRANCH  16  20
ATOM     20  O   UNL     1       6.756  -0.198  23.246  0.00  0.00    -0.384 OA
ATOM     21  H   UNL     1       5.822  -0.076  22.930  0.00  0.00    +0.210 HD
ENDBRANCH  16  20
BRANCH  15  22
ATOM     22  O   UNL     1       8.984   2.035  21.368  0.00  0.00    -0.365 OA
ATOM     23  H   UNL     1       9.909   1.750  21.495  0.00  0.00    +0.213 HD
ENDBRANCH  15  22
BRANCH  13  24
ATOM     24  C   UNL     1      10.869   0.436  24.910  0.00  0.00    +0.190 C 
BRANCH  24  25
ATOM     25  O   UNL     1       9.909   0.295  25.964  0.00  0.00    -0.392 OA
ATOM     26  H   UNL     1       9.217  -0.298  25.614  0.00  0.00    +0.210 HD
ENDBRANCH  24  25
ENDBRANCH  13  24
ENDBRANCH  11  12
ENDBRANCH   4  11
BRANCH   2  27
ATOM     27  C   UNL     1       7.273  -4.850  22.175  0.00  0.00    +0.190 C 
BRANCH  27  28
ATOM     28  O   UNL     1       7.997  -6.027  22.565  0.00  0.00    -0.392 OA
ATOM     29  H   UNL     1       8.100  -6.558  21.750  0.00  0.00    +0.210 HD
ENDBRANCH  27  28
ENDBRANCH   2  27
BRANCH   1  30
ATOM     30  O   UNL     1       6.111  -5.347  24.795  0.00  0.00    -0.340 OA
BRANCH  30  35
ATOM     31  C   UNL     1       3.024  -4.755  25.722  0.00  0.00    +0.178 C 
ATOM     32  C   UNL     1       2.961  -6.017  26.620  0.00  0.00    +0.177 C 
ATOM     33  C   UNL     1       3.892  -7.184  26.263  0.00  0.00    +0.179 C 
ATOM     34  C   UNL     1       4.362  -7.177  24.818  0.00  0.00    +0.201 C 
ATOM     35  C   UNL     1       4.793  -5.761  24.363  0.00  0.00    +0.282 C 
ATOM     36  O   UNL     1       3.812  -4.759  24.542  0.00  0.00    -0.341 OA
BRANCH  34  37
ATOM     37  O   UNL     1       3.363  -7.739  23.959  0.00  0.00    -0.384 OA
ATOM     38  H   UNL     1       3.277  -8.684  24.182  0.00  0.00    +0.210 HD
ENDBRANCH  34  37
BRANCH  33  39
ATOM     39  O   UNL     1       5.019  -7.194  27.150  0.00  0.00    -0.386 OA
ATOM     40  H   UNL     1       4.950  -6.419  27.737  0.00  0.00    +0.210 HD
ENDBRANCH  33  39
BRANCH  32  41
ATOM     41  O   UNL     1       1.587  -6.486  26.553  0.00  0.00    -0.386 OA
ATOM     42  H   UNL     1       1.154  -6.331  27.409  0.00  0.00    +0.210 HD
ENDBRANCH  32  41
BRANCH  31  43
ATOM     43  C   UNL     1       3.282  -3.434  26.469  0.00  0.00    +0.190 C 
BRANCH  43  44
ATOM     44  O   UNL     1       3.476  -2.324  25.600  0.00  0.00    -0.392 OA
ATOM     45  H   UNL     1       4.082  -2.636  24.900  0.00  0.00    +0.210 HD
ENDBRANCH  43  44
ENDBRANCH  31  43
ENDBRANCH  30  35
ENDBRANCH   1  30
TORSDOF 18
ENDMDL
MODEL 3
REMARK VINA RESULT:      -6.8      2.299      7.889
REMARK  Name = 
REMARK  18 active torsions:
REMARK  status: ('A' for Active; 'I' for Inactive)
REMARK    1  A    between atoms: O_1  and  C_2
REMARK    2  A    between atoms: C_2  and  C_3
REMARK    3  A    between atoms: C_6  and  O_8
REMARK    4  A    between atoms: O_8  and  C_9
REMARK    5  A    between atoms: C_11  and  O_13
REMARK    6  A    between atoms: C_14  and  O_16
REMARK    7  A    between atoms: C_17  and  O_19
REMARK    8  A    between atoms: O_19  and  C_20
REMARK    9  A    between atoms: C_22  and  O_24
REMARK   10  A    between atoms: C_25  and  O_27
REMARK   11  A    between atoms: C_28  and  O_30
REMARK   12  A    between atoms: C_32  and  C_34
REMARK   13  A    between atoms: C_34  and  O_35
REMARK   14  A    between atoms: C_37  and  C_39
REMARK   15  A    between atoms: C_39  and  O_40
REMARK   16  A    between atoms: C_41  and  O_43
REMARK   17  A    between atoms: C_44  and  O_46
REMARK   18  A    between atoms: C_47  and  O_49
REMARK                            x       y       z     vdW  Elec       q    Type
REMARK                         _______ _______ _______ _____ _____    ______ ____
ROOT
ATOM      1  C   UNL     1       8.304   0.538  23.814  0.00  0.00    +0.183 C 
ATOM      2  C   UNL     1       9.304  -0.376  24.580  0.00  0.00    +0.178 C 
ATOM      3  O   UNL     1       9.973  -1.350  23.759  0.00  0.00    -0.341 OA
ATOM      4  C   UNL     1       9.072  -2.166  23.001  0.00  0.00    +0.282 C 
ATOM      5  C   UNL     1       8.400  -1.231  21.986  0.00  0.00    +0.201 C 
ATOM      6  C   UNL     1       7.509  -0.257  22.742  0.00  0.00    +0.179 C 
ENDROOT
BRANCH   6   7
ATOM      7  O   UNL     1       6.380  -0.898  23.352  0.00  0.00    -0.386 OA
ATOM      8  H   UNL     1       5.786  -1.229  22.655  0.00  0.00    +0.210 HD
ENDBRANCH   6   7
BRANCH   5   9
ATOM      9  O   UNL     1       9.382  -0.517  21.229  0.00  0.00    -0.384 OA
ATOM     10  H   UNL     1       9.527  -1.004  20.385  0.00  0.00    +0.210 HD
ENDBRANCH   5   9
BRANCH   4  11
ATOM     11  O   UNL     1       8.165  -2.877  23.866  0.00  0.00    -0.340 OA
BRANCH  11  12
ATOM     12  C   UNL     1       8.465  -4.277  24.061  0.00  0.00    +0.183 C 
ATOM     13  C   UNL     1       7.174  -5.064  24.425  0.00  0.00    +0.178 C 
ATOM     14  O   UNL     1       6.659  -4.727  25.734  0.00  0.00    -0.341 OA
ATOM     15  C   UNL     1       7.608  -4.785  26.796  0.00  0.00    +0.279 C 
ATOM     16  C   UNL     1       8.846  -3.933  26.499  0.00  0.00    +0.201 C 
ATOM     17  C   UNL     1       9.486  -4.440  25.196  0.00  0.00    +0.179 C 
BRANCH  17  18
ATOM     18  O   UNL     1       9.940  -5.796  25.269  0.00  0.00    -0.386 OA
ATOM     19  H   UNL     1      10.337  -5.944  26.156  0.00  0.00    +0.210 HD
ENDBRANCH  17  18
BRANCH  16  20
ATOM     20  O   UNL     1       8.474  -2.544  26.422  0.00  0.00    -0.384 OA
ATOM     21  H   UNL     1       8.097  -2.294  27.306  0.00  0.00    +0.210 HD
ENDBRANCH  16  20
BRANCH  15  22
ATOM     22  O   UNL     1       7.999  -6.129  27.055  0.00  0.00    -0.365 OA
ATOM     23  H   UNL     1       7.233  -6.543  27.497  0.00  0.00    +0.213 HD
ENDBRANCH  15  22
BRANCH  13  24
ATOM     24  C   UNL     1       6.013  -4.823  23.449  0.00  0.00    +0.190 C 
BRANCH  24  25
ATOM     25  O   UNL     1       5.467  -3.515  23.658  0.00  0.00    -0.392 OA
ATOM     26  H   UNL     1       5.230  -3.476  24.605  0.00  0.00    +0.210 HD
ENDBRANCH  24  25
ENDBRANCH  13  24
ENDBRANCH  11  12
ENDBRANCH   4  11
BRANCH   2  27
ATOM     27  C   UNL     1      10.404   0.373  25.338  0.00  0.00    +0.190 C 
BRANCH  27  28
ATOM     28  O   UNL     1      11.435   0.738  24.407  0.00  0.00    -0.392 OA
ATOM     29  H   UNL     1      12.136   0.064  24.510  0.00  0.00    +0.210 HD
ENDBRANCH  27  28
ENDBRANCH   2  27
BRANCH   1  30
ATOM     30  O   UNL     1       8.892   1.738  23.262  0.00  0.00    -0.340 OA
BRANCH  30  35
ATOM     31  C   UNL     1       6.506   3.307  24.871  0.00  0.00    +0.178 C 
ATOM     32  C   UNL     1       6.309   4.347  23.739  0.00  0.00    +0.177 C 
ATOM     33  C   UNL     1       7.507   4.627  22.821  0.00  0.00    +0.179 C 
ATOM     34  C   UNL     1       8.850   4.264  23.434  0.00  0.00    +0.201 C 
ATOM     35  C   UNL     1       8.803   2.887  24.139  0.00  0.00    +0.282 C 
ATOM     36  O   UNL     1       7.791   2.758  25.118  0.00  0.00    -0.341 OA
BRANCH  34  37
ATOM     37  O   UNL     1       9.304   5.304  24.307  0.00  0.00    -0.384 OA
ATOM     38  H   UNL     1       9.919   5.868  23.804  0.00  0.00    +0.210 HD
ENDBRANCH  34  37
BRANCH  33  39
ATOM     39  O   UNL     1       7.332   3.944  21.573  0.00  0.00    -0.386 OA
ATOM     40  H   UNL     1       6.384   3.960  21.348  0.00  0.00    +0.210 HD
ENDBRANCH  33  39
BRANCH  32  41
ATOM     41  O   UNL     1       5.933   5.587  24.397  0.00  0.00    -0.386 OA
ATOM     42  H   UNL     1       6.675   6.213  24.348  0.00  0.00    +0.210 HD
ENDBRANCH  32  41
BRANCH  31  43
ATOM     43  C   UNL     1       5.480   2.160  24.890  0.00  0.00    +0.190 C 
BRANCH  43  44
ATOM     44  O   UNL     1       4.934   1.871  23.609  0.00  0.00    -0.392 OA
ATOM     45  H   UNL     1       4.440   1.035  23.711  0.00  0.00    +0.210 HD
ENDBRANCH  43  44
ENDBRANCH  31  43
ENDBRANCH  30  35
ENDBRANCH   1  30
TORSDOF 18
ENDMDL
MODEL 4
REMARK VINA RESULT:      -6.8      1.693      2.820
REMARK  Name = 
REMARK  18 active torsions:
REMARK  status: ('A' for Active; 'I' for Inactive)
REMARK    1  A    between atoms: O_1  and  C_2
REMARK    2  A    between atoms: C_2  and  C_3
REMARK    3  A    between atoms: C_6  and  O_8
REMARK    4  A    between atoms: O_8  and  C_9
REMARK    5  A    between atoms: C_11  and  O_13
REMARK    6  A    between atoms: C_14  and  O_16
REMARK    7  A    between atoms: C_17  and  O_19
REMARK    8  A    between atoms: O_19  and  C_20
REMARK    9  A    between atoms: C_22  and  O_24
REMARK   10  A    between atoms: C_25  and  O_27
REMARK   11  A    between atoms: C_28  and  O_30
REMARK   12  A    between atoms: C_32  and  C_34
REMARK   13  A    between atoms: C_34  and  O_35
REMARK   14  A    between atoms: C_37  and  C_39
REMARK   15  A    between atoms: C_39  and  O_40
REMARK   16  A    between atoms: C_41  and  O_43
REMARK   17  A    between atoms: C_44  and  O_46
REMARK   18  A    between atoms: C_47  and  O_49
REMARK                            x       y       z     vdW  Elec       q    Type
REMARK                         _______ _______ _______ _____ _____    ______ ____
ROOT
ATOM      1  C   UNL     1       6.524  -3.582  24.706  0.00  0.00    +0.183 C 
ATOM      2  C   UNL     1       6.571  -3.040  23.248  0.00  0.00    +0.178 C 
ATOM      3  O   UNL     1       7.875  -3.070  22.641  0.00  0.00    -0.341 OA
ATOM      4  C   UNL     1       8.879  -2.413  23.423  0.00  0.00    +0.282 C 
ATOM      5  C   UNL     1       9.048  -3.254  24.697  0.00  0.00    +0.201 C 
ATOM      6  C   UNL     1       7.773  -3.146  25.519  0.00  0.00    +0.179 C 
ENDROOT
BRANCH   6   7
ATOM      7  O   UNL     1       7.568  -1.831  26.054  0.00  0.00    -0.386 OA
ATOM      8  H   UNL     1       7.961  -1.783  26.944  0.00  0.00    +0.210 HD
ENDBRANCH   6   7
BRANCH   5   9
ATOM      9  O   UNL     1       9.311  -4.621  24.368  0.00  0.00    -0.384 OA
ATOM     10  H   UNL     1      10.285  -4.756  24.388  0.00  0.00    +0.210 HD
ENDBRANCH   5   9
BRANCH   4  11
ATOM     11  O   UNL     1       8.538  -1.031  23.648  0.00  0.00    -0.340 OA
BRANCH  11  12
ATOM     12  C   UNL     1       9.249  -0.077  22.829  0.00  0.00    +0.183 C 
ATOM     13  C   UNL     1       9.873   1.040  23.713  0.00  0.00    +0.178 C 
ATOM     14  O   UNL     1       8.879   1.905  24.311  0.00  0.00    -0.341 OA
ATOM     15  C   UNL     1       7.919   2.447  23.407  0.00  0.00    +0.279 C 
ATOM     16  C   UNL     1       7.221   1.351  22.597  0.00  0.00    +0.201 C 
ATOM     17  C   UNL     1       8.288   0.565  21.818  0.00  0.00    +0.179 C 
BRANCH  17  18
ATOM     18  O   UNL     1       9.014   1.361  20.875  0.00  0.00    -0.386 OA
ATOM     19  H   UNL     1       8.583   2.242  20.814  0.00  0.00    +0.210 HD
ENDBRANCH  17  18
BRANCH  16  20
ATOM     20  O   UNL     1       6.454   0.508  23.476  0.00  0.00    -0.384 OA
ATOM     21  H   UNL     1       5.507   0.802  23.409  0.00  0.00    +0.210 HD
ENDBRANCH  16  20
BRANCH  15  22
ATOM     22  O   UNL     1       8.525   3.387  22.526  0.00  0.00    -0.365 OA
ATOM     23  H   UNL     1       8.169   3.181  21.641  0.00  0.00    +0.213 HD
ENDBRANCH  15  22
BRANCH  13  24
ATOM     24  C   UNL     1      10.709   0.501  24.883  0.00  0.00    +0.190 C 
BRANCH  24  25
ATOM     25  O   UNL     1       9.844   0.064  25.938  0.00  0.00    -0.392 OA
ATOM     26  H   UNL     1       8.966  -0.058  25.527  0.00  0.00    +0.210 HD
ENDBRANCH  24  25
ENDBRANCH  13  24
ENDBRANCH  11  12
ENDBRANCH   4  11
BRANCH   2  27
ATOM     27  C   UNL     1       5.628  -3.748  22.272  0.00  0.00    +0.190 C 
BRANCH  27  28
ATOM     28  O   UNL     1       4.458  -4.170  22.989  0.00  0.00    -0.392 OA
ATOM     29  H   UNL     1       4.107  -4.939  22.497  0.00  0.00    +0.210 HD
ENDBRANCH  27  28
ENDBRANCH   2  27
BRANCH   1  30
ATOM     30  O   UNL     1       6.290  -5.006  24.808  0.00  0.00    -0.340 OA
BRANCH  30  35
ATOM     31  C   UNL     1       3.978  -6.894  26.161  0.00  0.00    +0.178 C 
ATOM     32  C   UNL     1       3.064  -5.688  26.490  0.00  0.00    +0.177 C 
ATOM     33  C   UNL     1       3.737  -4.320  26.671  0.00  0.00    +0.179 C 
ATOM     34  C   UNL     1       5.215  -4.403  27.020  0.00  0.00    +0.201 C 
ATOM     35  C   UNL     1       5.951  -5.446  26.145  0.00  0.00    +0.282 C 
ATOM     36  O   UNL     1       5.389  -6.743  26.174  0.00  0.00    -0.341 OA
BRANCH  34  37
ATOM     37  O   UNL     1       5.390  -4.650  28.419  0.00  0.00    -0.384 OA
ATOM     38  H   UNL     1       5.296  -5.609  28.567  0.00  0.00    +0.210 HD
ENDBRANCH  34  37
BRANCH  33  39
ATOM     39  O   UNL     1       3.551  -3.528  25.490  0.00  0.00    -0.386 OA
ATOM     40  H   UNL     1       3.046  -2.732  25.735  0.00  0.00    +0.210 HD
ENDBRANCH  33  39
BRANCH  32  41
ATOM     41  O   UNL     1       2.380  -6.031  27.726  0.00  0.00    -0.386 OA
ATOM     42  H   UNL     1       2.979  -6.546  28.291  0.00  0.00    +0.210 HD
ENDBRANCH  32  41
BRANCH  31  43
ATOM     43  C   UNL     1       3.590  -7.683  24.897  0.00  0.00    +0.190 C 
BRANCH  43  44
ATOM     44  O   UNL     1       4.317  -7.286  23.740  0.00  0.00    -0.392 OA
ATOM     45  H   UNL     1       3.676  -6.819  23.170  0.00  0.00    +0.210 HD
ENDBRANCH  43  44
ENDBRANCH  31  43
ENDBRANCH  30  35
ENDBRANCH   1  30
TORSDOF 18
ENDMDL
MODEL 5
REMARK VINA RESULT:      -6.8      1.640      8.243
REMARK  Name = 
REMARK  18 active torsions:
REMARK  status: ('A' for Active; 'I' for Inactive)
REMARK    1  A    between atoms: O_1  and  C_2
REMARK    2  A    between atoms: C_2  and  C_3
REMARK    3  A    between atoms: C_6  and  O_8
REMARK    4  A    between atoms: O_8  and  C_9
REMARK    5  A    between atoms: C_11  and  O_13
REMARK    6  A    between atoms: C_14  and  O_16
REMARK    7  A    between atoms: C_17  and  O_19
REMARK    8  A    between atoms: O_19  and  C_20
REMARK    9  A    between atoms: C_22  and  O_24
REMARK   10  A    between atoms: C_25  and  O_27
REMARK   11  A    between atoms: C_28  and  O_30
REMARK   12  A    between atoms: C_32  and  C_34
REMARK   13  A    between atoms: C_34  and  O_35
REMARK   14  A    between atoms: C_37  and  C_39
REMARK   15  A    between atoms: C_39  and  O_40
REMARK   16  A    between atoms: C_41  and  O_43
REMARK   17  A    between atoms: C_44  and  O_46
REMARK   18  A    between atoms: C_47  and  O_49
REMARK                            x       y       z     vdW  Elec       q    Type
REMARK                         _______ _______ _______ _____ _____    ______ ____
ROOT
ATOM      1  C   UNL     1       7.122  -1.915  25.204  0.00  0.00    +0.183 C 
ATOM      2  C   UNL     1       7.367  -3.420  25.516  0.00  0.00    +0.178 C 
ATOM      3  O   UNL     1       7.153  -4.305  24.403  0.00  0.00    -0.341 OA
ATOM      4  C   UNL     1       5.864  -4.152  23.798  0.00  0.00    +0.282 C 
ATOM      5  C   UNL     1       5.852  -2.754  23.163  0.00  0.00    +0.201 C 
ATOM      6  C   UNL     1       5.892  -1.717  24.276  0.00  0.00    +0.179 C 
ENDROOT
BRANCH   6   7
ATOM      7  O   UNL     1       4.691  -1.700  25.059  0.00  0.00    -0.386 OA
ATOM      8  H   UNL     1       4.418  -2.616  25.246  0.00  0.00    +0.210 HD
ENDBRANCH   6   7
BRANCH   5   9
ATOM      9  O   UNL     1       6.974  -2.586  22.290  0.00  0.00    -0.384 OA
ATOM     10  H   UNL     1       6.826  -3.147  21.495  0.00  0.00    +0.210 HD
ENDBRANCH   5   9
BRANCH   4  11
ATOM     11  O   UNL     1       4.812  -4.394  24.752  0.00  0.00    -0.340 OA
BRANCH  11  12
ATOM     12  C   UNL     1       3.883  -5.443  24.397  0.00  0.00    +0.183 C 
ATOM     13  C   UNL     1       2.559  -5.290  25.198  0.00  0.00    +0.178 C 
ATOM     14  O   UNL     1       2.720  -5.557  26.610  0.00  0.00    -0.341 OA
ATOM     15  C   UNL     1       3.369  -6.787  26.928  0.00  0.00    +0.279 C 
ATOM     16  C   UNL     1       4.724  -6.911  26.226  0.00  0.00    +0.201 C 
ATOM     17  C   UNL     1       4.499  -6.814  24.708  0.00  0.00    +0.179 C 
BRANCH  17  18
ATOM     18  O   UNL     1       3.677  -7.862  24.182  0.00  0.00    -0.386 OA
ATOM     19  H   UNL     1       3.941  -8.027  23.250  0.00  0.00    +0.210 HD
ENDBRANCH  17  18
BRANCH  16  20
ATOM     20  O   UNL     1       5.620  -5.894  26.712  0.00  0.00    -0.384 OA
ATOM     21  H   UNL     1       5.058  -5.171  27.098  0.00  0.00    +0.210 HD
ENDBRANCH  16  20
BRANCH  15  22
ATOM     22  O   UNL     1       2.546  -7.898  26.588  0.00  0.00    -0.365 OA
ATOM     23  H   UNL     1       2.487  -8.436  27.401  0.00  0.00    +0.213 HD
ENDBRANCH  15  22
BRANCH  13  24
ATOM     24  C   UNL     1       1.948  -3.883  25.110  0.00  0.00    +0.190 C 
BRANCH  24  25
ATOM     25  O   UNL     1       2.527  -3.040  26.114  0.00  0.00    -0.392 OA
ATOM     26  H   UNL     1       1.774  -2.608  26.563  0.00  0.00    +0.210 HD
ENDBRANCH  24  25
ENDBRANCH  13  24
ENDBRANCH  11  12
ENDBRANCH   4  11
BRANCH   2  27
ATOM     27  C   UNL     1       8.763  -3.742  26.056  0.00  0.00    +0.190 C 
BRANCH  27  28
ATOM     28  O   UNL     1       8.661  -4.853  26.960  0.00  0.00    -0.392 OA
ATOM     29  H   UNL     1       7.709  -4.945  27.161  0.00  0.00    +0.210 HD
ENDBRANCH  27  28
ENDBRANCH   2  27
BRANCH   1  30
ATOM     30  O   UNL     1       8.283  -1.209  24.710  0.00  0.00    -0.340 OA
BRANCH  30  35
ATOM     31  C   UNL     1       9.111   0.614  22.115  0.00  0.00    +0.178 C 
ATOM     32  C   UNL     1      10.288   1.293  22.859  0.00  0.00    +0.177 C 
ATOM     33  C   UNL     1      10.203   1.374  24.389  0.00  0.00    +0.179 C 
ATOM     34  C   UNL     1       8.788   1.262  24.934  0.00  0.00    +0.201 C 
ATOM     35  C   UNL     1       7.995   0.129  24.238  0.00  0.00    +0.282 C 
ATOM     36  O   UNL     1       7.949   0.220  22.828  0.00  0.00    -0.341 OA
BRANCH  34  37
ATOM     37  O   UNL     1       8.113   2.522  24.852  0.00  0.00    -0.384 OA
ATOM     38  H   UNL     1       7.171   2.345  24.675  0.00  0.00    +0.210 HD
ENDBRANCH  34  37
BRANCH  33  39
ATOM     39  O   UNL     1      11.039   0.367  24.975  0.00  0.00    -0.386 OA
ATOM     40  H   UNL     1      11.949   0.714  25.016  0.00  0.00    +0.210 HD
ENDBRANCH  33  39
BRANCH  32  41
ATOM     41  O   UNL     1      10.367   2.645  22.330  0.00  0.00    -0.386 OA
ATOM     42  H   UNL     1       9.589   3.148  22.622  0.00  0.00    +0.210 HD
ENDBRANCH  32  41
BRANCH  31  43
ATOM     43  C   UNL     1       9.510  -0.537  21.173  0.00  0.00    +0.190 C 
BRANCH  43  44
ATOM     44  O   UNL     1       9.885  -1.724  21.861  0.00  0.00    -0.392 OA
ATOM     45  H   UNL     1      10.856  -1.682  21.957  0.00  0.00    +0.210 HD
ENDBRANCH  43  44
ENDBRANCH  31  43
ENDBRANCH  30  35
ENDBRANCH   1  30
TORSDOF 18
ENDMDL
MODEL 6
REMARK VINA RESULT:      -6.7      1.877      8.079
REMARK  Name = 
REMARK  18 active torsions:
REMARK  status: ('A' for Active; 'I' for Inactive)
REMARK    1  A    between atoms: O_1  and  C_2
REMARK    2  A    between atoms: C_2  and  C_3
REMARK    3  A    between atoms: C_6  and  O_8
REMARK    4  A    between atoms: O_8  and  C_9
REMARK    5  A    between atoms: C_11  and  O_13
REMARK    6  A    between atoms: C_14  and  O_16
REMARK    7  A    between atoms: C_17  and  O_19
REMARK    8  A    between atoms: O_19  and  C_20
REMARK    9  A    between atoms: C_22  and  O_24
REMARK   10  A    between atoms: C_25  and  O_27
REMARK   11  A    between atoms: C_28  and  O_30
REMARK   12  A    between atoms: C_32  and  C_34
REMARK   13  A    between atoms: C_34  and  O_35
REMARK   14  A    between atoms: C_37  and  C_39
REMARK   15  A    between atoms: C_39  and  O_40
REMARK   16  A    between atoms: C_41  and  O_43
REMARK   17  A    between atoms: C_44  and  O_46
REMARK   18  A    between atoms: C_47  and  O_49
REMARK                            x       y       z     vdW  Elec       q    Type
REMARK                         _______ _______ _______ _____ _____    ______ ____
ROOT
ATOM      1  C   UNL     1       6.554  -0.536  24.166  0.00  0.00    +0.183 C 
ATOM      2  C   UNL     1       6.178  -1.392  25.410  0.00  0.00    +0.178 C 
ATOM      3  O   UNL     1       7.072  -2.488  25.674  0.00  0.00    -0.341 OA
ATOM      4  C   UNL     1       7.259  -3.350  24.545  0.00  0.00    +0.282 C 
ATOM      5  C   UNL     1       8.000  -2.518  23.490  0.00  0.00    +0.201 C 
ATOM      6  C   UNL     1       7.069  -1.420  22.998  0.00  0.00    +0.179 C 
ENDROOT
BRANCH   6   7
ATOM      7  O   UNL     1       5.957  -1.931  22.249  0.00  0.00    -0.386 OA
ATOM      8  H   UNL     1       6.283  -2.571  21.591  0.00  0.00    +0.210 HD
ENDBRANCH   6   7
BRANCH   5   9
ATOM      9  O   UNL     1       9.191  -1.947  24.041  0.00  0.00    -0.384 OA
ATOM     10  H   UNL     1       9.240  -2.206  24.989  0.00  0.00    +0.210 HD
ENDBRANCH   5   9
BRANCH   4  11
ATOM     11  O   UNL     1       6.005  -3.909  24.107  0.00  0.00    -0.340 OA
BRANCH  11  12
ATOM     12  C   UNL     1       5.885  -5.343  24.245  0.00  0.00    +0.183 C 
ATOM     13  C   UNL     1       5.524  -5.991  22.878  0.00  0.00    +0.178 C 
ATOM     14  O   UNL     1       4.186  -5.663  22.435  0.00  0.00    -0.341 OA
ATOM     15  C   UNL     1       3.154  -5.885  23.393  0.00  0.00    +0.279 C 
ATOM     16  C   UNL     1       3.444  -5.170  24.716  0.00  0.00    +0.201 C 
ATOM     17  C   UNL     1       4.787  -5.681  25.263  0.00  0.00    +0.179 C 
BRANCH  17  18
ATOM     18  O   UNL     1       4.791  -7.083  25.555  0.00  0.00    -0.386 OA
ATOM     19  H   UNL     1       5.408  -7.242  26.303  0.00  0.00    +0.210 HD
ENDBRANCH  17  18
BRANCH  16  20
ATOM     20  O   UNL     1       3.445  -3.744  24.510  0.00  0.00    -0.384 OA
ATOM     21  H   UNL     1       3.450  -3.593  23.528  0.00  0.00    +0.210 HD
ENDBRANCH  16  20
BRANCH  15  22
ATOM     22  O   UNL     1       2.970  -7.277  23.628  0.00  0.00    -0.365 OA
ATOM     23  H   UNL     1       3.325  -7.439  24.523  0.00  0.00    +0.213 HD
ENDBRANCH  15  22
BRANCH  13  24
ATOM     24  C   UNL     1       6.455  -5.566  21.732  0.00  0.00    +0.190 C 
BRANCH  24  25
ATOM     25  O   UNL     1       5.888  -4.450  21.035  0.00  0.00    -0.392 OA
ATOM     26  H   UNL     1       5.238  -4.057  21.649  0.00  0.00    +0.210 HD
ENDBRANCH  24  25
ENDBRANCH  13  24
ENDBRANCH  11  12
ENDBRANCH   4  11
BRANCH   2  27
ATOM     27  C   UNL     1       6.068  -0.605  26.719  0.00  0.00    +0.190 C 
BRANCH  27  28
ATOM     28  O   UNL     1       7.393  -0.332  27.202  0.00  0.00    -0.392 OA
ATOM     29  H   UNL     1       7.552  -0.979  27.919  0.00  0.00    +0.210 HD
ENDBRANCH  27  28
ENDBRANCH   2  27
BRANCH   1  30
ATOM     30  O   UNL     1       7.455   0.561  24.443  0.00  0.00    -0.340 OA
BRANCH  30  35
ATOM     31  C   UNL     1      10.383   1.665  23.470  0.00  0.00    +0.178 C 
ATOM     32  C   UNL     1      10.079   3.118  23.916  0.00  0.00    +0.177 C 
ATOM     33  C   UNL     1       8.606   3.546  23.972  0.00  0.00    +0.179 C 
ATOM     34  C   UNL     1       7.686   2.699  23.107  0.00  0.00    +0.201 C 
ATOM     35  C   UNL     1       7.992   1.189  23.255  0.00  0.00    +0.282 C 
ATOM     36  O   UNL     1       9.336   0.831  23.000  0.00  0.00    -0.341 OA
BRANCH  34  37
ATOM     37  O   UNL     1       7.737   3.130  21.743  0.00  0.00    -0.384 OA
ATOM     38  H   UNL     1       7.100   3.859  21.636  0.00  0.00    +0.210 HD
ENDBRANCH  34  37
BRANCH  33  39
ATOM     39  O   UNL     1       8.151   3.540  25.331  0.00  0.00    -0.386 OA
ATOM     40  H   UNL     1       7.713   4.393  25.508  0.00  0.00    +0.210 HD
ENDBRANCH  33  39
BRANCH  32  41
ATOM     41  O   UNL     1      10.774   3.978  22.973  0.00  0.00    -0.386 OA
ATOM     42  H   UNL     1      10.141   4.608  22.589  0.00  0.00    +0.210 HD
ENDBRANCH  32  41
BRANCH  31  43
ATOM     43  C   UNL     1      11.248   0.848  24.448  0.00  0.00    +0.190 C 
BRANCH  43  44
ATOM     44  O   UNL     1      10.517   0.346  25.561  0.00  0.00    -0.392 OA
ATOM     45  H   UNL     1      11.091  -0.326  25.976  0.00  0.00    +0.210 HD
ENDBRANCH  43  44
ENDBRANCH  31  43
ENDBRANCH  30  35
ENDBRANCH   1  30
TORSDOF 18
ENDMDL
MODEL 7
REMARK VINA RESULT:      -6.7      1.497      8.268
REMARK  Name = 
REMARK  18 active torsions:
REMARK  status: ('A' for Active; 'I' for Inactive)
REMARK    1  A    between atoms: O_1  and  C_2
REMARK    2  A    between atoms: C_2  and  C_3
REMARK    3  A    between atoms: C_6  and  O_8
REMARK    4  A    between atoms: O_8  and  C_9
REMARK    5  A    between atoms: C_11  and  O_13
REMARK    6  A    between atoms: C_14  and  O_16
REMARK    7  A    between atoms: C_17  and  O_19
REMARK    8  A    between atoms: O_19  and  C_20
REMARK    9  A    between atoms: C_22  and  O_24
REMARK   10  A    between atoms: C_25  and  O_27
REMARK   11  A    between atoms: C_28  and  O_30
REMARK   12  A    between atoms: C_32  and  C_34
REMARK   13  A    between atoms: C_34  and  O_35
REMARK   14  A    between atoms: C_37  and  C_39
REMARK   15  A    between atoms: C_39  and  O_40
REMARK   16  A    between atoms: C_41  and  O_43
REMARK   17  A    between atoms: C_44  and  O_46
REMARK   18  A    between atoms: C_47  and  O_49
REMARK                            x       y       z     vdW  Elec       q    Type
REMARK                         _______ _______ _______ _____ _____    ______ ____
ROOT
ATOM      1  C   UNL     1       7.032  -2.201  25.475  0.00  0.00    +0.183 C 
ATOM      2  C   UNL     1       7.517  -3.547  26.089  0.00  0.00    +0.178 C 
ATOM      3  O   UNL     1       7.486  -4.662  25.181  0.00  0.00    -0.341 OA
ATOM      4  C   UNL     1       6.208  -4.856  24.564  0.00  0.00    +0.282 C 
ATOM      5  C   UNL     1       5.983  -3.639  23.657  0.00  0.00    +0.201 C 
ATOM      6  C   UNL     1       5.815  -2.407  24.533  0.00  0.00    +0.179 C 
ENDROOT
BRANCH   6   7
ATOM      7  O   UNL     1       4.605  -2.435  25.302  0.00  0.00    -0.386 OA
ATOM      8  H   UNL     1       3.867  -2.704  24.726  0.00  0.00    +0.210 HD
ENDBRANCH   6   7
BRANCH   5   9
ATOM      9  O   UNL     1       7.086  -3.465  22.762  0.00  0.00    -0.384 OA
ATOM     10  H   UNL     1       6.804  -2.848  22.049  0.00  0.00    +0.210 HD
ENDBRANCH   5   9
BRANCH   4  11
ATOM     11  O   UNL     1       5.184  -5.075  25.554  0.00  0.00    -0.340 OA
BRANCH  11  12
ATOM     12  C   UNL     1       5.191  -6.380  26.175  0.00  0.00    +0.183 C 
ATOM     13  C   UNL     1       3.812  -7.075  25.993  0.00  0.00    +0.178 C 
ATOM     14  O   UNL     1       2.756  -6.437  26.749  0.00  0.00    -0.341 OA
ATOM     15  C   UNL     1       3.040  -6.219  28.130  0.00  0.00    +0.279 C 
ATOM     16  C   UNL     1       4.347  -5.445  28.325  0.00  0.00    +0.201 C 
ATOM     17  C   UNL     1       5.489  -6.244  27.674  0.00  0.00    +0.179 C 
BRANCH  17  18
ATOM     18  O   UNL     1       5.694  -7.534  28.262  0.00  0.00    -0.386 OA
ATOM     19  H   UNL     1       4.847  -8.031  28.224  0.00  0.00    +0.210 HD
ENDBRANCH  17  18
BRANCH  16  20
ATOM     20  O   UNL     1       4.219  -4.123  27.769  0.00  0.00    -0.384 OA
ATOM     21  H   UNL     1       3.293  -3.817  27.957  0.00  0.00    +0.210 HD
ENDBRANCH  16  20
BRANCH  15  22
ATOM     22  O   UNL     1       3.099  -7.453  28.837  0.00  0.00    -0.365 OA
ATOM     23  H   UNL     1       2.646  -7.289  29.686  0.00  0.00    +0.213 HD
ENDBRANCH  15  22
BRANCH  13  24
ATOM     24  C   UNL     1       3.322  -7.098  24.538  0.00  0.00    +0.190 C 
BRANCH  24  25
ATOM     25  O   UNL     1       4.407  -7.443  23.667  0.00  0.00    -0.392 OA
ATOM     26  H   UNL     1       4.543  -8.404  23.782  0.00  0.00    +0.210 HD
ENDBRANCH  24  25
ENDBRANCH  13  24
ENDBRANCH  11  12
ENDBRANCH   4  11
BRANCH   2  27
ATOM     27  C   UNL     1       8.930  -3.510  26.676  0.00  0.00    +0.190 C 
BRANCH  27  28
ATOM     28  O   UNL     1       9.316  -4.848  27.027  0.00  0.00    -0.392 OA
ATOM     29  H   UNL     1       9.218  -5.376  26.210  0.00  0.00    +0.210 HD
ENDBRANCH  27  28
ENDBRANCH   2  27
BRANCH   1  30
ATOM     30  O   UNL     1       8.074  -1.423  24.841  0.00  0.00    -0.340 OA
BRANCH  30  35
ATOM     31  C   UNL     1       8.878   0.099  22.052  0.00  0.00    +0.178 C 
ATOM     32  C   UNL     1       9.749   1.155  22.778  0.00  0.00    +0.177 C 
ATOM     33  C   UNL     1       9.412   1.460  24.244  0.00  0.00    +0.179 C 
ATOM     34  C   UNL     1       7.988   1.099  24.637  0.00  0.00    +0.201 C 
ATOM     35  C   UNL     1       7.578  -0.289  24.089  0.00  0.00    +0.282 C 
ATOM     36  O   UNL     1       7.733  -0.442  22.692  0.00  0.00    -0.341 OA
BRANCH  34  37
ATOM     37  O   UNL     1       7.077   2.129  24.235  0.00  0.00    -0.384 OA
ATOM     38  H   UNL     1       7.517   2.665  23.550  0.00  0.00    +0.210 HD
ENDBRANCH  34  37
BRANCH  33  39
ATOM     39  O   UNL     1      10.346   0.795  25.105  0.00  0.00    -0.386 OA
ATOM     40  H   UNL     1      10.968   0.293  24.549  0.00  0.00    +0.210 HD
ENDBRANCH  33  39
BRANCH  32  41
ATOM     41  O   UNL     1       9.614   2.381  22.010  0.00  0.00    -0.386 OA
ATOM     42  H   UNL     1       9.774   3.142  22.591  0.00  0.00    +0.210 HD
ENDBRANCH  32  41
BRANCH  31  43
ATOM     43  C   UNL     1       9.659  -1.058  21.403  0.00  0.00    +0.190 C 
BRANCH  43  44
ATOM     44  O   UNL     1       9.823  -2.179  22.263  0.00  0.00    -0.392 OA
ATOM     45  H   UNL     1       9.055  -2.759  22.095  0.00  0.00    +0.210 HD
ENDBRANCH  43  44
ENDBRANCH  31  43
ENDBRANCH  30  35
ENDBRANCH   1  30
TORSDOF 18
ENDMDL
MODEL 8
REMARK VINA RESULT:      -6.6      2.335      8.249
REMARK  Name = 
REMARK  18 active torsions:
REMARK  status: ('A' for Active; 'I' for Inactive)
REMARK    1  A    between atoms: O_1  and  C_2
REMARK    2  A    between atoms: C_2  and  C_3
REMARK    3  A    between atoms: C_6  and  O_8
REMARK    4  A    between atoms: O_8  and  C_9
REMARK    5  A    between atoms: C_11  and  O_13
REMARK    6  A    between atoms: C_14  and  O_16
REMARK    7  A    between atoms: C_17  and  O_19
REMARK    8  A    between atoms: O_19  and  C_20
REMARK    9  A    between atoms: C_22  and  O_24
REMARK   10  A    between atoms: C_25  and  O_27
REMARK   11  A    between atoms: C_28  and  O_30
REMARK   12  A    between atoms: C_32  and  C_34
REMARK   13  A    between atoms: C_34  and  O_35
REMARK   14  A    between atoms: C_37  and  C_39
REMARK   15  A    between atoms: C_39  and  O_40
REMARK   16  A    between atoms: C_41  and  O_43
REMARK   17  A    between atoms: C_44  and  O_46
REMARK   18  A    between atoms: C_47  and  O_49
REMARK                            x       y       z     vdW  Elec       q    Type
REMARK                         _______ _______ _______ _____ _____    ______ ____
ROOT
ATOM      1  C   UNL     1       8.298   0.426  23.754  0.00  0.00    +0.183 C 
ATOM      2  C   UNL     1       9.267  -0.460  24.590  0.00  0.00    +0.178 C 
ATOM      3  O   UNL     1       9.973  -1.456  23.828  0.00  0.00    -0.341 OA
ATOM      4  C   UNL     1       9.107  -2.298  23.058  0.00  0.00    +0.282 C 
ATOM      5  C   UNL     1       8.477  -1.397  21.987  0.00  0.00    +0.201 C 
ATOM      6  C   UNL     1       7.552  -0.404  22.674  0.00  0.00    +0.179 C 
ENDROOT
BRANCH   6   7
ATOM      7  O   UNL     1       6.400  -1.031  23.254  0.00  0.00    -0.386 OA
ATOM      8  H   UNL     1       6.600  -1.967  23.430  0.00  0.00    +0.210 HD
ENDBRANCH   6   7
BRANCH   5   9
ATOM      9  O   UNL     1       9.489  -0.703  21.250  0.00  0.00    -0.384 OA
ATOM     10  H   UNL     1       9.320   0.262  21.339  0.00  0.00    +0.210 HD
ENDBRANCH   5   9
BRANCH   4  11
ATOM     11  O   UNL     1       8.166  -2.986  23.904  0.00  0.00    -0.340 OA
BRANCH  11  12
ATOM     12  C   UNL     1       8.463  -4.378  24.157  0.00  0.00    +0.183 C 
ATOM     13  C   UNL     1       7.160  -5.159  24.491  0.00  0.00    +0.178 C 
ATOM     14  O   UNL     1       6.589  -4.783  25.765  0.00  0.00    -0.341 OA
ATOM     15  C   UNL     1       7.492  -4.802  26.869  0.00  0.00    +0.279 C 
ATOM     16  C   UNL     1       8.738  -3.954  26.597  0.00  0.00    +0.201 C 
ATOM     17  C   UNL     1       9.435  -4.499  25.340  0.00  0.00    +0.179 C 
BRANCH  17  18
ATOM     18  O   UNL     1       9.890  -5.850  25.475  0.00  0.00    -0.386 OA
ATOM     19  H   UNL     1      10.792  -5.914  25.090  0.00  0.00    +0.210 HD
ENDBRANCH  17  18
BRANCH  16  20
ATOM     20  O   UNL     1       8.365  -2.570  26.460  0.00  0.00    -0.384 OA
ATOM     21  H   UNL     1       8.486  -2.146  27.350  0.00  0.00    +0.210 HD
ENDBRANCH  16  20
BRANCH  15  22
ATOM     22  O   UNL     1       7.876  -6.136  27.187  0.00  0.00    -0.365 OA
ATOM     23  H   UNL     1       7.902  -6.173  28.162  0.00  0.00    +0.213 HD
ENDBRANCH  15  22
BRANCH  13  24
ATOM     24  C   UNL     1       6.041  -4.955  23.459  0.00  0.00    +0.190 C 
BRANCH  24  25
ATOM     25  O   UNL     1       6.610  -4.749  22.160  0.00  0.00    -0.392 OA
ATOM     26  H   UNL     1       6.199  -5.420  21.582  0.00  0.00    +0.210 HD
ENDBRANCH  24  25
ENDBRANCH  13  24
ENDBRANCH  11  12
ENDBRANCH   4  11
BRANCH   2  27
ATOM     27  C   UNL     1      10.331   0.316  25.370  0.00  0.00    +0.190 C 
BRANCH  27  28
ATOM     28  O   UNL     1      11.269   0.874  24.436  0.00  0.00    -0.392 OA
ATOM     29  H   UNL     1      11.317   1.828  24.645  0.00  0.00    +0.210 HD
ENDBRANCH  27  28
ENDBRANCH   2  27
BRANCH   1  30
ATOM     30  O   UNL     1       8.906   1.611  23.191  0.00  0.00    -0.340 OA
BRANCH  30  35
ATOM     31  C   UNL     1       8.882   4.849  23.700  0.00  0.00    +0.178 C 
ATOM     32  C   UNL     1       8.170   4.715  25.070  0.00  0.00    +0.177 C 
ATOM     33  C   UNL     1       7.300   3.470  25.294  0.00  0.00    +0.179 C 
ATOM     34  C   UNL     1       6.830   2.808  24.009  0.00  0.00    +0.201 C 
ATOM     35  C   UNL     1       7.973   2.697  22.972  0.00  0.00    +0.282 C 
ATOM     36  O   UNL     1       8.611   3.920  22.662  0.00  0.00    -0.341 OA
BRANCH  34  37
ATOM     37  O   UNL     1       5.685   3.485  23.481  0.00  0.00    -0.384 OA
ATOM     38  H   UNL     1       5.566   4.310  23.987  0.00  0.00    +0.210 HD
ENDBRANCH  34  37
BRANCH  33  39
ATOM     39  O   UNL     1       8.007   2.525  26.108  0.00  0.00    -0.386 OA
ATOM     40  H   UNL     1       8.299   1.791  25.537  0.00  0.00    +0.210 HD
ENDBRANCH  33  39
BRANCH  32  41
ATOM     41  O   UNL     1       7.329   5.894  25.199  0.00  0.00    -0.386 OA
ATOM     42  H   UNL     1       6.623   5.857  24.533  0.00  0.00    +0.210 HD
ENDBRANCH  32  41
BRANCH  31  43
ATOM     43  C   UNL     1      10.406   5.058  23.774  0.00  0.00    +0.190 C 
BRANCH  43  44
ATOM     44  O   UNL     1      10.775   6.332  24.288  0.00  0.00    -0.392 OA
ATOM     45  H   UNL     1      10.202   6.979  23.834  0.00  0.00    +0.210 HD
ENDBRANCH  43  44
ENDBRANCH  31  43
ENDBRANCH  30  35
ENDBRANCH   1  30
TORSDOF 18
ENDMDL
MODEL 9
REMARK VINA RESULT:      -6.5      1.718      3.530
REMARK  Name = 
REMARK  18 active torsions:
REMARK  status: ('A' for Active; 'I' for Inactive)
REMARK    1  A    between atoms: O_1  and  C_2
REMARK    2  A    between atoms: C_2  and  C_3
REMARK    3  A    between atoms: C_6  and  O_8
REMARK    4  A    between atoms: O_8  and  C_9
REMARK    5  A    between atoms: C_11  and  O_13
REMARK    6  A    between atoms: C_14  and  O_16
REMARK    7  A    between atoms: C_17  and  O_19
REMARK    8  A    between atoms: O_19  and  C_20
REMARK    9  A    between atoms: C_22  and  O_24
REMARK   10  A    between atoms: C_25  and  O_27
REMARK   11  A    between atoms: C_28  and  O_30
REMARK   12  A    between atoms: C_32  and  C_34
REMARK   13  A    between atoms: C_34  and  O_35
REMARK   14  A    between atoms: C_37  and  C_39
REMARK   15  A    between atoms: C_39  and  O_40
REMARK   16  A    between atoms: C_41  and  O_43
REMARK   17  A    between atoms: C_44  and  O_46
REMARK   18  A    between atoms: C_47  and  O_49
REMARK                            x       y       z     vdW  Elec       q    Type
REMARK                         _______ _______ _______ _____ _____    ______ ____
ROOT
ATOM      1  C   UNL     1       6.648  -3.882  24.368  0.00  0.00    +0.183 C 
ATOM      2  C   UNL     1       8.143  -3.633  24.725  0.00  0.00    +0.178 C 
ATOM      3  O   UNL     1       8.355  -2.657  25.761  0.00  0.00    -0.341 OA
ATOM      4  C   UNL     1       7.716  -1.403  25.498  0.00  0.00    +0.282 C 
ATOM      5  C   UNL     1       6.205  -1.673  25.552  0.00  0.00    +0.201 C 
ATOM      6  C   UNL     1       5.831  -2.562  24.375  0.00  0.00    +0.179 C 
ENDROOT
BRANCH   6   7
ATOM      7  O   UNL     1       5.970  -1.897  23.113  0.00  0.00    -0.386 OA
ATOM      8  H   UNL     1       6.886  -2.000  22.797  0.00  0.00    +0.210 HD
ENDBRANCH   6   7
BRANCH   5   9
ATOM      9  O   UNL     1       5.849  -2.307  26.784  0.00  0.00    -0.384 OA
ATOM     10  H   UNL     1       5.182  -3.002  26.586  0.00  0.00    +0.210 HD
ENDBRANCH   5   9
BRANCH   4  11
ATOM     11  O   UNL     1       8.187  -0.831  24.262  0.00  0.00    -0.340 OA
BRANCH  11  12
ATOM     12  C   UNL     1       8.921   0.406  24.392  0.00  0.00    +0.183 C 
ATOM     13  C   UNL     1       8.190   1.554  23.640  0.00  0.00    +0.178 C 
ATOM     14  O   UNL     1       8.216   1.391  22.202  0.00  0.00    -0.341 OA
ATOM     15  C   UNL     1       9.503   1.150  21.639  0.00  0.00    +0.279 C 
ATOM     16  C   UNL     1      10.199  -0.042  22.301  0.00  0.00    +0.201 C 
ATOM     17  C   UNL     1      10.330   0.243  23.806  0.00  0.00    +0.179 C 
BRANCH  17  18
ATOM     18  O   UNL     1      11.132   1.392  24.104  0.00  0.00    -0.386 OA
ATOM     19  H   UNL     1      11.706   1.580  23.330  0.00  0.00    +0.210 HD
ENDBRANCH  17  18
BRANCH  16  20
ATOM     20  O   UNL     1       9.457  -1.248  22.036  0.00  0.00    -0.384 OA
ATOM     21  H   UNL     1       9.808  -1.625  21.186  0.00  0.00    +0.210 HD
ENDBRANCH  16  20
BRANCH  15  22
ATOM     22  O   UNL     1      10.327   2.307  21.742  0.00  0.00    -0.365 OA
ATOM     23  H   UNL     1       9.808   2.951  22.261  0.00  0.00    +0.213 HD
ENDBRANCH  15  22
BRANCH  13  24
ATOM     24  C   UNL     1       6.706   1.686  24.014  0.00  0.00    +0.190 C 
BRANCH  24  25
ATOM     25  O   UNL     1       5.906   0.924  23.102  0.00  0.00    -0.392 OA
ATOM     26  H   UNL     1       6.486   0.209  22.775  0.00  0.00    +0.210 HD
ENDBRANCH  24  25
ENDBRANCH  13  24
ENDBRANCH  11  12
ENDBRANCH   4  11
BRANCH   2  27
ATOM     27  C   UNL     1       8.916  -4.884  25.149  0.00  0.00    +0.190 C 
BRANCH  27  28
ATOM     28  O   UNL     1       8.603  -5.174  26.521  0.00  0.00    -0.392 OA
ATOM     29  H   UNL     1       9.228  -5.875  26.793  0.00  0.00    +0.210 HD
ENDBRANCH  27  28
ENDBRANCH   2  27
BRANCH   1  30
ATOM     30  O   UNL     1       6.008  -4.912  25.156  0.00  0.00    -0.340 OA
BRANCH  30  35
ATOM     31  C   UNL     1       2.792  -4.917  25.788  0.00  0.00    +0.178 C 
ATOM     32  C   UNL     1       2.854  -6.274  26.534  0.00  0.00    +0.177 C 
ATOM     33  C   UNL     1       3.993  -7.233  26.163  0.00  0.00    +0.179 C 
ATOM     34  C   UNL     1       4.590  -6.977  24.788  0.00  0.00    +0.201 C 
ATOM     35  C   UNL     1       4.823  -5.467  24.537  0.00  0.00    +0.282 C 
ATOM     36  O   UNL     1       3.678  -4.656  24.710  0.00  0.00    -0.341 OA
BRANCH  34  37
ATOM     37  O   UNL     1       3.783  -7.576  23.768  0.00  0.00    -0.384 OA
ATOM     38  H   UNL     1       4.310  -8.279  23.345  0.00  0.00    +0.210 HD
ENDBRANCH  34  37
BRANCH  33  39
ATOM     39  O   UNL     1       5.018  -7.179  27.164  0.00  0.00    -0.386 OA
ATOM     40  H   UNL     1       4.768  -6.502  27.819  0.00  0.00    +0.210 HD
ENDBRANCH  33  39
BRANCH  32  41
ATOM     41  O   UNL     1       1.588  -6.935  26.263  0.00  0.00    -0.386 OA
ATOM     42  H   UNL     1       1.445  -7.634  26.922  0.00  0.00    +0.210 HD
ENDBRANCH  32  41
BRANCH  31  43
ATOM     43  C   UNL     1       2.758  -3.673  26.694  0.00  0.00    +0.190 C 
BRANCH  43  44
ATOM     44  O   UNL     1       2.766  -2.448  25.971  0.00  0.00    -0.392 OA
ATOM     45  H   UNL     1       3.703  -2.182  25.909  0.00  0.00    +0.210 HD
ENDBRANCH  43  44
ENDBRANCH  31  43
ENDBRANCH  30  35
ENDBRANCH   1  30
TORSDOF 18
ENDMDL
