MODEL 1
REMARK VINA RESULT:      -7.1      0.000      0.000
REMARK  Name = 
REMARK  5 active torsions:
REMARK  status: ('A' for Active; 'I' for Inactive)
REMARK    1  A    between atoms: C_1  and  C_2
REMARK    2  A    between atoms: C_2  and  C_3
REMARK    3  A    between atoms: N_7  and  C_10
REMARK    4  A    between atoms: C_12  and  C_19
REMARK    5  A    between atoms: C_13  and  N_16
REMARK                            x       y       z     vdW  Elec       q    Type
REMARK                         _______ _______ _______ _____ _____    ______ ____
ROOT
ATOM      1  C   UNL     1       7.292  -2.677  23.456  0.00  0.00    +0.046 A 
ATOM      2  C   UNL     1       6.171  -2.617  24.303  0.00  0.00    +0.030 A 
ATOM      3  C   UNL     1       5.186  -3.613  24.301  0.00  0.00    +0.087 A 
ATOM      4  C   UNL     1       5.305  -4.696  23.430  0.00  0.00    +0.285 A 
ATOM      5  C   UNL     1       6.393  -4.812  22.561  0.00  0.00    +0.133 A 
ATOM      6  C   UNL     1       7.374  -3.793  22.596  0.00  0.00    +0.043 A 
ENDROOT
BRANCH   1  11
ATOM      7  C   UNL     1       9.457   1.626  24.154  0.00  0.00    +0.041 C 
ATOM      8  C   UNL     1       9.435   0.420  23.226  0.00  0.00    +0.107 C 
ATOM      9  C   UNL     1       8.080  -0.302  23.261  0.00  0.00    +0.250 C 
ATOM     10  O   UNL     1       7.024   0.286  23.055  0.00  0.00    -0.272 OA
ATOM     11  N   UNL     1       8.297  -1.656  23.468  0.00  0.00    -0.192 N 
ATOM     12  C   UNL     1       9.643  -1.855  23.688  0.00  0.00    +0.314 C 
ATOM     13  O   UNL     1      10.272  -2.887  23.862  0.00  0.00    -0.252 OA
ATOM     14  N   UNL     1      10.287  -0.637  23.684  0.00  0.00    -0.285 N 
ATOM     15  H   UNL     1      11.298  -0.605  23.725  0.00  0.00    +0.151 HD
ATOM     16  C   UNL     1       9.774   0.794  21.786  0.00  0.00    +0.041 C 
ENDBRANCH   1  11
BRANCH   5  17
ATOM     17  C   UNL     1       6.547  -5.985  21.627  0.00  0.00    +0.424 C 
ATOM     18  F   UNL     1       5.548  -6.074  20.712  0.00  0.00    -0.166 F 
ATOM     19  F   UNL     1       6.577  -7.171  22.292  0.00  0.00    -0.166 F 
ATOM     20  F   UNL     1       7.699  -5.944  20.902  0.00  0.00    -0.166 F 
ENDBRANCH   5  17
BRANCH   4  21
ATOM     21  N   UNL     1       4.257  -5.705  23.472  0.00  0.00    +0.080 N 
ATOM     22  O   UNL     1       4.414  -6.641  24.264  0.00  0.00    +0.041 OA
ATOM     23  O   UNL     1       3.279  -5.530  22.738  0.00  0.00    -0.576 OA
ENDBRANCH   4  21
TORSDOF 3
ENDMDL
MODEL 2
REMARK VINA RESULT:      -7.1      3.407      6.449
REMARK  Name = 
REMARK  5 active torsions:
REMARK  status: ('A' for Active; 'I' for Inactive)
REMARK    1  A    between atoms: C_1  and  C_2
REMARK    2  A    between atoms: C_2  and  C_3
REMARK    3  A    between atoms: N_7  and  C_10
REMARK    4  A    between atoms: C_12  and  C_19
REMARK    5  A    between atoms: C_13  and  N_16
REMARK                            x       y       z     vdW  Elec       q    Type
REMARK                         _______ _______ _______ _____ _____    ______ ____
ROOT
ATOM      1  C   UNL     1       7.596  -2.013  23.419  0.00  0.00    +0.046 A 
ATOM      2  C   UNL     1       7.345  -1.458  24.686  0.00  0.00    +0.030 A 
ATOM      3  C   UNL     1       7.623  -0.116  24.976  0.00  0.00    +0.087 A 
ATOM      4  C   UNL     1       8.173   0.701  23.989  0.00  0.00    +0.285 A 
ATOM      5  C   UNL     1       8.449   0.209  22.710  0.00  0.00    +0.133 A 
ATOM      6  C   UNL     1       8.147  -1.149  22.448  0.00  0.00    +0.043 A 
ENDROOT
BRANCH   1  11
ATOM      7  C   UNL     1       6.115  -5.989  21.035  0.00  0.00    +0.041 C 
ATOM      8  C   UNL     1       6.219  -5.382  22.426  0.00  0.00    +0.107 C 
ATOM      9  C   UNL     1       6.234  -3.848  22.380  0.00  0.00    +0.250 C 
ATOM     10  O   UNL     1       5.359  -3.206  21.810  0.00  0.00    -0.272 OA
ATOM     11  N   UNL     1       7.305  -3.386  23.130  0.00  0.00    -0.192 N 
ATOM     12  C   UNL     1       8.044  -4.470  23.552  0.00  0.00    +0.314 C 
ATOM     13  O   UNL     1       9.030  -4.524  24.270  0.00  0.00    -0.252 OA
ATOM     14  N   UNL     1       7.495  -5.622  23.032  0.00  0.00    -0.285 N 
ATOM     15  H   UNL     1       7.849  -6.523  23.327  0.00  0.00    +0.151 HD
ATOM     16  C   UNL     1       5.094  -5.852  23.344  0.00  0.00    +0.041 C 
ENDBRANCH   1  11
BRANCH   5  17
ATOM     17  C   UNL     1       9.025   1.083  21.626  0.00  0.00    +0.424 C 
ATOM     18  F   UNL     1       8.318   2.225  21.429  0.00  0.00    -0.166 F 
ATOM     19  F   UNL     1       9.082   0.446  20.427  0.00  0.00    -0.166 F 
ATOM     20  F   UNL     1      10.299   1.487  21.885  0.00  0.00    -0.166 F 
ENDBRANCH   5  17
BRANCH   4  21
ATOM     21  N   UNL     1       8.437   2.088  24.339  0.00  0.00    +0.080 N 
ATOM     22  O   UNL     1       9.595   2.372  24.667  0.00  0.00    +0.041 OA
ATOM     23  O   UNL     1       7.494   2.881  24.249  0.00  0.00    -0.576 OA
ENDBRANCH   4  21
TORSDOF 3
ENDMDL
MODEL 3
REMARK VINA RESULT:      -6.9      2.359      3.271
REMARK  Name = 
REMARK  5 active torsions:
REMARK  status: ('A' for Active; 'I' for Inactive)
REMARK    1  A    between atoms: C_1  and  C_2
REMARK    2  A    between atoms: C_2  and  C_3
REMARK    3  A    between atoms: N_7  and  C_10
REMARK    4  A    between atoms: C_12  and  C_19
REMARK    5  A    between atoms: C_13  and  N_16
REMARK                            x       y       z     vdW  Elec       q    Type
REMARK                         _______ _______ _______ _____ _____    ______ ____
ROOT
ATOM      1  C   UNL     1       8.307  -0.947  23.356  0.00  0.00    +0.046 A 
ATOM      2  C   UNL     1       9.027  -1.361  24.491  0.00  0.00    +0.030 A 
ATOM      3  C   UNL     1       9.016  -2.690  24.931  0.00  0.00    +0.087 A 
ATOM      4  C   UNL     1       8.265  -3.638  24.238  0.00  0.00    +0.285 A 
ATOM      5  C   UNL     1       7.525  -3.290  23.105  0.00  0.00    +0.133 A 
ATOM      6  C   UNL     1       7.565  -1.940  22.681  0.00  0.00    +0.043 A 
ENDROOT
BRANCH   1  11
ATOM      7  C   UNL     1       8.544   3.914  23.454  0.00  0.00    +0.041 C 
ATOM      8  C   UNL     1       7.913   2.749  22.706  0.00  0.00    +0.107 C 
ATOM      9  C   UNL     1       7.795   1.499  23.590  0.00  0.00    +0.250 C 
ATOM     10  O   UNL     1       7.237   1.525  24.681  0.00  0.00    -0.272 OA
ATOM     11  N   UNL     1       8.328   0.415  22.910  0.00  0.00    -0.192 N 
ATOM     12  C   UNL     1       8.882   0.867  21.732  0.00  0.00    +0.314 C 
ATOM     13  O   UNL     1       9.407   0.251  20.817  0.00  0.00    -0.252 OA
ATOM     14  N   UNL     1       8.764   2.238  21.673  0.00  0.00    -0.285 N 
ATOM     15  H   UNL     1       9.024   2.727  20.825  0.00  0.00    +0.151 HD
ATOM     16  C   UNL     1       6.540   3.103  22.141  0.00  0.00    +0.041 C 
ENDBRANCH   1  11
BRANCH   5  17
ATOM     17  C   UNL     1       6.723  -4.306  22.332  0.00  0.00    +0.424 C 
ATOM     18  F   UNL     1       7.477  -5.329  21.854  0.00  0.00    -0.166 F 
ATOM     19  F   UNL     1       6.086  -3.756  21.265  0.00  0.00    -0.166 F 
ATOM     20  F   UNL     1       5.746  -4.895  23.076  0.00  0.00    -0.166 F 
ENDBRANCH   5  17
BRANCH   4  21
ATOM     21  N   UNL     1       8.292  -5.006  24.734  0.00  0.00    +0.080 N 
ATOM     22  O   UNL     1       9.219  -5.725  24.343  0.00  0.00    +0.041 OA
ATOM     23  O   UNL     1       7.407  -5.332  25.532  0.00  0.00    -0.576 OA
ENDBRANCH   4  21
TORSDOF 3
ENDMDL
MODEL 4
REMARK VINA RESULT:      -6.7      2.524      3.153
REMARK  Name = 
REMARK  5 active torsions:
REMARK  status: ('A' for Active; 'I' for Inactive)
REMARK    1  A    between atoms: C_1  and  C_2
REMARK    2  A    between atoms: C_2  and  C_3
REMARK    3  A    between atoms: N_7  and  C_10
REMARK    4  A    between atoms: C_12  and  C_19
REMARK    5  A    between atoms: C_13  and  N_16
REMARK                            x       y       z     vdW  Elec       q    Type
REMARK                         _______ _______ _______ _____ _____    ______ ____
ROOT
ATOM      1  C   UNL     1       8.079  -1.168  23.333  0.00  0.00    +0.046 A 
ATOM      2  C   UNL     1       6.700  -1.387  23.168  0.00  0.00    +0.030 A 
ATOM      3  C   UNL     1       6.090  -2.588  23.550  0.00  0.00    +0.087 A 
ATOM      4  C   UNL     1       6.864  -3.608  24.103  0.00  0.00    +0.285 A 
ATOM      5  C   UNL     1       8.241  -3.453  24.290  0.00  0.00    +0.133 A 
ATOM      6  C   UNL     1       8.823  -2.224  23.901  0.00  0.00    +0.043 A 
ENDROOT
BRANCH   1  11
ATOM      7  C   UNL     1      10.689   2.934  23.559  0.00  0.00    +0.041 C 
ATOM      8  C   UNL     1       9.455   2.320  22.914  0.00  0.00    +0.107 C 
ATOM      9  C   UNL     1       8.882   1.172  23.757  0.00  0.00    +0.250 C 
ATOM     10  O   UNL     1       8.594   1.315  24.940  0.00  0.00    -0.272 OA
ATOM     11  N   UNL     1       8.695   0.066  22.943  0.00  0.00    -0.192 N 
ATOM     12  C   UNL     1       9.201   0.351  21.693  0.00  0.00    +0.314 C 
ATOM     13  O   UNL     1       9.200  -0.313  20.668  0.00  0.00    -0.252 OA
ATOM     14  N   UNL     1       9.766   1.608  21.710  0.00  0.00    -0.285 N 
ATOM     15  H   UNL     1      10.092   2.022  20.846  0.00  0.00    +0.151 HD
ATOM     16  C   UNL     1       8.364   3.356  22.657  0.00  0.00    +0.041 C 
ENDBRANCH   1  11
BRANCH   5  17
ATOM     17  C   UNL     1       9.089  -4.538  24.904  0.00  0.00    +0.424 C 
ATOM     18  F   UNL     1       8.814  -4.751  26.216  0.00  0.00    -0.166 F 
ATOM     19  F   UNL     1      10.417  -4.262  24.820  0.00  0.00    -0.166 F 
ATOM     20  F   UNL     1       8.929  -5.748  24.300  0.00  0.00    -0.166 F 
ENDBRANCH   5  17
BRANCH   4  21
ATOM     21  N   UNL     1       6.180  -4.833  24.489  0.00  0.00    +0.080 N 
ATOM     22  O   UNL     1       5.787  -4.910  25.658  0.00  0.00    +0.041 OA
ATOM     23  O   UNL     1       6.016  -5.685  23.610  0.00  0.00    -0.576 OA
ENDBRANCH   4  21
TORSDOF 3
ENDMDL
MODEL 5
REMARK VINA RESULT:      -6.6      3.270      6.509
REMARK  Name = 
REMARK  5 active torsions:
REMARK  status: ('A' for Active; 'I' for Inactive)
REMARK    1  A    between atoms: C_1  and  C_2
REMARK    2  A    between atoms: C_2  and  C_3
REMARK    3  A    between atoms: N_7  and  C_10
REMARK    4  A    between atoms: C_12  and  C_19
REMARK    5  A    between atoms: C_13  and  N_16
REMARK                            x       y       z     vdW  Elec       q    Type
REMARK                         _______ _______ _______ _____ _____    ______ ____
ROOT
ATOM      1  C   UNL     1       7.823  -2.807  25.384  0.00  0.00    +0.046 A 
ATOM      2  C   UNL     1       8.059  -1.841  26.379  0.00  0.00    +0.030 A 
ATOM      3  C   UNL     1       8.832  -0.700  26.135  0.00  0.00    +0.087 A 
ATOM      4  C   UNL     1       9.399  -0.508  24.876  0.00  0.00    +0.285 A 
ATOM      5  C   UNL     1       9.205  -1.433  23.845  0.00  0.00    +0.133 A 
ATOM      6  C   UNL     1       8.411  -2.570  24.122  0.00  0.00    +0.043 A 
ENDROOT
BRANCH   1  11
ATOM      7  C   UNL     1       4.766  -6.526  24.672  0.00  0.00    +0.041 C 
ATOM      8  C   UNL     1       5.225  -5.522  25.719  0.00  0.00    +0.107 C 
ATOM      9  C   UNL     1       5.790  -4.247  25.077  0.00  0.00    +0.250 C 
ATOM     10  O   UNL     1       5.153  -3.594  24.258  0.00  0.00    -0.272 OA
ATOM     11  N   UNL     1       7.027  -3.970  25.640  0.00  0.00    -0.192 N 
ATOM     12  C   UNL     1       7.363  -5.003  26.488  0.00  0.00    +0.314 C 
ATOM     13  O   UNL     1       8.331  -5.143  27.220  0.00  0.00    -0.252 OA
ATOM     14  N   UNL     1       6.383  -5.971  26.433  0.00  0.00    -0.285 N 
ATOM     15  H   UNL     1       6.416  -6.754  27.074  0.00  0.00    +0.151 HD
ATOM     16  C   UNL     1       4.108  -5.151  26.690  0.00  0.00    +0.041 C 
ENDBRANCH   1  11
BRANCH   5  17
ATOM     17  C   UNL     1       9.794  -1.231  22.472  0.00  0.00    +0.424 C 
ATOM     18  F   UNL     1      11.107  -1.567  22.400  0.00  0.00    -0.166 F 
ATOM     19  F   UNL     1       9.694   0.058  22.053  0.00  0.00    -0.166 F 
ATOM     20  F   UNL     1       9.178  -1.975  21.512  0.00  0.00    -0.166 F 
ENDBRANCH   5  17
BRANCH   4  21
ATOM     21  N   UNL     1      10.189   0.697  24.674  0.00  0.00    +0.080 N 
ATOM     22  O   UNL     1      11.418   0.567  24.682  0.00  0.00    +0.041 OA
ATOM     23  O   UNL     1       9.571   1.748  24.475  0.00  0.00    -0.576 OA
ENDBRANCH   4  21
TORSDOF 3
ENDMDL
MODEL 6
REMARK VINA RESULT:      -6.6      4.493      6.458
REMARK  Name = 
REMARK  5 active torsions:
REMARK  status: ('A' for Active; 'I' for Inactive)
REMARK    1  A    between atoms: C_1  and  C_2
REMARK    2  A    between atoms: C_2  and  C_3
REMARK    3  A    between atoms: N_7  and  C_10
REMARK    4  A    between atoms: C_12  and  C_19
REMARK    5  A    between atoms: C_13  and  N_16
REMARK                            x       y       z     vdW  Elec       q    Type
REMARK                         _______ _______ _______ _____ _____    ______ ____
ROOT
ATOM      1  C   UNL     1       9.821   2.501  23.513  0.00  0.00    +0.046 A 
ATOM      2  C   UNL     1       9.955   2.079  22.178  0.00  0.00    +0.030 A 
ATOM      3  C   UNL     1       9.813   0.736  21.808  0.00  0.00    +0.087 A 
ATOM      4  C   UNL     1       9.540  -0.222  22.784  0.00  0.00    +0.285 A 
ATOM      5  C   UNL     1       9.398   0.133  24.129  0.00  0.00    +0.133 A 
ATOM      6  C   UNL     1       9.539   1.500  24.467  0.00  0.00    +0.043 A 
ENDROOT
BRANCH   1  11
ATOM      7  C   UNL     1       9.401   6.647  26.027  0.00  0.00    +0.041 C 
ATOM      8  C   UNL     1       9.511   6.097  24.612  0.00  0.00    +0.107 C 
ATOM      9  C   UNL     1       9.006   4.650  24.522  0.00  0.00    +0.250 C 
ATOM     10  O   UNL     1       7.890   4.325  24.912  0.00  0.00    -0.272 OA
ATOM     11  N   UNL     1       9.964   3.878  23.882  0.00  0.00    -0.192 N 
ATOM     12  C   UNL     1      11.078   4.658  23.661  0.00  0.00    +0.314 C 
ATOM     13  O   UNL     1      12.125   4.398  23.088  0.00  0.00    -0.252 OA
ATOM     14  N   UNL     1      10.872   5.907  24.205  0.00  0.00    -0.285 N 
ATOM     15  H   UNL     1      11.548   6.642  24.042  0.00  0.00    +0.151 HD
ATOM     16  C   UNL     1       8.765   6.959  23.599  0.00  0.00    +0.041 C 
ENDBRANCH   1  11
BRANCH   5  17
ATOM     17  C   UNL     1       9.083  -0.887  25.194  0.00  0.00    +0.424 C 
ATOM     18  F   UNL     1       9.840  -2.010  25.098  0.00  0.00    -0.166 F 
ATOM     19  F   UNL     1       7.784  -1.284  25.158  0.00  0.00    -0.166 F 
ATOM     20  F   UNL     1       9.287  -0.421  26.457  0.00  0.00    -0.166 F 
ENDBRANCH   5  17
BRANCH   4  21
ATOM     21  N   UNL     1       9.396  -1.602  22.346  0.00  0.00    +0.080 N 
ATOM     22  O   UNL     1       8.254  -1.985  22.068  0.00  0.00    +0.041 OA
ATOM     23  O   UNL     1      10.429  -2.272  22.252  0.00  0.00    -0.576 OA
ENDBRANCH   4  21
TORSDOF 3
ENDMDL
MODEL 7
REMARK VINA RESULT:      -6.5      3.798      6.827
REMARK  Name = 
REMARK  5 active torsions:
REMARK  status: ('A' for Active; 'I' for Inactive)
REMARK    1  A    between atoms: C_1  and  C_2
REMARK    2  A    between atoms: C_2  and  C_3
REMARK    3  A    between atoms: N_7  and  C_10
REMARK    4  A    between atoms: C_12  and  C_19
REMARK    5  A    between atoms: C_13  and  N_16
REMARK                            x       y       z     vdW  Elec       q    Type
REMARK                         _______ _______ _______ _____ _____    ______ ____
ROOT
ATOM      1  C   UNL     1       8.013  -1.921  22.780  0.00  0.00    +0.046 A 
ATOM      2  C   UNL     1       8.965  -1.473  21.847  0.00  0.00    +0.030 A 
ATOM      3  C   UNL     1       9.425  -0.151  21.833  0.00  0.00    +0.087 A 
ATOM      4  C   UNL     1       8.925   0.761  22.762  0.00  0.00    +0.285 A 
ATOM      5  C   UNL     1       7.974   0.380  23.713  0.00  0.00    +0.133 A 
ATOM      6  C   UNL     1       7.537  -0.966  23.704  0.00  0.00    +0.043 A 
ENDROOT
BRANCH   1  11
ATOM      7  C   UNL     1       6.052  -6.113  21.273  0.00  0.00    +0.041 C 
ATOM      8  C   UNL     1       6.223  -5.230  22.501  0.00  0.00    +0.107 C 
ATOM      9  C   UNL     1       6.435  -3.758  22.120  0.00  0.00    +0.250 C 
ATOM     10  O   UNL     1       5.654  -3.155  21.392  0.00  0.00    -0.272 OA
ATOM     11  N   UNL     1       7.551  -3.277  22.789  0.00  0.00    -0.192 N 
ATOM     12  C   UNL     1       8.141  -4.323  23.463  0.00  0.00    +0.314 C 
ATOM     13  O   UNL     1       9.107  -4.338  24.211  0.00  0.00    -0.252 OA
ATOM     14  N   UNL     1       7.453  -5.485  23.189  0.00  0.00    -0.285 N 
ATOM     15  H   UNL     1       7.687  -6.335  23.687  0.00  0.00    +0.151 HD
ATOM     16  C   UNL     1       5.040  -5.342  23.459  0.00  0.00    +0.041 C 
ENDBRANCH   1  11
BRANCH   5  17
ATOM     17  C   UNL     1       7.437   1.348  24.736  0.00  0.00    +0.424 C 
ATOM     18  F   UNL     1       8.409   1.919  25.492  0.00  0.00    -0.166 F 
ATOM     19  F   UNL     1       6.566   0.757  25.596  0.00  0.00    -0.166 F 
ATOM     20  F   UNL     1       6.753   2.387  24.182  0.00  0.00    -0.166 F 
ENDBRANCH   5  17
BRANCH   4  21
ATOM     21  N   UNL     1       9.440   2.121  22.709  0.00  0.00    +0.080 N 
ATOM     22  O   UNL     1      10.505   2.339  23.297  0.00  0.00    +0.041 OA
ATOM     23  O   UNL     1       8.791   2.942  22.052  0.00  0.00    -0.576 OA
ENDBRANCH   4  21
TORSDOF 3
ENDMDL
MODEL 8
REMARK VINA RESULT:      -6.5      2.057      2.621
REMARK  Name = 
REMARK  5 active torsions:
REMARK  status: ('A' for Active; 'I' for Inactive)
REMARK    1  A    between atoms: C_1  and  C_2
REMARK    2  A    between atoms: C_2  and  C_3
REMARK    3  A    between atoms: N_7  and  C_10
REMARK    4  A    between atoms: C_12  and  C_19
REMARK    5  A    between atoms: C_13  and  N_16
REMARK                            x       y       z     vdW  Elec       q    Type
REMARK                         _______ _______ _______ _____ _____    ______ ____
ROOT
ATOM      1  C   UNL     1       7.758  -1.573  23.484  0.00  0.00    +0.046 A 
ATOM      2  C   UNL     1       6.638  -1.418  22.648  0.00  0.00    +0.030 A 
ATOM      3  C   UNL     1       5.913  -2.516  22.169  0.00  0.00    +0.087 A 
ATOM      4  C   UNL     1       6.310  -3.807  22.517  0.00  0.00    +0.285 A 
ATOM      5  C   UNL     1       7.416  -4.028  23.342  0.00  0.00    +0.133 A 
ATOM      6  C   UNL     1       8.120  -2.896  23.816  0.00  0.00    +0.043 A 
ENDROOT
BRANCH   1  11
ATOM      7  C   UNL     1      10.105   2.690  23.568  0.00  0.00    +0.041 C 
ATOM      8  C   UNL     1      10.086   1.307  24.204  0.00  0.00    +0.107 C 
ATOM      9  C   UNL     1       9.460   0.260  23.272  0.00  0.00    +0.250 C 
ATOM     10  O   UNL     1       9.860   0.086  22.127  0.00  0.00    -0.272 OA
ATOM     11  N   UNL     1       8.492  -0.443  23.973  0.00  0.00    -0.192 N 
ATOM     12  C   UNL     1       8.353   0.127  25.220  0.00  0.00    +0.314 C 
ATOM     13  O   UNL     1       7.656  -0.202  26.167  0.00  0.00    -0.252 OA
ATOM     14  N   UNL     1       9.178   1.227  25.309  0.00  0.00    -0.285 N 
ATOM     15  H   UNL     1       9.282   1.705  26.195  0.00  0.00    +0.151 HD
ATOM     16  C   UNL     1      11.480   0.847  24.622  0.00  0.00    +0.041 C 
ENDBRANCH   1  11
BRANCH   5  17
ATOM     17  C   UNL     1       7.846  -5.416  23.744  0.00  0.00    +0.424 C 
ATOM     18  F   UNL     1       8.982  -5.428  24.487  0.00  0.00    -0.166 F 
ATOM     19  F   UNL     1       8.072  -6.216  22.669  0.00  0.00    -0.166 F 
ATOM     20  F   UNL     1       6.916  -6.068  24.495  0.00  0.00    -0.166 F 
ENDBRANCH   5  17
BRANCH   4  21
ATOM     21  N   UNL     1       5.519  -4.913  21.997  0.00  0.00    +0.080 N 
ATOM     22  O   UNL     1       4.538  -5.260  22.664  0.00  0.00    +0.041 OA
ATOM     23  O   UNL     1       5.869  -5.394  20.915  0.00  0.00    -0.576 OA
ENDBRANCH   4  21
TORSDOF 3
ENDMDL
MODEL 9
REMARK VINA RESULT:      -6.5      1.966      2.546
REMARK  Name = 
REMARK  5 active torsions:
REMARK  status: ('A' for Active; 'I' for Inactive)
REMARK    1  A    between atoms: C_1  and  C_2
REMARK    2  A    between atoms: C_2  and  C_3
REMARK    3  A    between atoms: N_7  and  C_10
REMARK    4  A    between atoms: C_12  and  C_19
REMARK    5  A    between atoms: C_13  and  N_16
REMARK                            x       y       z     vdW  Elec       q    Type
REMARK                         _______ _______ _______ _____ _____    ______ ____
ROOT
ATOM      1  C   UNL     1       7.528  -2.400  23.322  0.00  0.00    +0.046 A 
ATOM      2  C   UNL     1       6.940  -2.823  22.117  0.00  0.00    +0.030 A 
ATOM      3  C   UNL     1       5.944  -3.807  22.083  0.00  0.00    +0.087 A 
ATOM      4  C   UNL     1       5.522  -4.400  23.272  0.00  0.00    +0.285 A 
ATOM      5  C   UNL     1       6.070  -4.027  24.503  0.00  0.00    +0.133 A 
ATOM      6  C   UNL     1       7.067  -3.023  24.502  0.00  0.00    +0.043 A 
ENDROOT
BRANCH   1  11
ATOM      7  C   UNL     1       9.864   1.735  24.385  0.00  0.00    +0.041 C 
ATOM      8  C   UNL     1       9.673   0.703  23.283  0.00  0.00    +0.107 C 
ATOM      9  C   UNL     1       8.326  -0.022  23.408  0.00  0.00    +0.250 C 
ATOM     10  O   UNL     1       7.263   0.586  23.472  0.00  0.00    -0.272 OA
ATOM     11  N   UNL     1       8.544  -1.390  23.348  0.00  0.00    -0.192 N 
ATOM     12  C   UNL     1       9.903  -1.615  23.318  0.00  0.00    +0.314 C 
ATOM     13  O   UNL     1      10.530  -2.659  23.214  0.00  0.00    -0.252 OA
ATOM     14  N   UNL     1      10.564  -0.411  23.418  0.00  0.00    -0.285 N 
ATOM     15  H   UNL     1      11.570  -0.380  23.305  0.00  0.00    +0.151 HD
ATOM     16  C   UNL     1       9.792   1.318  21.892  0.00  0.00    +0.041 C 
ENDBRANCH   1  11
BRANCH   5  17
ATOM     17  C   UNL     1       5.611  -4.643  25.800  0.00  0.00    +0.424 C 
ATOM     18  F   UNL     1       4.263  -4.611  25.959  0.00  0.00    -0.166 F 
ATOM     19  F   UNL     1       6.149  -4.023  26.883  0.00  0.00    -0.166 F 
ATOM     20  F   UNL     1       5.958  -5.955  25.921  0.00  0.00    -0.166 F 
ENDBRANCH   5  17
BRANCH   4  21
ATOM     21  N   UNL     1       4.481  -5.413  23.182  0.00  0.00    +0.080 N 
ATOM     22  O   UNL     1       3.327  -5.013  22.994  0.00  0.00    +0.041 OA
ATOM     23  O   UNL     1       4.836  -6.592  23.267  0.00  0.00    -0.576 OA
ENDBRANCH   4  21
TORSDOF 3
ENDMDL
