MODEL 1
REMARK VINA RESULT:      -6.1      0.000      0.000
REMARK  Name = 
REMARK  4 active torsions:
REMARK  status: ('A' for Active; 'I' for Inactive)
REMARK    1  A    between atoms: O_1  and  C_2
REMARK    2  A    between atoms: C_5  and  O_6
REMARK    3  A    between atoms: O_6  and  C_7
REMARK    4  A    between atoms: C_7  and  C_8
REMARK                            x       y       z     vdW  Elec       q    Type
REMARK                         _______ _______ _______ _____ _____    ______ ____
ROOT
ATOM      1  C   UNL     1       8.062  -5.092  26.399  0.00  0.00    +0.117 A 
ATOM      2  C   UNL     1       9.355  -4.807  25.977  0.00  0.00    +0.049 A 
ATOM      3  C   UNL     1       9.552  -3.959  24.885  0.00  0.00    +0.049 A 
ATOM      4  C   UNL     1       8.458  -3.388  24.230  0.00  0.00    +0.121 A 
ATOM      5  C   UNL     1       7.162  -3.712  24.642  0.00  0.00    +0.049 A 
ATOM      6  C   UNL     1       6.963  -4.557  25.737  0.00  0.00    +0.049 A 
ENDROOT
BRANCH   1   7
ATOM      7  O   UNL     1       7.906  -5.907  27.479  0.00  0.00    -0.507 OA
ATOM      8  H   UNL     1       7.586  -6.770  27.173  0.00  0.00    +0.292 HD
ENDBRANCH   1   7
BRANCH   4   9
ATOM      9  O   UNL     1       8.765  -2.534  23.206  0.00  0.00    -0.487 OA
BRANCH   9  10
ATOM     10  C   UNL     1      10.126  -2.101  23.159  0.00  0.00    +0.264 C 
BRANCH  10  11
ATOM     11  C   UNL     1      10.178  -0.598  23.055  0.00  0.00    -0.010 A 
ATOM     12  C   UNL     1      10.585   0.170  24.156  0.00  0.00    +0.007 A 
ATOM     13  C   UNL     1      10.588   1.563  24.086  0.00  0.00    +0.000 A 
ATOM     14  C   UNL     1      10.182   2.202  22.916  0.00  0.00    +0.000 A 
ATOM     15  C   UNL     1       9.770   1.449  21.817  0.00  0.00    +0.000 A 
ATOM     16  C   UNL     1       9.764   0.055  21.887  0.00  0.00    +0.007 A 
ENDBRANCH  10  11
ENDBRANCH   9  10
ENDBRANCH   4   9
TORSDOF 4
ENDMDL
MODEL 2
REMARK VINA RESULT:      -6.1      2.235      6.180
REMARK  Name = 
REMARK  4 active torsions:
REMARK  status: ('A' for Active; 'I' for Inactive)
REMARK    1  A    between atoms: O_1  and  C_2
REMARK    2  A    between atoms: C_5  and  O_6
REMARK    3  A    between atoms: O_6  and  C_7
REMARK    4  A    between atoms: C_7  and  C_8
REMARK                            x       y       z     vdW  Elec       q    Type
REMARK                         _______ _______ _______ _____ _____    ______ ____
ROOT
ATOM      1  C   UNL     1       9.853   0.961  22.095  0.00  0.00    +0.117 A 
ATOM      2  C   UNL     1       9.464  -0.123  21.319  0.00  0.00    +0.049 A 
ATOM      3  C   UNL     1       9.493  -1.408  21.866  0.00  0.00    +0.049 A 
ATOM      4  C   UNL     1       9.894  -1.600  23.190  0.00  0.00    +0.121 A 
ATOM      5  C   UNL     1      10.317  -0.505  23.948  0.00  0.00    +0.049 A 
ATOM      6  C   UNL     1      10.286   0.781  23.404  0.00  0.00    +0.049 A 
ENDROOT
BRANCH   1   7
ATOM      7  O   UNL     1       9.794   2.202  21.536  0.00  0.00    -0.507 OA
ATOM      8  H   UNL     1      10.306   2.196  20.711  0.00  0.00    +0.292 HD
ENDBRANCH   1   7
BRANCH   4   9
ATOM      9  O   UNL     1       9.837  -2.892  23.641  0.00  0.00    -0.487 OA
BRANCH   9  10
ATOM     10  C   UNL     1       8.659  -3.231  24.376  0.00  0.00    +0.264 C 
BRANCH  10  11
ATOM     11  C   UNL     1       7.695  -3.965  23.479  0.00  0.00    -0.010 A 
ATOM     12  C   UNL     1       7.914  -5.315  23.165  0.00  0.00    +0.007 A 
ATOM     13  C   UNL     1       7.056  -5.989  22.297  0.00  0.00    +0.000 A 
ATOM     14  C   UNL     1       5.972  -5.319  21.731  0.00  0.00    +0.000 A 
ATOM     15  C   UNL     1       5.748  -3.977  22.031  0.00  0.00    +0.000 A 
ATOM     16  C   UNL     1       6.608  -3.300  22.897  0.00  0.00    +0.007 A 
ENDBRANCH  10  11
ENDBRANCH   9  10
ENDBRANCH   4   9
TORSDOF 4
ENDMDL
MODEL 3
REMARK VINA RESULT:      -6.0      2.305      6.222
REMARK  Name = 
REMARK  4 active torsions:
REMARK  status: ('A' for Active; 'I' for Inactive)
REMARK    1  A    between atoms: O_1  and  C_2
REMARK    2  A    between atoms: C_5  and  O_6
REMARK    3  A    between atoms: O_6  and  C_7
REMARK    4  A    between atoms: C_7  and  C_8
REMARK                            x       y       z     vdW  Elec       q    Type
REMARK                         _______ _______ _______ _____ _____    ______ ____
ROOT
ATOM      1  C   UNL     1      10.060   1.218  22.246  0.00  0.00    +0.117 A 
ATOM      2  C   UNL     1      10.339   0.916  23.573  0.00  0.00    +0.049 A 
ATOM      3  C   UNL     1      10.199  -0.397  24.026  0.00  0.00    +0.049 A 
ATOM      4  C   UNL     1       9.797  -1.406  23.147  0.00  0.00    +0.121 A 
ATOM      5  C   UNL     1       9.485  -1.083  21.823  0.00  0.00    +0.049 A 
ATOM      6  C   UNL     1       9.628   0.230  21.368  0.00  0.00    +0.049 A 
ENDROOT
BRANCH   1   7
ATOM      7  O   UNL     1      10.226   2.505  21.833  0.00  0.00    -0.507 OA
ATOM      8  H   UNL     1      11.093   2.584  21.404  0.00  0.00    +0.292 HD
ENDBRANCH   1   7
BRANCH   4   9
ATOM      9  O   UNL     1       9.741  -2.665  23.682  0.00  0.00    -0.487 OA
BRANCH   9  10
ATOM     10  C   UNL     1       8.496  -3.016  24.288  0.00  0.00    +0.264 C 
BRANCH  10  11
ATOM     11  C   UNL     1       7.671  -3.827  23.321  0.00  0.00    -0.010 A 
ATOM     12  C   UNL     1       6.692  -3.203  22.533  0.00  0.00    +0.007 A 
ATOM     13  C   UNL     1       5.891  -3.953  21.673  0.00  0.00    +0.000 A 
ATOM     14  C   UNL     1       6.058  -5.334  21.594  0.00  0.00    +0.000 A 
ATOM     15  C   UNL     1       7.023  -5.966  22.376  0.00  0.00    +0.000 A 
ATOM     16  C   UNL     1       7.824  -5.218  23.239  0.00  0.00    +0.007 A 
ENDBRANCH  10  11
ENDBRANCH   9  10
ENDBRANCH   4   9
TORSDOF 4
ENDMDL
MODEL 4
REMARK VINA RESULT:      -5.9      2.147      2.846
REMARK  Name = 
REMARK  4 active torsions:
REMARK  status: ('A' for Active; 'I' for Inactive)
REMARK    1  A    between atoms: O_1  and  C_2
REMARK    2  A    between atoms: C_5  and  O_6
REMARK    3  A    between atoms: O_6  and  C_7
REMARK    4  A    between atoms: C_7  and  C_8
REMARK                            x       y       z     vdW  Elec       q    Type
REMARK                         _______ _______ _______ _____ _____    ______ ____
ROOT
ATOM      1  C   UNL     1       6.300  -5.161  21.741  0.00  0.00    +0.117 A 
ATOM      2  C   UNL     1       7.255  -5.642  22.628  0.00  0.00    +0.049 A 
ATOM      3  C   UNL     1       7.999  -4.742  23.394  0.00  0.00    +0.049 A 
ATOM      4  C   UNL     1       7.774  -3.367  23.282  0.00  0.00    +0.121 A 
ATOM      5  C   UNL     1       6.835  -2.896  22.360  0.00  0.00    +0.049 A 
ATOM      6  C   UNL     1       6.088  -3.795  21.595  0.00  0.00    +0.049 A 
ENDROOT
BRANCH   1   7
ATOM      7  O   UNL     1       5.579  -6.067  21.024  0.00  0.00    -0.507 OA
ATOM      8  H   UNL     1       4.844  -6.384  21.574  0.00  0.00    +0.292 HD
ENDBRANCH   1   7
BRANCH   4   9
ATOM      9  O   UNL     1       8.522  -2.578  24.114  0.00  0.00    -0.487 OA
BRANCH   9  10
ATOM     10  C   UNL     1       9.861  -2.331  23.681  0.00  0.00    +0.264 C 
BRANCH  10  11
ATOM     11  C   UNL     1      10.021  -0.872  23.334  0.00  0.00    -0.010 A 
ATOM     12  C   UNL     1      10.459   0.039  24.307  0.00  0.00    +0.007 A 
ATOM     13  C   UNL     1      10.562   1.398  24.010  0.00  0.00    +0.000 A 
ATOM     14  C   UNL     1      10.225   1.859  22.739  0.00  0.00    +0.000 A 
ATOM     15  C   UNL     1       9.783   0.964  21.766  0.00  0.00    +0.000 A 
ATOM     16  C   UNL     1       9.677  -0.395  22.062  0.00  0.00    +0.007 A 
ENDBRANCH  10  11
ENDBRANCH   9  10
ENDBRANCH   4   9
TORSDOF 4
ENDMDL
MODEL 5
REMARK VINA RESULT:      -5.9      1.991      2.944
REMARK  Name = 
REMARK  4 active torsions:
REMARK  status: ('A' for Active; 'I' for Inactive)
REMARK    1  A    between atoms: O_1  and  C_2
REMARK    2  A    between atoms: C_5  and  O_6
REMARK    3  A    between atoms: O_6  and  C_7
REMARK    4  A    between atoms: C_7  and  C_8
REMARK                            x       y       z     vdW  Elec       q    Type
REMARK                         _______ _______ _______ _____ _____    ______ ____
ROOT
ATOM      1  C   UNL     1       6.196  -5.020  22.122  0.00  0.00    +0.117 A 
ATOM      2  C   UNL     1       7.122  -5.501  23.039  0.00  0.00    +0.049 A 
ATOM      3  C   UNL     1       8.030  -4.619  23.629  0.00  0.00    +0.049 A 
ATOM      4  C   UNL     1       7.998  -3.259  23.313  0.00  0.00    +0.121 A 
ATOM      5  C   UNL     1       7.085  -2.794  22.362  0.00  0.00    +0.049 A 
ATOM      6  C   UNL     1       6.173  -3.674  21.773  0.00  0.00    +0.049 A 
ENDROOT
BRANCH   1   7
ATOM      7  O   UNL     1       5.312  -5.903  21.580  0.00  0.00    -0.507 OA
ATOM      8  H   UNL     1       4.620  -6.090  22.235  0.00  0.00    +0.292 HD
ENDBRANCH   1   7
BRANCH   4   9
ATOM      9  O   UNL     1       8.897  -2.476  23.985  0.00  0.00    -0.487 OA
BRANCH   9  10
ATOM     10  C   UNL     1      10.040  -2.071  23.229  0.00  0.00    +0.264 C 
BRANCH  10  11
ATOM     11  C   UNL     1      10.078  -0.567  23.133  0.00  0.00    -0.010 A 
ATOM     12  C   UNL     1       9.744   0.071  21.929  0.00  0.00    +0.007 A 
ATOM     13  C   UNL     1       9.824   1.458  21.816  0.00  0.00    +0.000 A 
ATOM     14  C   UNL     1      10.244   2.222  22.904  0.00  0.00    +0.000 A 
ATOM     15  C   UNL     1      10.585   1.599  24.103  0.00  0.00    +0.000 A 
ATOM     16  C   UNL     1      10.507   0.210  24.217  0.00  0.00    +0.007 A 
ENDBRANCH  10  11
ENDBRANCH   9  10
ENDBRANCH   4   9
TORSDOF 4
ENDMDL
MODEL 6
REMARK VINA RESULT:      -5.8      2.101      6.145
REMARK  Name = 
REMARK  4 active torsions:
REMARK  status: ('A' for Active; 'I' for Inactive)
REMARK    1  A    between atoms: O_1  and  C_2
REMARK    2  A    between atoms: C_5  and  O_6
REMARK    3  A    between atoms: O_6  and  C_7
REMARK    4  A    between atoms: C_7  and  C_8
REMARK                            x       y       z     vdW  Elec       q    Type
REMARK                         _______ _______ _______ _____ _____    ______ ____
ROOT
ATOM      1  C   UNL     1      10.210   2.278  23.022  0.00  0.00    +0.117 A 
ATOM      2  C   UNL     1      10.640   1.501  24.091  0.00  0.00    +0.049 A 
ATOM      3  C   UNL     1      10.630   0.109  23.978  0.00  0.00    +0.049 A 
ATOM      4  C   UNL     1      10.208  -0.499  22.793  0.00  0.00    +0.121 A 
ATOM      5  C   UNL     1       9.744   0.293  21.739  0.00  0.00    +0.049 A 
ATOM      6  C   UNL     1       9.756   1.686  21.849  0.00  0.00    +0.049 A 
ENDROOT
BRANCH   1   7
ATOM      7  O   UNL     1      10.251   3.633  23.159  0.00  0.00    -0.507 OA
ATOM      8  H   UNL     1       9.601   3.896  23.830  0.00  0.00    +0.292 HD
ENDBRANCH   1   7
BRANCH   4   9
ATOM      9  O   UNL     1      10.286  -1.865  22.772  0.00  0.00    -0.487 OA
BRANCH   9  10
ATOM     10  C   UNL     1       9.754  -2.526  23.922  0.00  0.00    +0.264 C 
BRANCH  10  11
ATOM     11  C   UNL     1       8.495  -3.264  23.546  0.00  0.00    -0.010 A 
ATOM     12  C   UNL     1       8.109  -4.408  24.261  0.00  0.00    +0.007 A 
ATOM     13  C   UNL     1       6.973  -5.127  23.889  0.00  0.00    +0.000 A 
ATOM     14  C   UNL     1       6.213  -4.711  22.796  0.00  0.00    +0.000 A 
ATOM     15  C   UNL     1       6.590  -3.580  22.075  0.00  0.00    +0.000 A 
ATOM     16  C   UNL     1       7.728  -2.861  22.444  0.00  0.00    +0.007 A 
ENDBRANCH  10  11
ENDBRANCH   9  10
ENDBRANCH   4   9
TORSDOF 4
ENDMDL
MODEL 7
REMARK VINA RESULT:      -5.7      1.729      6.343
REMARK  Name = 
REMARK  4 active torsions:
REMARK  status: ('A' for Active; 'I' for Inactive)
REMARK    1  A    between atoms: O_1  and  C_2
REMARK    2  A    between atoms: C_5  and  O_6
REMARK    3  A    between atoms: O_6  and  C_7
REMARK    4  A    between atoms: C_7  and  C_8
REMARK                            x       y       z     vdW  Elec       q    Type
REMARK                         _______ _______ _______ _____ _____    ______ ____
ROOT
ATOM      1  C   UNL     1      10.301   2.169  23.012  0.00  0.00    +0.117 A 
ATOM      2  C   UNL     1      10.622   1.428  24.142  0.00  0.00    +0.049 A 
ATOM      3  C   UNL     1      10.483   0.038  24.116  0.00  0.00    +0.049 A 
ATOM      4  C   UNL     1      10.040  -0.604  22.958  0.00  0.00    +0.121 A 
ATOM      5  C   UNL     1       9.685   0.156  21.840  0.00  0.00    +0.049 A 
ATOM      6  C   UNL     1       9.827   1.546  21.862  0.00  0.00    +0.049 A 
ENDROOT
BRANCH   1   7
ATOM      7  O   UNL     1      10.466   3.520  23.064  0.00  0.00    -0.507 OA
ATOM      8  H   UNL     1       9.615   3.945  22.869  0.00  0.00    +0.292 HD
ENDBRANCH   1   7
BRANCH   4   9
ATOM      9  O   UNL     1       9.988  -1.970  23.025  0.00  0.00    -0.487 OA
BRANCH   9  10
ATOM     10  C   UNL     1       8.682  -2.539  22.907  0.00  0.00    +0.264 C 
BRANCH  10  11
ATOM     11  C   UNL     1       8.471  -3.556  24.000  0.00  0.00    -0.010 A 
ATOM     12  C   UNL     1       7.186  -4.059  24.255  0.00  0.00    +0.007 A 
ATOM     13  C   UNL     1       6.972  -4.962  25.296  0.00  0.00    +0.000 A 
ATOM     14  C   UNL     1       8.040  -5.370  26.094  0.00  0.00    +0.000 A 
ATOM     15  C   UNL     1       9.320  -4.873  25.853  0.00  0.00    +0.000 A 
ATOM     16  C   UNL     1       9.535  -3.967  24.814  0.00  0.00    +0.007 A 
ENDBRANCH  10  11
ENDBRANCH   9  10
ENDBRANCH   4   9
TORSDOF 4
ENDMDL
MODEL 8
REMARK VINA RESULT:      -5.5      2.506      3.362
REMARK  Name = 
REMARK  4 active torsions:
REMARK  status: ('A' for Active; 'I' for Inactive)
REMARK    1  A    between atoms: O_1  and  C_2
REMARK    2  A    between atoms: C_5  and  O_6
REMARK    3  A    between atoms: O_6  and  C_7
REMARK    4  A    between atoms: C_7  and  C_8
REMARK                            x       y       z     vdW  Elec       q    Type
REMARK                         _______ _______ _______ _____ _____    ______ ____
ROOT
ATOM      1  C   UNL     1       5.090  -5.928  22.963  0.00  0.00    +0.117 A 
ATOM      2  C   UNL     1       5.411  -5.431  24.220  0.00  0.00    +0.049 A 
ATOM      3  C   UNL     1       6.687  -4.910  24.450  0.00  0.00    +0.049 A 
ATOM      4  C   UNL     1       7.629  -4.874  23.420  0.00  0.00    +0.121 A 
ATOM      5  C   UNL     1       7.305  -5.411  22.170  0.00  0.00    +0.049 A 
ATOM      6  C   UNL     1       6.029  -5.928  21.937  0.00  0.00    +0.049 A 
ENDROOT
BRANCH   1   7
ATOM      7  O   UNL     1       3.831  -6.410  22.767  0.00  0.00    -0.507 OA
ATOM      8  H   UNL     1       3.654  -7.093  23.434  0.00  0.00    +0.292 HD
ENDBRANCH   1   7
BRANCH   4   9
ATOM      9  O   UNL     1       8.829  -4.298  23.739  0.00  0.00    -0.487 OA
BRANCH   9  10
ATOM     10  C   UNL     1       8.746  -3.123  24.548  0.00  0.00    +0.264 C 
BRANCH  10  11
ATOM     11  C   UNL     1       9.174  -1.922  23.743  0.00  0.00    -0.010 A 
ATOM     12  C   UNL     1       8.894  -1.858  22.370  0.00  0.00    +0.007 A 
ATOM     13  C   UNL     1       9.328  -0.775  21.607  0.00  0.00    +0.000 A 
ATOM     14  C   UNL     1      10.051   0.254  22.209  0.00  0.00    +0.000 A 
ATOM     15  C   UNL     1      10.340   0.199  23.571  0.00  0.00    +0.000 A 
ATOM     16  C   UNL     1       9.908  -0.886  24.335  0.00  0.00    +0.007 A 
ENDBRANCH  10  11
ENDBRANCH   9  10
ENDBRANCH   4   9
TORSDOF 4
ENDMDL
MODEL 9
REMARK VINA RESULT:      -5.3      2.389      6.038
REMARK  Name = 
REMARK  4 active torsions:
REMARK  status: ('A' for Active; 'I' for Inactive)
REMARK    1  A    between atoms: O_1  and  C_2
REMARK    2  A    between atoms: C_5  and  O_6
REMARK    3  A    between atoms: O_6  and  C_7
REMARK    4  A    between atoms: C_7  and  C_8
REMARK                            x       y       z     vdW  Elec       q    Type
REMARK                         _______ _______ _______ _____ _____    ______ ____
ROOT
ATOM      1  C   UNL     1       9.755   0.224  24.638  0.00  0.00    +0.117 A 
ATOM      2  C   UNL     1       9.055  -0.554  25.552  0.00  0.00    +0.049 A 
ATOM      3  C   UNL     1       8.936  -1.929  25.338  0.00  0.00    +0.049 A 
ATOM      4  C   UNL     1       9.529  -2.522  24.220  0.00  0.00    +0.121 A 
ATOM      5  C   UNL     1      10.199  -1.722  23.290  0.00  0.00    +0.049 A 
ATOM      6  C   UNL     1      10.322  -0.347  23.504  0.00  0.00    +0.049 A 
ENDROOT
BRANCH   1   7
ATOM      7  O   UNL     1       9.869   1.558  24.888  0.00  0.00    -0.507 OA
ATOM      8  H   UNL     1       9.857   1.696  25.849  0.00  0.00    +0.292 HD
ENDBRANCH   1   7
BRANCH   4   9
ATOM      9  O   UNL     1       9.394  -3.881  24.134  0.00  0.00    -0.487 OA
BRANCH   9  10
ATOM     10  C   UNL     1       8.318  -4.437  24.893  0.00  0.00    +0.264 C 
BRANCH  10  11
ATOM     11  C   UNL     1       7.267  -4.983  23.959  0.00  0.00    -0.010 A 
ATOM     12  C   UNL     1       7.590  -5.266  22.624  0.00  0.00    +0.007 A 
ATOM     13  C   UNL     1       6.613  -5.724  21.740  0.00  0.00    +0.000 A 
ATOM     14  C   UNL     1       5.302  -5.899  22.182  0.00  0.00    +0.000 A 
ATOM     15  C   UNL     1       4.969  -5.616  23.506  0.00  0.00    +0.000 A 
ATOM     16  C   UNL     1       5.945  -5.155  24.390  0.00  0.00    +0.007 A 
ENDBRANCH  10  11
ENDBRANCH   9  10
ENDBRANCH   4   9
TORSDOF 4
ENDMDL
