MODEL 1
REMARK VINA RESULT:      -7.1      0.000      0.000
REMARK  Name = 
REMARK  8 active torsions:
REMARK  status: ('A' for Active; 'I' for Inactive)
REMARK    1  A    between atoms: C_1  and  C_2
REMARK    2  A    between atoms: C_2  and  C_3
REMARK    3  A    between atoms: C_2  and  N_4
REMARK    4  A    between atoms: N_4  and  C_5
REMARK    5  A    between atoms: C_5  and  C_6
REMARK    6  A    between atoms: C_6  and  C_7
REMARK    7  A    between atoms: C_7  and  C_8
REMARK    8  A    between atoms: C_8  and  C_9
REMARK                            x       y       z     vdW  Elec       q    Type
REMARK                         _______ _______ _______ _____ _____    ______ ____
ROOT
ATOM      1  C   UNL     1       8.215  -4.097  24.833  0.00  0.00    +0.098 C 
ATOM      2  C   UNL     1       7.179  -3.159  25.463  0.00  0.00    -0.020 A 
ATOM      3  C   UNL     1       5.957  -3.246  24.763  0.00  0.00    -0.013 A 
ATOM      4  C   UNL     1       4.898  -2.420  25.103  0.00  0.00    +0.009 A 
ATOM      5  C   UNL     1       5.070  -1.514  26.156  0.00  0.00    +0.001 A 
ATOM      6  C   UNL     1       6.283  -1.447  26.861  0.00  0.00    +0.000 A 
ATOM      7  C   UNL     1       6.076  -4.241  23.717  0.00  0.00    -0.013 A 
ATOM      8  C   UNL     1       5.153  -4.682  22.782  0.00  0.00    +0.009 A 
ATOM      9  C   UNL     1       5.548  -5.663  21.866  0.00  0.00    +0.001 A 
ATOM     10  C   UNL     1       6.849  -6.191  21.890  0.00  0.00    +0.000 A 
ATOM     11  C   UNL     1       7.781  -5.746  22.827  0.00  0.00    +0.005 A 
ATOM     12  C   UNL     1       7.352  -2.272  26.518  0.00  0.00    +0.005 A 
ATOM     13  C   UNL     1       7.383  -4.774  23.734  0.00  0.00    -0.020 A 
ENDROOT
BRANCH   1  14
ATOM     14  C   UNL     1       8.733  -5.137  25.856  0.00  0.00    +0.225 C 
ATOM     15  O   UNL     1       8.018  -5.703  26.681  0.00  0.00    -0.275 OA
ATOM     16  N   UNL     1      10.069  -5.430  25.816  0.00  0.00    -0.328 N 
ATOM     17  H   UNL     1      10.438  -6.063  26.513  0.00  0.00    +0.145 HD
ATOM     18  H   UNL     1      10.715  -4.905  25.241  0.00  0.00    +0.145 HD
ENDBRANCH   1  14
BRANCH   1  19
ATOM     19  C   UNL     1       9.398  -3.299  24.231  0.00  0.00    +0.027 C 
BRANCH  19  20
ATOM     20  C   UNL     1       9.011  -2.294  23.127  0.00  0.00    +0.017 C 
BRANCH  20  21
ATOM     21  C   UNL     1      10.184  -1.441  22.634  0.00  0.00    +0.081 C 
BRANCH  21  22
ATOM     22  N   UNL     1       9.771  -0.600  21.515  0.00  0.00    -0.314 NA
ATOM     23  H   UNL     1      10.363  -0.800  20.709  0.00  0.00    +0.122 HD
BRANCH  22  25
ATOM     24  C   UNL     1       8.458   1.422  21.526  0.00  0.00    +0.023 C 
ATOM     25  C   UNL     1       9.849   0.838  21.788  0.00  0.00    +0.047 C 
ATOM     26  C   UNL     1      10.276   1.141  23.225  0.00  0.00    +0.023 C 
ENDBRANCH  22  25
ENDBRANCH  21  22
ENDBRANCH  20  21
ENDBRANCH  19  20
ENDBRANCH   1  19
TORSDOF 6
ENDMDL
MODEL 2
REMARK VINA RESULT:      -7.0      2.087      3.446
REMARK  Name = 
REMARK  8 active torsions:
REMARK  status: ('A' for Active; 'I' for Inactive)
REMARK    1  A    between atoms: C_1  and  C_2
REMARK    2  A    between atoms: C_2  and  C_3
REMARK    3  A    between atoms: C_2  and  N_4
REMARK    4  A    between atoms: N_4  and  C_5
REMARK    5  A    between atoms: C_5  and  C_6
REMARK    6  A    between atoms: C_6  and  C_7
REMARK    7  A    between atoms: C_7  and  C_8
REMARK    8  A    between atoms: C_8  and  C_9
REMARK                            x       y       z     vdW  Elec       q    Type
REMARK                         _______ _______ _______ _____ _____    ______ ____
ROOT
ATOM      1  C   UNL     1       8.423  -3.918  24.946  0.00  0.00    +0.098 C 
ATOM      2  C   UNL     1       6.965  -4.142  24.529  0.00  0.00    -0.020 A 
ATOM      3  C   UNL     1       6.653  -3.345  23.408  0.00  0.00    -0.013 A 
ATOM      4  C   UNL     1       5.362  -3.320  22.907  0.00  0.00    +0.009 A 
ATOM      5  C   UNL     1       4.388  -4.106  23.533  0.00  0.00    +0.001 A 
ATOM      6  C   UNL     1       4.710  -4.913  24.637  0.00  0.00    +0.000 A 
ATOM      7  C   UNL     1       7.838  -2.624  22.990  0.00  0.00    -0.013 A 
ATOM      8  C   UNL     1       8.032  -1.734  21.947  0.00  0.00    +0.009 A 
ATOM      9  C   UNL     1       9.300  -1.168  21.779  0.00  0.00    +0.001 A 
ATOM     10  C   UNL     1      10.356  -1.492  22.646  0.00  0.00    +0.000 A 
ATOM     11  C   UNL     1      10.163  -2.385  23.700  0.00  0.00    +0.005 A 
ATOM     12  C   UNL     1       6.007  -4.936  25.146  0.00  0.00    +0.005 A 
ATOM     13  C   UNL     1       8.903  -2.944  23.861  0.00  0.00    -0.020 A 
ENDROOT
BRANCH   1  14
ATOM     14  C   UNL     1       9.232  -5.236  24.907  0.00  0.00    +0.225 C 
ATOM     15  O   UNL     1       9.135  -6.075  24.013  0.00  0.00    -0.275 OA
ATOM     16  N   UNL     1      10.106  -5.456  25.938  0.00  0.00    -0.328 N 
ATOM     17  H   UNL     1      10.602  -6.337  25.960  0.00  0.00    +0.145 HD
ATOM     18  H   UNL     1      10.132  -4.858  26.753  0.00  0.00    +0.145 HD
ENDBRANCH   1  14
BRANCH   1  19
ATOM     19  C   UNL     1       8.508  -3.276  26.354  0.00  0.00    +0.027 C 
BRANCH  19  20
ATOM     20  C   UNL     1       7.776  -1.926  26.500  0.00  0.00    +0.017 C 
BRANCH  20  21
ATOM     21  C   UNL     1       8.686  -0.780  26.949  0.00  0.00    +0.081 C 
BRANCH  21  22
ATOM     22  N   UNL     1       8.223   0.490  26.396  0.00  0.00    -0.314 NA
ATOM     23  H   UNL     1       7.235   0.612  26.620  0.00  0.00    +0.122 HD
BRANCH  22  25
ATOM     24  C   UNL     1       6.995   0.929  24.369  0.00  0.00    +0.023 C 
ATOM     25  C   UNL     1       8.375   0.599  24.942  0.00  0.00    +0.047 C 
ATOM     26  C   UNL     1       9.378   1.679  24.535  0.00  0.00    +0.023 C 
ENDBRANCH  22  25
ENDBRANCH  21  22
ENDBRANCH  20  21
ENDBRANCH  19  20
ENDBRANCH   1  19
TORSDOF 6
ENDMDL
MODEL 3
REMARK VINA RESULT:      -6.6      2.688      5.905
REMARK  Name = 
REMARK  8 active torsions:
REMARK  status: ('A' for Active; 'I' for Inactive)
REMARK    1  A    between atoms: C_1  and  C_2
REMARK    2  A    between atoms: C_2  and  C_3
REMARK    3  A    between atoms: C_2  and  N_4
REMARK    4  A    between atoms: N_4  and  C_5
REMARK    5  A    between atoms: C_5  and  C_6
REMARK    6  A    between atoms: C_6  and  C_7
REMARK    7  A    between atoms: C_7  and  C_8
REMARK    8  A    between atoms: C_8  and  C_9
REMARK                            x       y       z     vdW  Elec       q    Type
REMARK                         _______ _______ _______ _____ _____    ______ ____
ROOT
ATOM      1  C   UNL     1       7.766  -4.505  24.922  0.00  0.00    +0.098 C 
ATOM      2  C   UNL     1       7.234  -4.673  23.494  0.00  0.00    -0.020 A 
ATOM      3  C   UNL     1       6.541  -3.510  23.096  0.00  0.00    -0.013 A 
ATOM      4  C   UNL     1       5.899  -3.468  21.869  0.00  0.00    +0.009 A 
ATOM      5  C   UNL     1       5.964  -4.595  21.041  0.00  0.00    +0.001 A 
ATOM      6  C   UNL     1       6.673  -5.741  21.437  0.00  0.00    +0.000 A 
ATOM      7  C   UNL     1       6.617  -2.522  24.153  0.00  0.00    -0.013 A 
ATOM      8  C   UNL     1       6.104  -1.238  24.226  0.00  0.00    +0.009 A 
ATOM      9  C   UNL     1       6.322  -0.498  25.393  0.00  0.00    +0.001 A 
ATOM     10  C   UNL     1       7.043  -1.041  26.468  0.00  0.00    +0.000 A 
ATOM     11  C   UNL     1       7.558  -2.335  26.398  0.00  0.00    +0.005 A 
ATOM     12  C   UNL     1       7.316  -5.789  22.672  0.00  0.00    +0.005 A 
ATOM     13  C   UNL     1       7.339  -3.064  25.238  0.00  0.00    -0.020 A 
ENDROOT
BRANCH   1  14
ATOM     14  C   UNL     1       9.305  -4.652  24.974  0.00  0.00    +0.225 C 
ATOM     15  O   UNL     1      10.088  -3.873  24.434  0.00  0.00    -0.275 OA
ATOM     16  N   UNL     1       9.801  -5.719  25.674  0.00  0.00    -0.328 N 
ATOM     17  H   UNL     1      10.802  -5.865  25.671  0.00  0.00    +0.145 HD
ATOM     18  H   UNL     1       9.200  -6.450  26.030  0.00  0.00    +0.145 HD
ENDBRANCH   1  14
BRANCH   1  19
ATOM     19  C   UNL     1       7.096  -5.514  25.889  0.00  0.00    +0.027 C 
BRANCH  19  20
ATOM     20  C   UNL     1       5.563  -5.386  26.004  0.00  0.00    +0.017 C 
BRANCH  20  21
ATOM     21  C   UNL     1       4.830  -6.729  25.953  0.00  0.00    +0.081 C 
BRANCH  21  22
ATOM     22  N   UNL     1       4.637  -7.157  24.570  0.00  0.00    -0.314 NA
ATOM     23  H   UNL     1       5.263  -6.625  23.965  0.00  0.00    +0.122 HD
BRANCH  22  25
ATOM     24  C   UNL     1       2.348  -6.965  25.298  0.00  0.00    +0.023 C 
ATOM     25  C   UNL     1       3.270  -6.979  24.076  0.00  0.00    +0.047 C 
ATOM     26  C   UNL     1       3.095  -5.685  23.280  0.00  0.00    +0.023 C 
ENDBRANCH  22  25
ENDBRANCH  21  22
ENDBRANCH  20  21
ENDBRANCH  19  20
ENDBRANCH   1  19
TORSDOF 6
ENDMDL
MODEL 4
REMARK VINA RESULT:      -6.5      2.552      3.888
REMARK  Name = 
REMARK  8 active torsions:
REMARK  status: ('A' for Active; 'I' for Inactive)
REMARK    1  A    between atoms: C_1  and  C_2
REMARK    2  A    between atoms: C_2  and  C_3
REMARK    3  A    between atoms: C_2  and  N_4
REMARK    4  A    between atoms: N_4  and  C_5
REMARK    5  A    between atoms: C_5  and  C_6
REMARK    6  A    between atoms: C_6  and  C_7
REMARK    7  A    between atoms: C_7  and  C_8
REMARK    8  A    between atoms: C_8  and  C_9
REMARK                            x       y       z     vdW  Elec       q    Type
REMARK                         _______ _______ _______ _____ _____    ______ ____
ROOT
ATOM      1  C   UNL     1       5.796  -4.556  23.087  0.00  0.00    +0.098 C 
ATOM      2  C   UNL     1       6.906  -4.799  24.117  0.00  0.00    -0.020 A 
ATOM      3  C   UNL     1       6.343  -5.168  25.357  0.00  0.00    -0.013 A 
ATOM      4  C   UNL     1       7.157  -5.355  26.463  0.00  0.00    +0.009 A 
ATOM      5  C   UNL     1       8.537  -5.177  26.315  0.00  0.00    +0.001 A 
ATOM      6  C   UNL     1       9.091  -4.828  25.072  0.00  0.00    +0.000 A 
ATOM      7  C   UNL     1       4.903  -5.252  25.223  0.00  0.00    -0.013 A 
ATOM      8  C   UNL     1       3.929  -5.581  26.150  0.00  0.00    +0.009 A 
ATOM      9  C   UNL     1       2.590  -5.571  25.744  0.00  0.00    +0.001 A 
ATOM     10  C   UNL     1       2.238  -5.235  24.427  0.00  0.00    +0.000 A 
ATOM     11  C   UNL     1       3.217  -4.900  23.492  0.00  0.00    +0.005 A 
ATOM     12  C   UNL     1       8.275  -4.635  23.958  0.00  0.00    +0.005 A 
ATOM     13  C   UNL     1       4.543  -4.912  23.901  0.00  0.00    -0.020 A 
ENDROOT
BRANCH   1  14
ATOM     14  C   UNL     1       5.946  -5.489  21.862  0.00  0.00    +0.225 C 
ATOM     15  O   UNL     1       5.947  -5.098  20.696  0.00  0.00    -0.275 OA
ATOM     16  N   UNL     1       6.088  -6.827  22.118  0.00  0.00    -0.328 N 
ATOM     17  H   UNL     1       6.130  -7.459  21.330  0.00  0.00    +0.145 HD
ATOM     18  H   UNL     1       5.972  -7.208  23.047  0.00  0.00    +0.145 HD
ENDBRANCH   1  14
BRANCH   1  19
ATOM     19  C   UNL     1       5.769  -3.074  22.635  0.00  0.00    +0.027 C 
BRANCH  19  20
ATOM     20  C   UNL     1       5.953  -2.044  23.767  0.00  0.00    +0.017 C 
BRANCH  20  21
ATOM     21  C   UNL     1       7.122  -1.082  23.538  0.00  0.00    +0.081 C 
BRANCH  21  22
ATOM     22  N   UNL     1       7.884  -1.473  22.356  0.00  0.00    -0.314 NA
ATOM     23  H   UNL     1       7.684  -2.449  22.137  0.00  0.00    +0.122 HD
BRANCH  22  25
ATOM     24  C   UNL     1       9.746  -0.078  21.725  0.00  0.00    +0.023 C 
ATOM     25  C   UNL     1       9.334  -1.329  22.507  0.00  0.00    +0.047 C 
ATOM     26  C   UNL     1       9.763  -1.192  23.968  0.00  0.00    +0.023 C 
ENDBRANCH  22  25
ENDBRANCH  21  22
ENDBRANCH  20  21
ENDBRANCH  19  20
ENDBRANCH   1  19
TORSDOF 6
ENDMDL
MODEL 5
REMARK VINA RESULT:      -6.5      1.920      4.104
REMARK  Name = 
REMARK  8 active torsions:
REMARK  status: ('A' for Active; 'I' for Inactive)
REMARK    1  A    between atoms: C_1  and  C_2
REMARK    2  A    between atoms: C_2  and  C_3
REMARK    3  A    between atoms: C_2  and  N_4
REMARK    4  A    between atoms: N_4  and  C_5
REMARK    5  A    between atoms: C_5  and  C_6
REMARK    6  A    between atoms: C_6  and  C_7
REMARK    7  A    between atoms: C_7  and  C_8
REMARK    8  A    between atoms: C_8  and  C_9
REMARK                            x       y       z     vdW  Elec       q    Type
REMARK                         _______ _______ _______ _____ _____    ______ ____
ROOT
ATOM      1  C   UNL     1       8.326  -3.524  24.975  0.00  0.00    +0.098 C 
ATOM      2  C   UNL     1       7.370  -4.242  24.015  0.00  0.00    -0.020 A 
ATOM      3  C   UNL     1       7.397  -3.618  22.750  0.00  0.00    -0.013 A 
ATOM      4  C   UNL     1       6.545  -4.046  21.744  0.00  0.00    +0.009 A 
ATOM      5  C   UNL     1       5.673  -5.107  22.014  0.00  0.00    +0.001 A 
ATOM      6  C   UNL     1       5.666  -5.734  23.270  0.00  0.00    +0.000 A 
ATOM      7  C   UNL     1       8.368  -2.544  22.767  0.00  0.00    -0.013 A 
ATOM      8  C   UNL     1       8.752  -1.660  21.772  0.00  0.00    +0.009 A 
ATOM      9  C   UNL     1       9.722  -0.697  22.074  0.00  0.00    +0.001 A 
ATOM     10  C   UNL     1      10.294  -0.625  23.353  0.00  0.00    +0.000 A 
ATOM     11  C   UNL     1       9.906  -1.511  24.358  0.00  0.00    +0.005 A 
ATOM     12  C   UNL     1       6.518  -5.304  24.286  0.00  0.00    +0.005 A 
ATOM     13  C   UNL     1       8.945  -2.464  24.053  0.00  0.00    -0.020 A 
ENDROOT
BRANCH   1  14
ATOM     14  C   UNL     1       9.409  -4.486  25.519  0.00  0.00    +0.225 C 
ATOM     15  O   UNL     1      10.319  -4.954  24.836  0.00  0.00    -0.275 OA
ATOM     16  N   UNL     1       9.331  -4.819  26.845  0.00  0.00    -0.328 N 
ATOM     17  H   UNL     1       9.995  -5.491  27.206  0.00  0.00    +0.145 HD
ATOM     18  H   UNL     1       8.538  -4.559  27.415  0.00  0.00    +0.145 HD
ENDBRANCH   1  14
BRANCH   1  19
ATOM     19  C   UNL     1       7.553  -2.868  26.146  0.00  0.00    +0.027 C 
BRANCH  19  20
ATOM     20  C   UNL     1       7.078  -1.423  25.885  0.00  0.00    +0.017 C 
BRANCH  20  21
ATOM     21  C   UNL     1       5.683  -1.339  25.259  0.00  0.00    +0.081 C 
BRANCH  21  22
ATOM     22  N   UNL     1       5.715  -0.535  24.040  0.00  0.00    -0.314 NA
ATOM     23  H   UNL     1       6.248  -1.031  23.326  0.00  0.00    +0.122 HD
BRANCH  22  25
ATOM     24  C   UNL     1       6.743   1.277  22.828  0.00  0.00    +0.023 C 
ATOM     25  C   UNL     1       6.315   0.790  24.215  0.00  0.00    +0.047 C 
ATOM     26  C   UNL     1       5.347   1.795  24.841  0.00  0.00    +0.023 C 
ENDBRANCH  22  25
ENDBRANCH  21  22
ENDBRANCH  20  21
ENDBRANCH  19  20
ENDBRANCH   1  19
TORSDOF 6
ENDMDL
MODEL 6
REMARK VINA RESULT:      -6.4      2.215      2.842
REMARK  Name = 
REMARK  8 active torsions:
REMARK  status: ('A' for Active; 'I' for Inactive)
REMARK    1  A    between atoms: C_1  and  C_2
REMARK    2  A    between atoms: C_2  and  C_3
REMARK    3  A    between atoms: C_2  and  N_4
REMARK    4  A    between atoms: N_4  and  C_5
REMARK    5  A    between atoms: C_5  and  C_6
REMARK    6  A    between atoms: C_6  and  C_7
REMARK    7  A    between atoms: C_7  and  C_8
REMARK    8  A    between atoms: C_8  and  C_9
REMARK                            x       y       z     vdW  Elec       q    Type
REMARK                         _______ _______ _______ _____ _____    ______ ____
ROOT
ATOM      1  C   UNL     1       7.734  -4.354  25.073  0.00  0.00    +0.098 C 
ATOM      2  C   UNL     1       6.951  -5.141  26.131  0.00  0.00    -0.020 A 
ATOM      3  C   UNL     1       5.907  -5.867  25.519  0.00  0.00    -0.013 A 
ATOM      4  C   UNL     1       5.012  -6.587  26.295  0.00  0.00    +0.009 A 
ATOM      5  C   UNL     1       5.176  -6.581  27.684  0.00  0.00    +0.001 A 
ATOM      6  C   UNL     1       6.230  -5.871  28.284  0.00  0.00    +0.000 A 
ATOM      7  C   UNL     1       5.963  -5.671  24.086  0.00  0.00    -0.013 A 
ATOM      8  C   UNL     1       5.164  -6.176  23.074  0.00  0.00    +0.009 A 
ATOM      9  C   UNL     1       5.444  -5.804  21.754  0.00  0.00    +0.001 A 
ATOM     10  C   UNL     1       6.509  -4.939  21.458  0.00  0.00    +0.000 A 
ATOM     11  C   UNL     1       7.313  -4.425  22.475  0.00  0.00    +0.005 A 
ATOM     12  C   UNL     1       7.129  -5.142  27.508  0.00  0.00    +0.005 A 
ATOM     13  C   UNL     1       7.031  -4.798  23.782  0.00  0.00    -0.020 A 
ENDROOT
BRANCH   1  14
ATOM     14  C   UNL     1       9.228  -4.757  25.059  0.00  0.00    +0.225 C 
ATOM     15  O   UNL     1      10.124  -4.054  24.595  0.00  0.00    -0.275 OA
ATOM     16  N   UNL     1       9.546  -5.972  25.604  0.00  0.00    -0.328 N 
ATOM     17  H   UNL     1      10.508  -6.278  25.552  0.00  0.00    +0.145 HD
ATOM     18  H   UNL     1       8.835  -6.634  25.885  0.00  0.00    +0.145 HD
ENDBRANCH   1  14
BRANCH   1  19
ATOM     19  C   UNL     1       7.590  -2.827  25.295  0.00  0.00    +0.027 C 
BRANCH  19  20
ATOM     20  C   UNL     1       6.151  -2.285  25.177  0.00  0.00    +0.017 C 
BRANCH  20  21
ATOM     21  C   UNL     1       6.073  -0.874  24.587  0.00  0.00    +0.081 C 
BRANCH  21  22
ATOM     22  N   UNL     1       6.362  -0.900  23.155  0.00  0.00    -0.314 NA
ATOM     23  H   UNL     1       6.540  -1.862  22.867  0.00  0.00    +0.122 HD
BRANCH  22  25
ATOM     24  C   UNL     1       7.917   0.742  23.988  0.00  0.00    +0.023 C 
ATOM     25  C   UNL     1       7.517  -0.088  22.765  0.00  0.00    +0.047 C 
ATOM     26  C   UNL     1       8.704  -0.936  22.304  0.00  0.00    +0.023 C 
ENDBRANCH  22  25
ENDBRANCH  21  22
ENDBRANCH  20  21
ENDBRANCH  19  20
ENDBRANCH   1  19
TORSDOF 6
ENDMDL
MODEL 7
REMARK VINA RESULT:      -6.3      1.244      1.524
REMARK  Name = 
REMARK  8 active torsions:
REMARK  status: ('A' for Active; 'I' for Inactive)
REMARK    1  A    between atoms: C_1  and  C_2
REMARK    2  A    between atoms: C_2  and  C_3
REMARK    3  A    between atoms: C_2  and  N_4
REMARK    4  A    between atoms: N_4  and  C_5
REMARK    5  A    between atoms: C_5  and  C_6
REMARK    6  A    between atoms: C_6  and  C_7
REMARK    7  A    between atoms: C_7  and  C_8
REMARK    8  A    between atoms: C_8  and  C_9
REMARK                            x       y       z     vdW  Elec       q    Type
REMARK                         _______ _______ _______ _____ _____    ______ ____
ROOT
ATOM      1  C   UNL     1       7.526  -4.076  25.335  0.00  0.00    +0.098 C 
ATOM      2  C   UNL     1       6.213  -3.486  25.865  0.00  0.00    -0.020 A 
ATOM      3  C   UNL     1       5.165  -3.742  24.955  0.00  0.00    -0.013 A 
ATOM      4  C   UNL     1       3.901  -3.225  25.185  0.00  0.00    +0.009 A 
ATOM      5  C   UNL     1       3.692  -2.459  26.337  0.00  0.00    +0.001 A 
ATOM      6  C   UNL     1       4.736  -2.225  27.248  0.00  0.00    +0.000 A 
ATOM      7  C   UNL     1       5.673  -4.532  23.851  0.00  0.00    -0.013 A 
ATOM      8  C   UNL     1       5.032  -5.031  22.730  0.00  0.00    +0.009 A 
ATOM      9  C   UNL     1       5.782  -5.763  21.803  0.00  0.00    +0.001 A 
ATOM     10  C   UNL     1       7.153  -5.990  22.002  0.00  0.00    +0.000 A 
ATOM     11  C   UNL     1       7.802  -5.485  23.128  0.00  0.00    +0.005 A 
ATOM     12  C   UNL     1       6.010  -2.738  27.017  0.00  0.00    +0.005 A 
ATOM     13  C   UNL     1       7.053  -4.760  24.044  0.00  0.00    -0.020 A 
ENDROOT
BRANCH   1  14
ATOM     14  C   UNL     1       8.121  -5.108  26.323  0.00  0.00    +0.225 C 
ATOM     15  O   UNL     1       7.455  -5.952  26.919  0.00  0.00    -0.275 OA
ATOM     16  N   UNL     1       9.475  -5.060  26.525  0.00  0.00    -0.328 N 
ATOM     17  H   UNL     1       9.875  -5.687  27.210  0.00  0.00    +0.145 HD
ATOM     18  H   UNL     1      10.044  -4.311  26.154  0.00  0.00    +0.145 HD
ENDBRANCH   1  14
BRANCH   1  19
ATOM     19  C   UNL     1       8.558  -2.961  25.035  0.00  0.00    +0.027 C 
BRANCH  19  20
ATOM     20  C   UNL     1       8.043  -1.824  24.128  0.00  0.00    +0.017 C 
BRANCH  20  21
ATOM     21  C   UNL     1       8.366  -0.423  24.656  0.00  0.00    +0.081 C 
BRANCH  21  22
ATOM     22  N   UNL     1       8.252   0.566  23.588  0.00  0.00    -0.314 NA
ATOM     23  H   UNL     1       8.114   0.086  22.700  0.00  0.00    +0.122 HD
BRANCH  22  25
ATOM     24  C   UNL     1      10.486   0.914  24.423  0.00  0.00    +0.023 C 
ATOM     25  C   UNL     1       9.421   1.439  23.455  0.00  0.00    +0.047 C 
ATOM     26  C   UNL     1       9.980   1.462  22.032  0.00  0.00    +0.023 C 
ENDBRANCH  22  25
ENDBRANCH  21  22
ENDBRANCH  20  21
ENDBRANCH  19  20
ENDBRANCH   1  19
TORSDOF 6
ENDMDL
MODEL 8
REMARK VINA RESULT:      -6.3      2.815      4.337
REMARK  Name = 
REMARK  8 active torsions:
REMARK  status: ('A' for Active; 'I' for Inactive)
REMARK    1  A    between atoms: C_1  and  C_2
REMARK    2  A    between atoms: C_2  and  C_3
REMARK    3  A    between atoms: C_2  and  N_4
REMARK    4  A    between atoms: N_4  and  C_5
REMARK    5  A    between atoms: C_5  and  C_6
REMARK    6  A    between atoms: C_6  and  C_7
REMARK    7  A    between atoms: C_7  and  C_8
REMARK    8  A    between atoms: C_8  and  C_9
REMARK                            x       y       z     vdW  Elec       q    Type
REMARK                         _______ _______ _______ _____ _____    ______ ____
ROOT
ATOM      1  C   UNL     1       7.712  -4.312  24.950  0.00  0.00    +0.098 C 
ATOM      2  C   UNL     1       6.929  -5.063  26.034  0.00  0.00    -0.020 A 
ATOM      3  C   UNL     1       5.912  -5.843  25.444  0.00  0.00    -0.013 A 
ATOM      4  C   UNL     1       5.021  -6.543  26.241  0.00  0.00    +0.009 A 
ATOM      5  C   UNL     1       5.162  -6.463  27.631  0.00  0.00    +0.001 A 
ATOM      6  C   UNL     1       6.190  -5.699  28.210  0.00  0.00    +0.000 A 
ATOM      7  C   UNL     1       5.989  -5.718  24.003  0.00  0.00    -0.013 A 
ATOM      8  C   UNL     1       5.218  -6.293  23.006  0.00  0.00    +0.009 A 
ATOM      9  C   UNL     1       5.512  -5.982  21.674  0.00  0.00    +0.001 A 
ATOM     10  C   UNL     1       6.562  -5.108  21.351  0.00  0.00    +0.000 A 
ATOM     11  C   UNL     1       7.336  -4.525  22.353  0.00  0.00    +0.005 A 
ATOM     12  C   UNL     1       7.085  -4.990  27.412  0.00  0.00    +0.005 A 
ATOM     13  C   UNL     1       7.041  -4.837  23.672  0.00  0.00    -0.020 A 
ENDROOT
BRANCH   1  14
ATOM     14  C   UNL     1       9.214  -4.680  24.979  0.00  0.00    +0.225 C 
ATOM     15  O   UNL     1      10.107  -3.956  24.542  0.00  0.00    -0.275 OA
ATOM     16  N   UNL     1       9.545  -5.887  25.534  0.00  0.00    -0.328 N 
ATOM     17  H   UNL     1      10.515  -6.171  25.510  0.00  0.00    +0.145 HD
ATOM     18  H   UNL     1       8.842  -6.566  25.794  0.00  0.00    +0.145 HD
ENDBRANCH   1  14
BRANCH   1  19
ATOM     19  C   UNL     1       7.530  -2.780  25.091  0.00  0.00    +0.027 C 
BRANCH  19  20
ATOM     20  C   UNL     1       6.172  -2.237  24.599  0.00  0.00    +0.017 C 
BRANCH  20  21
ATOM     21  C   UNL     1       5.557  -1.188  25.529  0.00  0.00    +0.081 C 
BRANCH  21  22
ATOM     22  N   UNL     1       4.169  -1.525  25.835  0.00  0.00    -0.314 NA
ATOM     23  H   UNL     1       3.866  -0.988  26.647  0.00  0.00    +0.122 HD
BRANCH  22  25
ATOM     24  C   UNL     1       3.567  -3.051  27.601  0.00  0.00    +0.023 C 
ATOM     25  C   UNL     1       3.949  -2.945  26.122  0.00  0.00    +0.047 C 
ATOM     26  C   UNL     1       2.847  -3.556  25.257  0.00  0.00    +0.023 C 
ENDBRANCH  22  25
ENDBRANCH  21  22
ENDBRANCH  20  21
ENDBRANCH  19  20
ENDBRANCH   1  19
TORSDOF 6
ENDMDL
MODEL 9
REMARK VINA RESULT:      -6.2      1.466      2.065
REMARK  Name = 
REMARK  8 active torsions:
REMARK  status: ('A' for Active; 'I' for Inactive)
REMARK    1  A    between atoms: C_1  and  C_2
REMARK    2  A    between atoms: C_2  and  C_3
REMARK    3  A    between atoms: C_2  and  N_4
REMARK    4  A    between atoms: N_4  and  C_5
REMARK    5  A    between atoms: C_5  and  C_6
REMARK    6  A    between atoms: C_6  and  C_7
REMARK    7  A    between atoms: C_7  and  C_8
REMARK    8  A    between atoms: C_8  and  C_9
REMARK                            x       y       z     vdW  Elec       q    Type
REMARK                         _______ _______ _______ _____ _____    ______ ____
ROOT
ATOM      1  C   UNL     1       7.617  -4.256  25.199  0.00  0.00    +0.098 C 
ATOM      2  C   UNL     1       7.567  -2.887  25.886  0.00  0.00    -0.020 A 
ATOM      3  C   UNL     1       6.236  -2.424  25.948  0.00  0.00    -0.013 A 
ATOM      4  C   UNL     1       5.959  -1.164  26.453  0.00  0.00    +0.009 A 
ATOM      5  C   UNL     1       7.024  -0.375  26.902  0.00  0.00    +0.001 A 
ATOM      6  C   UNL     1       8.345  -0.851  26.854  0.00  0.00    +0.000 A 
ATOM      7  C   UNL     1       5.353  -3.430  25.394  0.00  0.00    -0.013 A 
ATOM      8  C   UNL     1       3.977  -3.439  25.245  0.00  0.00    +0.009 A 
ATOM      9  C   UNL     1       3.377  -4.557  24.655  0.00  0.00    +0.001 A 
ATOM     10  C   UNL     1       4.149  -5.647  24.223  0.00  0.00    +0.000 A 
ATOM     11  C   UNL     1       5.536  -5.639  24.368  0.00  0.00    +0.005 A 
ATOM     12  C   UNL     1       8.628  -2.116  26.342  0.00  0.00    +0.005 A 
ATOM     13  C   UNL     1       6.125  -4.528  24.954  0.00  0.00    -0.020 A 
ENDROOT
BRANCH   1  14
ATOM     14  C   UNL     1       8.232  -5.332  26.125  0.00  0.00    +0.225 C 
ATOM     15  O   UNL     1       7.685  -5.758  27.141  0.00  0.00    -0.275 OA
ATOM     16  N   UNL     1       9.457  -5.828  25.769  0.00  0.00    -0.328 N 
ATOM     17  H   UNL     1       9.901  -6.489  26.391  0.00  0.00    +0.145 HD
ATOM     18  H   UNL     1       9.997  -5.426  25.015  0.00  0.00    +0.145 HD
ENDBRANCH   1  14
BRANCH   1  19
ATOM     19  C   UNL     1       8.400  -4.184  23.864  0.00  0.00    +0.027 C 
BRANCH  19  20
ATOM     20  C   UNL     1       7.555  -3.799  22.632  0.00  0.00    +0.017 C 
BRANCH  20  21
ATOM     21  C   UNL     1       7.634  -2.313  22.274  0.00  0.00    +0.081 C 
BRANCH  21  22
ATOM     22  N   UNL     1       9.020  -1.854  22.289  0.00  0.00    -0.314 NA
ATOM     23  H   UNL     1       9.552  -2.418  22.951  0.00  0.00    +0.122 HD
BRANCH  22  25
ATOM     24  C   UNL     1       7.844   0.014  23.258  0.00  0.00    +0.023 C 
ATOM     25  C   UNL     1       9.178  -0.446  22.663  0.00  0.00    +0.047 C 
ATOM     26  C   UNL     1      10.301  -0.229  23.678  0.00  0.00    +0.023 C 
ENDBRANCH  22  25
ENDBRANCH  21  22
ENDBRANCH  20  21
ENDBRANCH  19  20
ENDBRANCH   1  19
TORSDOF 6
ENDMDL
