MODEL 1
REMARK VINA RESULT:      -5.5      0.000      0.000
REMARK  Name = 
REMARK  1 active torsions:
REMARK  status: ('A' for Active; 'I' for Inactive)
REMARK    1  A    between atoms: C_1  and  N_2
REMARK                            x       y       z     vdW  Elec       q    Type
REMARK                         _______ _______ _______ _____ _____    ______ ____
ROOT
ATOM      1  C   UNL     1       4.134  -4.965  23.937  0.00  0.00    +0.155 C 
ATOM      2  N   UNL     1       5.557  -4.833  23.813  0.00  0.00    -0.281 N 
ATOM      3  C   UNL     1       6.497  -5.042  24.789  0.00  0.00    +0.148 A 
ATOM      4  N   UNL     1       6.319  -5.417  26.076  0.00  0.00    -0.292 N 
ATOM      5  H   UNL     1       5.395  -5.585  26.450  0.00  0.00    +0.172 HD
ATOM      6  C   UNL     1       7.380  -5.584  26.932  0.00  0.00    +0.328 A 
ATOM      7  N   UNL     1       8.629  -5.348  26.399  0.00  0.00    -0.273 N 
ATOM      8  H   UNL     1       9.416  -5.469  27.017  0.00  0.00    +0.173 HD
ATOM      9  C   UNL     1       8.901  -4.966  25.102  0.00  0.00    +0.280 A 
ATOM     10  O   UNL     1      10.032  -4.768  24.676  0.00  0.00    -0.265 OA
ATOM     11  O   UNL     1       7.225  -5.924  28.100  0.00  0.00    -0.247 OA
ATOM     12  C   UNL     1       7.706  -4.814  24.273  0.00  0.00    +0.150 A 
ATOM     13  N   UNL     1       7.595  -4.454  22.963  0.00  0.00    -0.300 N 
ATOM     14  H   UNL     1       8.355  -4.227  22.339  0.00  0.00    +0.171 HD
ATOM     15  C   UNL     1       6.230  -4.451  22.621  0.00  0.00    +0.329 A 
ATOM     16  O   UNL     1       5.753  -4.180  21.534  0.00  0.00    -0.247 OA
ENDROOT
TORSDOF 0
ENDMDL
MODEL 2
REMARK VINA RESULT:      -5.3      1.813      4.773
REMARK  Name = 
REMARK  1 active torsions:
REMARK  status: ('A' for Active; 'I' for Inactive)
REMARK    1  A    between atoms: C_1  and  N_2
REMARK                            x       y       z     vdW  Elec       q    Type
REMARK                         _______ _______ _______ _____ _____    ______ ____
ROOT
ATOM      1  C   UNL     1       8.422  -3.880  25.406  0.00  0.00    +0.155 C 
ATOM      2  N   UNL     1       7.336  -4.813  25.493  0.00  0.00    -0.281 N 
ATOM      3  C   UNL     1       6.550  -5.269  24.468  0.00  0.00    +0.148 A 
ATOM      4  N   UNL     1       6.604  -4.961  23.152  0.00  0.00    -0.292 N 
ATOM      5  H   UNL     1       7.290  -4.310  22.794  0.00  0.00    +0.172 HD
ATOM      6  C   UNL     1       5.732  -5.513  22.245  0.00  0.00    +0.328 A 
ATOM      7  N   UNL     1       4.807  -6.396  22.758  0.00  0.00    -0.273 N 
ATOM      8  H   UNL     1       4.162  -6.809  22.102  0.00  0.00    +0.173 HD
ATOM      9  C   UNL     1       4.682  -6.768  24.080  0.00  0.00    +0.280 A 
ATOM     10  O   UNL     1       3.840  -7.558  24.487  0.00  0.00    -0.265 OA
ATOM     11  O   UNL     1       5.777  -5.238  21.051  0.00  0.00    -0.247 OA
ATOM     12  C   UNL     1       5.654  -6.124  24.964  0.00  0.00    +0.150 A 
ATOM     13  N   UNL     1       5.825  -6.251  26.310  0.00  0.00    -0.300 N 
ATOM     14  H   UNL     1       5.281  -6.834  26.930  0.00  0.00    +0.171 HD
ATOM     15  C   UNL     1       6.896  -5.425  26.698  0.00  0.00    +0.329 A 
ATOM     16  O   UNL     1       7.334  -5.284  27.826  0.00  0.00    -0.247 OA
ENDROOT
TORSDOF 0
ENDMDL
MODEL 3
REMARK VINA RESULT:      -5.2      0.994      3.862
REMARK  Name = 
REMARK  1 active torsions:
REMARK  status: ('A' for Active; 'I' for Inactive)
REMARK    1  A    between atoms: C_1  and  N_2
REMARK                            x       y       z     vdW  Elec       q    Type
REMARK                         _______ _______ _______ _____ _____    ______ ____
ROOT
ATOM      1  C   UNL     1       4.970  -6.440  26.204  0.00  0.00    +0.155 C 
ATOM      2  N   UNL     1       6.189  -5.733  25.933  0.00  0.00    -0.281 N 
ATOM      3  C   UNL     1       6.550  -5.125  24.759  0.00  0.00    +0.148 A 
ATOM      4  N   UNL     1       5.864  -5.042  23.597  0.00  0.00    -0.292 N 
ATOM      5  H   UNL     1       4.950  -5.461  23.497  0.00  0.00    +0.172 HD
ATOM      6  C   UNL     1       6.376  -4.387  22.502  0.00  0.00    +0.328 A 
ATOM      7  N   UNL     1       7.624  -3.825  22.664  0.00  0.00    -0.273 N 
ATOM      8  H   UNL     1       8.010  -3.341  21.868  0.00  0.00    +0.173 HD
ATOM      9  C   UNL     1       8.390  -3.860  23.810  0.00  0.00    +0.280 A 
ATOM     10  O   UNL     1       9.497  -3.344  23.903  0.00  0.00    -0.265 OA
ATOM     11  O   UNL     1       5.758  -4.308  21.446  0.00  0.00    -0.247 OA
ATOM     12  C   UNL     1       7.758  -4.581  24.915  0.00  0.00    +0.150 A 
ATOM     13  N   UNL     1       8.217  -4.813  26.178  0.00  0.00    -0.300 N 
ATOM     14  H   UNL     1       9.102  -4.510  26.558  0.00  0.00    +0.171 HD
ATOM     15  C   UNL     1       7.241  -5.553  26.871  0.00  0.00    +0.329 A 
ATOM     16  O   UNL     1       7.305  -5.941  28.023  0.00  0.00    -0.247 OA
ENDROOT
TORSDOF 0
ENDMDL
MODEL 4
REMARK VINA RESULT:      -5.2      1.848      2.954
REMARK  Name = 
REMARK  1 active torsions:
REMARK  status: ('A' for Active; 'I' for Inactive)
REMARK    1  A    between atoms: C_1  and  N_2
REMARK                            x       y       z     vdW  Elec       q    Type
REMARK                         _______ _______ _______ _____ _____    ______ ____
ROOT
ATOM      1  C   UNL     1       7.708  -3.604  22.625  0.00  0.00    +0.155 C 
ATOM      2  N   UNL     1       6.727  -4.607  22.923  0.00  0.00    -0.281 N 
ATOM      3  C   UNL     1       6.431  -5.138  24.151  0.00  0.00    +0.148 A 
ATOM      4  N   UNL     1       6.975  -4.854  25.356  0.00  0.00    -0.292 N 
ATOM      5  H   UNL     1       7.710  -4.165  25.449  0.00  0.00    +0.172 HD
ATOM      6  C   UNL     1       6.559  -5.484  26.503  0.00  0.00    +0.328 A 
ATOM      7  N   UNL     1       5.558  -6.419  26.350  0.00  0.00    -0.273 N 
ATOM      8  H   UNL     1       5.243  -6.888  27.185  0.00  0.00    +0.173 HD
ATOM      9  C   UNL     1       4.947  -6.769  25.164  0.00  0.00    +0.280 A 
ATOM     10  O   UNL     1       4.060  -7.608  25.079  0.00  0.00    -0.265 OA
ATOM     11  O   UNL     1       7.049  -5.229  27.598  0.00  0.00    -0.247 OA
ATOM     12  C   UNL     1       5.462  -6.043  24.002  0.00  0.00    +0.150 A 
ATOM     13  N   UNL     1       5.099  -6.130  22.691  0.00  0.00    -0.300 N 
ATOM     14  H   UNL     1       4.390  -6.736  22.305  0.00  0.00    +0.171 HD
ATOM     15  C   UNL     1       5.888  -5.224  21.956  0.00  0.00    +0.329 A 
ATOM     16  O   UNL     1       5.841  -5.028  20.756  0.00  0.00    -0.247 OA
ENDROOT
TORSDOF 0
ENDMDL
MODEL 5
REMARK VINA RESULT:      -5.2      2.215      3.900
REMARK  Name = 
REMARK  1 active torsions:
REMARK  status: ('A' for Active; 'I' for Inactive)
REMARK    1  A    between atoms: C_1  and  N_2
REMARK                            x       y       z     vdW  Elec       q    Type
REMARK                         _______ _______ _______ _____ _____    ______ ____
ROOT
ATOM      1  C   UNL     1       5.633  -6.057  26.558  0.00  0.00    +0.155 C 
ATOM      2  N   UNL     1       5.485  -6.092  25.131  0.00  0.00    -0.281 N 
ATOM      3  C   UNL     1       6.178  -5.353  24.207  0.00  0.00    +0.148 A 
ATOM      4  N   UNL     1       7.149  -4.434  24.408  0.00  0.00    -0.292 N 
ATOM      5  H   UNL     1       7.465  -4.200  25.339  0.00  0.00    +0.172 HD
ATOM      6  C   UNL     1       7.748  -3.777  23.360  0.00  0.00    +0.328 A 
ATOM      7  N   UNL     1       7.299  -4.113  22.101  0.00  0.00    -0.273 N 
ATOM      8  H   UNL     1       7.732  -3.638  21.324  0.00  0.00    +0.173 HD
ATOM      9  C   UNL     1       6.319  -5.036  21.806  0.00  0.00    +0.280 A 
ATOM     10  O   UNL     1       5.955  -5.300  20.668  0.00  0.00    -0.265 OA
ATOM     11  O   UNL     1       8.629  -2.943  23.536  0.00  0.00    -0.247 OA
ATOM     12  C   UNL     1       5.744  -5.679  22.989  0.00  0.00    +0.150 A 
ATOM     13  N   UNL     1       4.768  -6.626  23.077  0.00  0.00    -0.300 N 
ATOM     14  H   UNL     1       4.271  -7.047  22.305  0.00  0.00    +0.171 HD
ATOM     15  C   UNL     1       4.566  -6.924  24.437  0.00  0.00    +0.329 A 
ATOM     16  O   UNL     1       3.772  -7.725  24.896  0.00  0.00    -0.247 OA
ENDROOT
TORSDOF 0
ENDMDL
MODEL 6
REMARK VINA RESULT:      -5.2      1.993      3.710
REMARK  Name = 
REMARK  1 active torsions:
REMARK  status: ('A' for Active; 'I' for Inactive)
REMARK    1  A    between atoms: C_1  and  N_2
REMARK                            x       y       z     vdW  Elec       q    Type
REMARK                         _______ _______ _______ _____ _____    ______ ____
ROOT
ATOM      1  C   UNL     1       7.752  -4.347  26.465  0.00  0.00    +0.155 C 
ATOM      2  N   UNL     1       7.533  -4.403  25.049  0.00  0.00    -0.281 N 
ATOM      3  C   UNL     1       6.600  -5.154  24.383  0.00  0.00    +0.148 A 
ATOM      4  N   UNL     1       5.677  -6.006  24.885  0.00  0.00    -0.292 N 
ATOM      5  H   UNL     1       5.599  -6.168  25.879  0.00  0.00    +0.172 HD
ATOM      6  C   UNL     1       4.806  -6.688  24.070  0.00  0.00    +0.328 A 
ATOM      7  N   UNL     1       4.932  -6.451  22.718  0.00  0.00    -0.273 N 
ATOM      8  H   UNL     1       4.298  -6.945  22.110  0.00  0.00    +0.173 HD
ATOM      9  C   UNL     1       5.841  -5.602  22.122  0.00  0.00    +0.280 A 
ATOM     10  O   UNL     1       5.913  -5.425  20.913  0.00  0.00    -0.265 OA
ATOM     11  O   UNL     1       3.966  -7.460  24.520  0.00  0.00    -0.247 OA
ATOM     12  C   UNL     1       6.722  -4.925  23.074  0.00  0.00    +0.150 A 
ATOM     13  N   UNL     1       7.724  -4.030  22.848  0.00  0.00    -0.300 N 
ATOM     14  H   UNL     1       8.025  -3.683  21.948  0.00  0.00    +0.171 HD
ATOM     15  C   UNL     1       8.278  -3.665  24.089  0.00  0.00    +0.329 A 
ATOM     16  O   UNL     1       9.193  -2.884  24.277  0.00  0.00    -0.247 OA
ENDROOT
TORSDOF 0
ENDMDL
MODEL 7
REMARK VINA RESULT:      -5.1      1.345      2.926
REMARK  Name = 
REMARK  1 active torsions:
REMARK  status: ('A' for Active; 'I' for Inactive)
REMARK    1  A    between atoms: C_1  and  N_2
REMARK                            x       y       z     vdW  Elec       q    Type
REMARK                         _______ _______ _______ _____ _____    ______ ____
ROOT
ATOM      1  C   UNL     1       5.403  -4.510  22.603  0.00  0.00    +0.155 C 
ATOM      2  N   UNL     1       5.539  -4.882  23.982  0.00  0.00    -0.281 N 
ATOM      3  C   UNL     1       6.702  -5.004  24.697  0.00  0.00    +0.148 A 
ATOM      4  N   UNL     1       7.976  -4.807  24.290  0.00  0.00    -0.292 N 
ATOM      5  H   UNL     1       8.186  -4.531  23.341  0.00  0.00    +0.172 HD
ATOM      6  C   UNL     1       9.040  -4.974  25.143  0.00  0.00    +0.328 A 
ATOM      7  N   UNL     1       8.728  -5.351  26.431  0.00  0.00    -0.273 N 
ATOM      8  H   UNL     1       9.500  -5.476  27.067  0.00  0.00    +0.173 HD
ATOM      9  C   UNL     1       7.461  -5.572  26.930  0.00  0.00    +0.280 A 
ATOM     10  O   UNL     1       7.235  -5.907  28.086  0.00  0.00    -0.265 OA
ATOM     11  O   UNL     1      10.197  -4.796  24.780  0.00  0.00    -0.247 OA
ATOM     12  C   UNL     1       6.399  -5.370  25.944  0.00  0.00    +0.150 A 
ATOM     13  N   UNL     1       5.049  -5.496  26.081  0.00  0.00    -0.300 N 
ATOM     14  H   UNL     1       4.555  -5.760  26.920  0.00  0.00    +0.171 HD
ATOM     15  C   UNL     1       4.452  -5.193  24.843  0.00  0.00    +0.329 A 
ATOM     16  O   UNL     1       3.261  -5.200  24.589  0.00  0.00    -0.247 OA
ENDROOT
TORSDOF 0
ENDMDL
MODEL 8
REMARK VINA RESULT:      -5.1      1.741      4.578
REMARK  Name = 
REMARK  1 active torsions:
REMARK  status: ('A' for Active; 'I' for Inactive)
REMARK    1  A    between atoms: C_1  and  N_2
REMARK                            x       y       z     vdW  Elec       q    Type
REMARK                         _______ _______ _______ _____ _____    ______ ____
ROOT
ATOM      1  C   UNL     1       9.033  -4.623  26.415  0.00  0.00    +0.155 C 
ATOM      2  N   UNL     1       7.864  -4.708  25.587  0.00  0.00    -0.281 N 
ATOM      3  C   UNL     1       7.646  -4.074  24.392  0.00  0.00    +0.148 A 
ATOM      4  N   UNL     1       8.460  -3.233  23.714  0.00  0.00    -0.292 N 
ATOM      5  H   UNL     1       9.373  -2.987  24.070  0.00  0.00    +0.172 HD
ATOM      6  C   UNL     1       8.085  -2.678  22.514  0.00  0.00    +0.328 A 
ATOM      7  N   UNL     1       6.836  -3.029  22.050  0.00  0.00    -0.273 N 
ATOM      8  H   UNL     1       6.550  -2.628  21.170  0.00  0.00    +0.173 HD
ATOM      9  C   UNL     1       5.945  -3.876  22.674  0.00  0.00    +0.280 A 
ATOM     10  O   UNL     1       4.843  -4.158  22.219  0.00  0.00    -0.265 OA
ATOM     11  O   UNL     1       8.819  -1.916  21.895  0.00  0.00    -0.247 OA
ATOM     12  C   UNL     1       6.437  -4.414  23.943  0.00  0.00    +0.150 A 
ATOM     13  N   UNL     1       5.836  -5.269  24.818  0.00  0.00    -0.300 N 
ATOM     14  H   UNL     1       4.918  -5.678  24.719  0.00  0.00    +0.171 HD
ATOM     15  C   UNL     1       6.716  -5.488  25.894  0.00  0.00    +0.329 A 
ATOM     16  O   UNL     1       6.516  -6.196  26.864  0.00  0.00    -0.247 OA
ENDROOT
TORSDOF 0
ENDMDL
MODEL 9
REMARK VINA RESULT:      -5.0      1.744      1.976
REMARK  Name = 
REMARK  1 active torsions:
REMARK  status: ('A' for Active; 'I' for Inactive)
REMARK    1  A    between atoms: C_1  and  N_2
REMARK                            x       y       z     vdW  Elec       q    Type
REMARK                         _______ _______ _______ _____ _____    ______ ____
ROOT
ATOM      1  C   UNL     1       5.813  -3.095  22.568  0.00  0.00    +0.155 C 
ATOM      2  N   UNL     1       7.037  -3.354  23.270  0.00  0.00    -0.281 N 
ATOM      3  C   UNL     1       7.215  -4.179  24.349  0.00  0.00    +0.148 A 
ATOM      4  N   UNL     1       6.304  -4.936  25.002  0.00  0.00    -0.292 N 
ATOM      5  H   UNL     1       5.334  -4.951  24.717  0.00  0.00    +0.172 HD
ATOM      6  C   UNL     1       6.652  -5.717  26.078  0.00  0.00    +0.328 A 
ATOM      7  N   UNL     1       7.979  -5.679  26.447  0.00  0.00    -0.273 N 
ATOM      8  H   UNL     1       8.247  -6.248  27.235  0.00  0.00    +0.173 HD
ATOM      9  C   UNL     1       8.972  -4.940  25.840  0.00  0.00    +0.280 A 
ATOM     10  O   UNL     1      10.140  -4.941  26.207  0.00  0.00    -0.265 OA
ATOM     11  O   UNL     1       5.830  -6.405  26.672  0.00  0.00    -0.247 OA
ATOM     12  C   UNL     1       8.500  -4.143  24.707  0.00  0.00    +0.150 A 
ATOM     13  N   UNL     1       9.191  -3.305  23.884  0.00  0.00    -0.300 N 
ATOM     14  H   UNL     1      10.178  -3.097  23.934  0.00  0.00    +0.171 HD
ATOM     15  C   UNL     1       8.291  -2.772  22.942  0.00  0.00    +0.329 A 
ATOM     16  O   UNL     1       8.554  -1.986  22.049  0.00  0.00    -0.247 OA
ENDROOT
TORSDOF 0
ENDMDL
