MODEL 1
REMARK VINA RESULT:      -7.9      0.000      0.000
REMARK  Name = 
REMARK  7 active torsions:
REMARK  status: ('A' for Active; 'I' for Inactive)
REMARK    1  A    between atoms: O_1  and  C_2
REMARK    2  A    between atoms: C_2  and  C_4
REMARK    3  A    between atoms: C_6  and  N_11
REMARK    4  A    between atoms: C_9  and  O_10
REMARK    5  A    between atoms: N_12  and  C_13
REMARK    6  A    between atoms: C_16  and  S_19
REMARK    7  A    between atoms: S_19  and  N_22
REMARK                            x       y       z     vdW  Elec       q    Type
REMARK                         _______ _______ _______ _____ _____    ______ ____
ROOT
ATOM      1  C   UNL     1       8.834  -0.527  23.311  0.00  0.00    +0.086 A 
ATOM      2  C   UNL     1       9.746  -1.354  23.987  0.00  0.00    +0.031 A 
ATOM      3  C   UNL     1       9.506  -2.728  24.128  0.00  0.00    +0.031 A 
ATOM      4  C   UNL     1       8.352  -3.290  23.573  0.00  0.00    +0.109 A 
ATOM      5  C   UNL     1       7.444  -2.488  22.879  0.00  0.00    +0.031 A 
ATOM      6  C   UNL     1       7.699  -1.120  22.738  0.00  0.00    +0.031 A 
ENDROOT
BRANCH   4   7
ATOM      7  S   UNL     1       7.971  -5.012  23.857  0.00  0.00    +0.073 S 
ATOM      8  O   UNL     1       9.160  -5.649  24.386  0.00  0.00    -0.150 OA
ATOM      9  O   UNL     1       7.345  -5.507  22.646  0.00  0.00    -0.150 OA
BRANCH   7  10
ATOM     10  N   UNL     1       6.770  -4.991  25.039  0.00  0.00    -0.199 N 
ATOM     11  H   UNL     1       7.024  -5.621  25.797  0.00  0.00    +0.175 HD
ATOM     12  C   UNL     1       5.474  -5.290  24.581  0.00  0.00    +0.138 A 
ATOM     13  C   UNL     1       4.659  -4.342  23.988  0.00  0.00    +0.045 A 
ATOM     14  C   UNL     1       3.418  -4.761  23.519  0.00  0.00    +0.005 A 
ATOM     15  C   UNL     1       3.064  -6.102  23.634  0.00  0.00    +0.020 A 
ATOM     16  C   UNL     1       3.964  -6.971  24.233  0.00  0.00    +0.113 A 
ATOM     17  N   UNL     1       5.164  -6.589  24.722  0.00  0.00    -0.239 NA
ENDBRANCH   7  10
ENDBRANCH   4   7
BRANCH   1  19
ATOM     18  N   UNL     1      10.130   1.277  23.324  0.00  0.00    -0.149 NA
ATOM     19  N   UNL     1       8.955   0.875  23.193  0.00  0.00    -0.149 NA
BRANCH  18  24
ATOM     20  C   UNL     1      11.307   4.838  23.578  0.00  0.00    +0.102 A 
ATOM     21  C   UNL     1      10.104   5.449  23.954  0.00  0.00    +0.131 A 
ATOM     22  C   UNL     1       8.962   4.685  24.174  0.00  0.00    +0.048 A 
ATOM     23  C   UNL     1       9.013   3.302  23.978  0.00  0.00    +0.033 A 
ATOM     24  C   UNL     1      10.195   2.665  23.571  0.00  0.00    +0.087 A 
ATOM     25  C   UNL     1      11.350   3.444  23.410  0.00  0.00    +0.048 A 
BRANCH  20  26
ATOM     26  C   UNL     1      12.559   5.599  23.329  0.00  0.00    +0.340 C 
ATOM     27  O   UNL     1      13.118   5.608  22.242  0.00  0.00    -0.245 OA
BRANCH  26  28
ATOM     28  O   UNL     1      12.977   6.343  24.374  0.00  0.00    -0.477 OA
ATOM     29  H   UNL     1      13.141   7.277  24.124  0.00  0.00    +0.295 HD
ENDBRANCH  26  28
ENDBRANCH  20  26
BRANCH  21  30
ATOM     30  O   UNL     1      10.040   6.812  24.082  0.00  0.00    -0.506 OA
ATOM     31  H   UNL     1       9.963   7.036  25.029  0.00  0.00    +0.292 HD
ENDBRANCH  21  30
ENDBRANCH  18  24
ENDBRANCH   1  19
TORSDOF 7
ENDMDL
MODEL 2
REMARK VINA RESULT:      -7.8      1.847      1.888
REMARK  Name = 
REMARK  7 active torsions:
REMARK  status: ('A' for Active; 'I' for Inactive)
REMARK    1  A    between atoms: O_1  and  C_2
REMARK    2  A    between atoms: C_2  and  C_4
REMARK    3  A    between atoms: C_6  and  N_11
REMARK    4  A    between atoms: C_9  and  O_10
REMARK    5  A    between atoms: N_12  and  C_13
REMARK    6  A    between atoms: C_16  and  S_19
REMARK    7  A    between atoms: S_19  and  N_22
REMARK                            x       y       z     vdW  Elec       q    Type
REMARK                         _______ _______ _______ _____ _____    ______ ____
ROOT
ATOM      1  C   UNL     1       8.848  -0.615  23.597  0.00  0.00    +0.086 A 
ATOM      2  C   UNL     1       9.919  -1.478  23.883  0.00  0.00    +0.031 A 
ATOM      3  C   UNL     1       9.698  -2.836  24.151  0.00  0.00    +0.031 A 
ATOM      4  C   UNL     1       8.396  -3.346  24.118  0.00  0.00    +0.109 A 
ATOM      5  C   UNL     1       7.321  -2.508  23.815  0.00  0.00    +0.031 A 
ATOM      6  C   UNL     1       7.556  -1.158  23.540  0.00  0.00    +0.031 A 
ENDROOT
BRANCH   4   7
ATOM      7  S   UNL     1       8.089  -5.042  24.584  0.00  0.00    +0.073 S 
ATOM      8  O   UNL     1       9.151  -5.856  24.028  0.00  0.00    -0.150 OA
ATOM      9  O   UNL     1       6.702  -5.320  24.265  0.00  0.00    -0.150 OA
BRANCH   7  10
ATOM     10  N   UNL     1       8.200  -5.046  26.266  0.00  0.00    -0.199 N 
ATOM     11  H   UNL     1       8.741  -5.852  26.572  0.00  0.00    +0.175 HD
ATOM     12  C   UNL     1       6.970  -5.009  26.947  0.00  0.00    +0.138 A 
ATOM     13  C   UNL     1       6.282  -3.829  27.172  0.00  0.00    +0.045 A 
ATOM     14  C   UNL     1       5.046  -3.913  27.805  0.00  0.00    +0.005 A 
ATOM     15  C   UNL     1       4.544  -5.164  28.153  0.00  0.00    +0.020 A 
ATOM     16  C   UNL     1       5.310  -6.284  27.867  0.00  0.00    +0.113 A 
ATOM     17  N   UNL     1       6.525  -6.231  27.279  0.00  0.00    -0.239 NA
ENDBRANCH   7  10
ENDBRANCH   4   7
BRANCH   1  19
ATOM     18  N   UNL     1      10.140   1.191  23.535  0.00  0.00    -0.149 NA
ATOM     19  N   UNL     1       8.970   0.778  23.396  0.00  0.00    -0.149 NA
BRANCH  18  24
ATOM     20  C   UNL     1      11.281   4.772  23.541  0.00  0.00    +0.102 A 
ATOM     21  C   UNL     1      10.083   5.393  23.917  0.00  0.00    +0.131 A 
ATOM     22  C   UNL     1       8.958   4.631  24.216  0.00  0.00    +0.048 A 
ATOM     23  C   UNL     1       9.019   3.240  24.101  0.00  0.00    +0.033 A 
ATOM     24  C   UNL     1      10.196   2.591  23.697  0.00  0.00    +0.087 A 
ATOM     25  C   UNL     1      11.336   3.372  23.455  0.00  0.00    +0.048 A 
BRANCH  20  26
ATOM     26  C   UNL     1      12.516   5.530  23.209  0.00  0.00    +0.340 C 
ATOM     27  O   UNL     1      12.993   5.551  22.084  0.00  0.00    -0.245 OA
BRANCH  26  28
ATOM     28  O   UNL     1      13.016   6.257  24.230  0.00  0.00    -0.477 OA
ATOM     29  H   UNL     1      13.144   5.719  25.041  0.00  0.00    +0.295 HD
ENDBRANCH  26  28
ENDBRANCH  20  26
BRANCH  21  30
ATOM     30  O   UNL     1      10.007   6.760  23.965  0.00  0.00    -0.506 OA
ATOM     31  H   UNL     1      10.903   7.129  23.849  0.00  0.00    +0.292 HD
ENDBRANCH  21  30
ENDBRANCH  18  24
ENDBRANCH   1  19
TORSDOF 7
ENDMDL
MODEL 3
REMARK VINA RESULT:      -7.7      1.556      1.982
REMARK  Name = 
REMARK  7 active torsions:
REMARK  status: ('A' for Active; 'I' for Inactive)
REMARK    1  A    between atoms: O_1  and  C_2
REMARK    2  A    between atoms: C_2  and  C_4
REMARK    3  A    between atoms: C_6  and  N_11
REMARK    4  A    between atoms: C_9  and  O_10
REMARK    5  A    between atoms: N_12  and  C_13
REMARK    6  A    between atoms: C_16  and  S_19
REMARK    7  A    between atoms: S_19  and  N_22
REMARK                            x       y       z     vdW  Elec       q    Type
REMARK                         _______ _______ _______ _____ _____    ______ ____
ROOT
ATOM      1  C   UNL     1       8.901  -0.401  24.522  0.00  0.00    +0.086 A 
ATOM      2  C   UNL     1       9.815  -1.204  23.818  0.00  0.00    +0.031 A 
ATOM      3  C   UNL     1       9.860  -2.591  24.020  0.00  0.00    +0.031 A 
ATOM      4  C   UNL     1       8.973  -3.189  24.921  0.00  0.00    +0.109 A 
ATOM      5  C   UNL     1       8.044  -2.411  25.613  0.00  0.00    +0.031 A 
ATOM      6  C   UNL     1       8.003  -1.030  25.396  0.00  0.00    +0.031 A 
ENDROOT
BRANCH   4   7
ATOM      7  S   UNL     1       9.108  -4.933  25.282  0.00  0.00    +0.073 S 
ATOM      8  O   UNL     1       8.394  -5.188  26.517  0.00  0.00    -0.150 OA
ATOM      9  O   UNL     1      10.510  -5.280  25.155  0.00  0.00    -0.150 OA
BRANCH   7  10
ATOM     10  N   UNL     1       8.313  -5.693  24.005  0.00  0.00    -0.199 N 
ATOM     11  H   UNL     1       8.964  -5.848  23.239  0.00  0.00    +0.175 HD
ATOM     12  C   UNL     1       7.167  -5.027  23.532  0.00  0.00    +0.138 A 
ATOM     13  C   UNL     1       5.932  -5.152  24.143  0.00  0.00    +0.045 A 
ATOM     14  C   UNL     1       4.879  -4.402  23.627  0.00  0.00    +0.005 A 
ATOM     15  C   UNL     1       5.114  -3.547  22.554  0.00  0.00    +0.020 A 
ATOM     16  C   UNL     1       6.395  -3.489  22.027  0.00  0.00    +0.113 A 
ATOM     17  N   UNL     1       7.430  -4.224  22.489  0.00  0.00    -0.239 NA
ENDBRANCH   7  10
ENDBRANCH   4   7
BRANCH   1  19
ATOM     18  N   UNL     1       9.660   1.486  23.629  0.00  0.00    -0.149 NA
ATOM     19  N   UNL     1       8.842   1.007  24.442  0.00  0.00    -0.149 NA
BRANCH  18  24
ATOM     20  C   UNL     1      11.133   4.944  23.671  0.00  0.00    +0.102 A 
ATOM     21  C   UNL     1      10.011   5.664  24.099  0.00  0.00    +0.131 A 
ATOM     22  C   UNL     1       8.828   5.005  24.420  0.00  0.00    +0.048 A 
ATOM     23  C   UNL     1       8.755   3.617  24.274  0.00  0.00    +0.033 A 
ATOM     24  C   UNL     1       9.853   2.871  23.819  0.00  0.00    +0.087 A 
ATOM     25  C   UNL     1      11.053   3.546  23.555  0.00  0.00    +0.048 A 
BRANCH  20  26
ATOM     26  C   UNL     1      12.422   5.590  23.313  0.00  0.00    +0.340 C 
ATOM     27  O   UNL     1      12.888   5.549  22.185  0.00  0.00    -0.245 OA
BRANCH  26  28
ATOM     28  O   UNL     1      12.990   6.293  24.316  0.00  0.00    -0.477 OA
ATOM     29  H   UNL     1      12.339   6.556  25.001  0.00  0.00    +0.295 HD
ENDBRANCH  26  28
ENDBRANCH  20  26
BRANCH  21  30
ATOM     30  O   UNL     1      10.065   7.031  24.178  0.00  0.00    -0.506 OA
ATOM     31  H   UNL     1      10.984   7.319  24.016  0.00  0.00    +0.292 HD
ENDBRANCH  21  30
ENDBRANCH  18  24
ENDBRANCH   1  19
TORSDOF 7
ENDMDL
MODEL 4
REMARK VINA RESULT:      -7.3      3.043     10.388
REMARK  Name = 
REMARK  7 active torsions:
REMARK  status: ('A' for Active; 'I' for Inactive)
REMARK    1  A    between atoms: O_1  and  C_2
REMARK    2  A    between atoms: C_2  and  C_4
REMARK    3  A    between atoms: C_6  and  N_11
REMARK    4  A    between atoms: C_9  and  O_10
REMARK    5  A    between atoms: N_12  and  C_13
REMARK    6  A    between atoms: C_16  and  S_19
REMARK    7  A    between atoms: S_19  and  N_22
REMARK                            x       y       z     vdW  Elec       q    Type
REMARK                         _______ _______ _______ _____ _____    ______ ____
ROOT
ATOM      1  C   UNL     1       8.098  -2.480  23.865  0.00  0.00    +0.086 A 
ATOM      2  C   UNL     1       9.447  -2.339  23.500  0.00  0.00    +0.031 A 
ATOM      3  C   UNL     1      10.045  -1.073  23.427  0.00  0.00    +0.031 A 
ATOM      4  C   UNL     1       9.296   0.067  23.740  0.00  0.00    +0.109 A 
ATOM      5  C   UNL     1       7.960  -0.055  24.126  0.00  0.00    +0.031 A 
ATOM      6  C   UNL     1       7.378  -1.324  24.202  0.00  0.00    +0.031 A 
ENDROOT
BRANCH   4   7
ATOM      7  S   UNL     1      10.009   1.690  23.526  0.00  0.00    +0.073 S 
ATOM      8  O   UNL     1       9.865   2.059  22.132  0.00  0.00    -0.150 OA
ATOM      9  O   UNL     1      11.317   1.659  24.150  0.00  0.00    -0.150 OA
BRANCH   7  10
ATOM     10  N   UNL     1       9.052   2.701  24.476  0.00  0.00    -0.199 N 
ATOM     11  H   UNL     1       8.165   2.244  24.678  0.00  0.00    +0.175 HD
ATOM     12  C   UNL     1       8.820   3.982  23.943  0.00  0.00    +0.138 A 
ATOM     13  C   UNL     1       9.730   5.016  24.072  0.00  0.00    +0.045 A 
ATOM     14  C   UNL     1       9.425   6.225  23.455  0.00  0.00    +0.005 A 
ATOM     15  C   UNL     1       8.250   6.335  22.717  0.00  0.00    +0.020 A 
ATOM     16  C   UNL     1       7.416   5.230  22.640  0.00  0.00    +0.113 A 
ATOM     17  N   UNL     1       7.671   4.053  23.250  0.00  0.00    -0.239 NA
ENDBRANCH   7  10
ENDBRANCH   4   7
BRANCH   1  19
ATOM     18  N   UNL     1       6.173  -3.563  24.102  0.00  0.00    -0.149 NA
ATOM     19  N   UNL     1       7.395  -3.704  23.885  0.00  0.00    -0.149 NA
BRANCH  18  24
ATOM     20  C   UNL     1       4.861  -6.464  26.099  0.00  0.00    +0.102 A 
ATOM     21  C   UNL     1       4.129  -7.117  25.099  0.00  0.00    +0.131 A 
ATOM     22  C   UNL     1       4.129  -6.633  23.794  0.00  0.00    +0.048 A 
ATOM     23  C   UNL     1       4.836  -5.466  23.495  0.00  0.00    +0.033 A 
ATOM     24  C   UNL     1       5.555  -4.773  24.481  0.00  0.00    +0.087 A 
ATOM     25  C   UNL     1       5.589  -5.307  25.778  0.00  0.00    +0.048 A 
BRANCH  20  26
ATOM     26  C   UNL     1       4.900  -6.931  27.509  0.00  0.00    +0.340 C 
ATOM     27  O   UNL     1       5.941  -7.021  28.144  0.00  0.00    -0.245 OA
BRANCH  26  28
ATOM     28  O   UNL     1       3.688  -7.165  28.053  0.00  0.00    -0.477 OA
ATOM     29  H   UNL     1       3.650  -8.027  28.522  0.00  0.00    +0.295 HD
ENDBRANCH  26  28
ENDBRANCH  20  26
BRANCH  21  30
ATOM     30  O   UNL     1       3.383  -8.223  25.410  0.00  0.00    -0.506 OA
ATOM     31  H   UNL     1       3.356  -8.322  26.381  0.00  0.00    +0.292 HD
ENDBRANCH  21  30
ENDBRANCH  18  24
ENDBRANCH   1  19
TORSDOF 7
ENDMDL
MODEL 5
REMARK VINA RESULT:      -7.2      1.971      2.650
REMARK  Name = 
REMARK  7 active torsions:
REMARK  status: ('A' for Active; 'I' for Inactive)
REMARK    1  A    between atoms: O_1  and  C_2
REMARK    2  A    between atoms: C_2  and  C_4
REMARK    3  A    between atoms: C_6  and  N_11
REMARK    4  A    between atoms: C_9  and  O_10
REMARK    5  A    between atoms: N_12  and  C_13
REMARK    6  A    between atoms: C_16  and  S_19
REMARK    7  A    between atoms: S_19  and  N_22
REMARK                            x       y       z     vdW  Elec       q    Type
REMARK                         _______ _______ _______ _____ _____    ______ ____
ROOT
ATOM      1  C   UNL     1       8.872  -0.344  24.905  0.00  0.00    +0.086 A 
ATOM      2  C   UNL     1       8.221  -0.844  26.045  0.00  0.00    +0.031 A 
ATOM      3  C   UNL     1       8.134  -2.224  26.278  0.00  0.00    +0.031 A 
ATOM      4  C   UNL     1       8.717  -3.118  25.373  0.00  0.00    +0.109 A 
ATOM      5  C   UNL     1       9.386  -2.639  24.246  0.00  0.00    +0.031 A 
ATOM      6  C   UNL     1       9.474  -1.260  24.030  0.00  0.00    +0.031 A 
ENDROOT
BRANCH   4   7
ATOM      7  S   UNL     1       8.500  -4.877  25.590  0.00  0.00    +0.073 S 
ATOM      8  O   UNL     1       8.705  -5.181  26.992  0.00  0.00    -0.150 OA
ATOM      9  O   UNL     1       9.300  -5.527  24.570  0.00  0.00    -0.150 OA
BRANCH   7  10
ATOM     10  N   UNL     1       6.890  -5.159  25.184  0.00  0.00    -0.199 N 
ATOM     11  H   UNL     1       6.619  -6.095  25.480  0.00  0.00    +0.175 HD
ATOM     12  C   UNL     1       6.574  -4.978  23.824  0.00  0.00    +0.138 A 
ATOM     13  C   UNL     1       6.308  -3.732  23.284  0.00  0.00    +0.045 A 
ATOM     14  C   UNL     1       6.066  -3.661  21.916  0.00  0.00    +0.005 A 
ATOM     15  C   UNL     1       6.131  -4.823  21.152  0.00  0.00    +0.020 A 
ATOM     16  C   UNL     1       6.421  -6.017  21.794  0.00  0.00    +0.113 A 
ATOM     17  N   UNL     1       6.634  -6.122  23.124  0.00  0.00    -0.239 NA
ENDBRANCH   7  10
ENDBRANCH   4   7
BRANCH   1  19
ATOM     18  N   UNL     1       7.842   1.611  24.676  0.00  0.00    -0.149 NA
ATOM     19  N   UNL     1       8.936   1.021  24.551  0.00  0.00    -0.149 NA
BRANCH  18  24
ATOM     20  C   UNL     1       8.706   5.039  23.398  0.00  0.00    +0.102 A 
ATOM     21  C   UNL     1       7.719   5.170  22.413  0.00  0.00    +0.131 A 
ATOM     22  C   UNL     1       6.766   4.172  22.230  0.00  0.00    +0.048 A 
ATOM     23  C   UNL     1       6.823   3.016  23.014  0.00  0.00    +0.033 A 
ATOM     24  C   UNL     1       7.818   2.843  23.988  0.00  0.00    +0.087 A 
ATOM     25  C   UNL     1       8.735   3.883  24.196  0.00  0.00    +0.048 A 
BRANCH  20  26
ATOM     26  C   UNL     1       9.750   6.068  23.640  0.00  0.00    +0.340 C 
ATOM     27  O   UNL     1       9.522   7.107  24.240  0.00  0.00    -0.245 OA
BRANCH  26  28
ATOM     28  O   UNL     1      10.984   5.721  23.217  0.00  0.00    -0.477 OA
ATOM     29  H   UNL     1      11.452   6.468  22.784  0.00  0.00    +0.295 HD
ENDBRANCH  26  28
ENDBRANCH  20  26
BRANCH  21  30
ATOM     30  O   UNL     1       7.705   6.274  21.601  0.00  0.00    -0.506 OA
ATOM     31  H   UNL     1       6.883   6.775  21.766  0.00  0.00    +0.292 HD
ENDBRANCH  21  30
ENDBRANCH  18  24
ENDBRANCH   1  19
TORSDOF 7
ENDMDL
MODEL 6
REMARK VINA RESULT:      -7.2      3.043      4.202
REMARK  Name = 
REMARK  7 active torsions:
REMARK  status: ('A' for Active; 'I' for Inactive)
REMARK    1  A    between atoms: O_1  and  C_2
REMARK    2  A    between atoms: C_2  and  C_4
REMARK    3  A    between atoms: C_6  and  N_11
REMARK    4  A    between atoms: C_9  and  O_10
REMARK    5  A    between atoms: N_12  and  C_13
REMARK    6  A    between atoms: C_16  and  S_19
REMARK    7  A    between atoms: S_19  and  N_22
REMARK                            x       y       z     vdW  Elec       q    Type
REMARK                         _______ _______ _______ _____ _____    ______ ____
ROOT
ATOM      1  C   UNL     1       8.020  -3.168  26.009  0.00  0.00    +0.086 A 
ATOM      2  C   UNL     1       8.547  -4.452  26.228  0.00  0.00    +0.031 A 
ATOM      3  C   UNL     1       7.837  -5.405  26.973  0.00  0.00    +0.031 A 
ATOM      4  C   UNL     1       6.578  -5.082  27.491  0.00  0.00    +0.109 A 
ATOM      5  C   UNL     1       6.029  -3.819  27.266  0.00  0.00    +0.031 A 
ATOM      6  C   UNL     1       6.743  -2.881  26.514  0.00  0.00    +0.031 A 
ENDROOT
BRANCH   4   7
ATOM      7  S   UNL     1       5.724  -6.241  28.548  0.00  0.00    +0.073 S 
ATOM      8  O   UNL     1       4.778  -5.495  29.353  0.00  0.00    -0.150 OA
ATOM      9  O   UNL     1       6.740  -7.062  29.176  0.00  0.00    -0.150 OA
BRANCH   7  10
ATOM     10  N   UNL     1       4.889  -7.247  27.486  0.00  0.00    -0.199 N 
ATOM     11  H   UNL     1       5.506  -7.986  27.156  0.00  0.00    +0.175 HD
ATOM     12  C   UNL     1       4.292  -6.597  26.389  0.00  0.00    +0.138 A 
ATOM     13  C   UNL     1       3.063  -5.967  26.479  0.00  0.00    +0.045 A 
ATOM     14  C   UNL     1       2.593  -5.305  25.349  0.00  0.00    +0.005 A 
ATOM     15  C   UNL     1       3.381  -5.276  24.201  0.00  0.00    +0.020 A 
ATOM     16  C   UNL     1       4.604  -5.929  24.226  0.00  0.00    +0.113 A 
ATOM     17  N   UNL     1       5.074  -6.602  25.298  0.00  0.00    -0.239 NA
ENDBRANCH   7  10
ENDBRANCH   4   7
BRANCH   1  19
ATOM     18  N   UNL     1       8.052  -1.055  25.324  0.00  0.00    -0.149 NA
ATOM     19  N   UNL     1       8.698  -2.124  25.344  0.00  0.00    -0.149 NA
BRANCH  18  24
ATOM     20  C   UNL     1       8.972   2.087  23.478  0.00  0.00    +0.102 A 
ATOM     21  C   UNL     1       9.753   1.531  22.457  0.00  0.00    +0.131 A 
ATOM     22  C   UNL     1       9.910   0.151  22.360  0.00  0.00    +0.048 A 
ATOM     23  C   UNL     1       9.313  -0.677  23.314  0.00  0.00    +0.033 A 
ATOM     24  C   UNL     1       8.550  -0.148  24.366  0.00  0.00    +0.087 A 
ATOM     25  C   UNL     1       8.356   1.240  24.414  0.00  0.00    +0.048 A 
BRANCH  20  26
ATOM     26  C   UNL     1       8.767   3.550  23.635  0.00  0.00    +0.340 C 
ATOM     27  O   UNL     1       9.051   4.148  24.662  0.00  0.00    -0.245 OA
BRANCH  26  28
ATOM     28  O   UNL     1       8.320   4.173  22.524  0.00  0.00    -0.477 OA
ATOM     29  H   UNL     1       8.345   3.589  21.735  0.00  0.00    +0.295 HD
ENDBRANCH  26  28
ENDBRANCH  20  26
BRANCH  21  30
ATOM     30  O   UNL     1      10.391   2.348  21.561  0.00  0.00    -0.506 OA
ATOM     31  H   UNL     1      10.377   3.262  21.905  0.00  0.00    +0.292 HD
ENDBRANCH  21  30
ENDBRANCH  18  24
ENDBRANCH   1  19
TORSDOF 7
ENDMDL
MODEL 7
REMARK VINA RESULT:      -7.2      3.008     10.623
REMARK  Name = 
REMARK  7 active torsions:
REMARK  status: ('A' for Active; 'I' for Inactive)
REMARK    1  A    between atoms: O_1  and  C_2
REMARK    2  A    between atoms: C_2  and  C_4
REMARK    3  A    between atoms: C_6  and  N_11
REMARK    4  A    between atoms: C_9  and  O_10
REMARK    5  A    between atoms: N_12  and  C_13
REMARK    6  A    between atoms: C_16  and  S_19
REMARK    7  A    between atoms: S_19  and  N_22
REMARK                            x       y       z     vdW  Elec       q    Type
REMARK                         _______ _______ _______ _____ _____    ______ ____
ROOT
ATOM      1  C   UNL     1       7.621  -2.466  23.880  0.00  0.00    +0.086 A 
ATOM      2  C   UNL     1       8.983  -2.358  24.209  0.00  0.00    +0.031 A 
ATOM      3  C   UNL     1       9.640  -1.121  24.158  0.00  0.00    +0.031 A 
ATOM      4  C   UNL     1       8.930   0.027  23.792  0.00  0.00    +0.109 A 
ATOM      5  C   UNL     1       7.571  -0.057  23.483  0.00  0.00    +0.031 A 
ATOM      6  C   UNL     1       6.925  -1.295  23.547  0.00  0.00    +0.031 A 
ENDROOT
BRANCH   4   7
ATOM      7  S   UNL     1       9.785   1.583  23.598  0.00  0.00    +0.073 S 
ATOM      8  O   UNL     1       9.696   1.969  22.204  0.00  0.00    -0.150 OA
ATOM      9  O   UNL     1      11.075   1.435  24.242  0.00  0.00    -0.150 OA
BRANCH   7  10
ATOM     10  N   UNL     1       8.906   2.670  24.540  0.00  0.00    -0.199 N 
ATOM     11  H   UNL     1       7.991   2.277  24.754  0.00  0.00    +0.175 HD
ATOM     12  C   UNL     1       8.756   3.955  23.988  0.00  0.00    +0.138 A 
ATOM     13  C   UNL     1       9.735   4.927  24.096  0.00  0.00    +0.045 A 
ATOM     14  C   UNL     1       9.508   6.145  23.463  0.00  0.00    +0.005 A 
ATOM     15  C   UNL     1       8.337   6.323  22.731  0.00  0.00    +0.020 A 
ATOM     16  C   UNL     1       7.430   5.276  22.676  0.00  0.00    +0.113 A 
ATOM     17  N   UNL     1       7.610   4.093  23.302  0.00  0.00    -0.239 NA
ENDBRANCH   7  10
ENDBRANCH   4   7
BRANCH   1  19
ATOM     18  N   UNL     1       5.668  -3.512  23.721  0.00  0.00    -0.149 NA
ATOM     19  N   UNL     1       6.901  -3.680  23.826  0.00  0.00    -0.149 NA
BRANCH  18  24
ATOM     20  C   UNL     1       3.171  -6.321  23.672  0.00  0.00    +0.102 A 
ATOM     21  C   UNL     1       3.713  -7.126  24.682  0.00  0.00    +0.131 A 
ATOM     22  C   UNL     1       4.836  -6.709  25.390  0.00  0.00    +0.048 A 
ATOM     23  C   UNL     1       5.445  -5.496  25.061  0.00  0.00    +0.033 A 
ATOM     24  C   UNL     1       4.942  -4.681  24.034  0.00  0.00    +0.087 A 
ATOM     25  C   UNL     1       3.777  -5.091  23.369  0.00  0.00    +0.048 A 
BRANCH  20  26
ATOM     26  C   UNL     1       1.975  -6.711  22.880  0.00  0.00    +0.340 C 
ATOM     27  O   UNL     1       1.048  -5.944  22.668  0.00  0.00    -0.245 OA
BRANCH  26  28
ATOM     28  O   UNL     1       2.038  -7.950  22.349  0.00  0.00    -0.477 OA
ATOM     29  H   UNL     1       2.586  -7.978  21.535  0.00  0.00    +0.295 HD
ENDBRANCH  26  28
ENDBRANCH  20  26
BRANCH  21  30
ATOM     30  O   UNL     1       3.155  -8.347  24.958  0.00  0.00    -0.506 OA
ATOM     31  H   UNL     1       2.497  -8.555  24.267  0.00  0.00    +0.292 HD
ENDBRANCH  21  30
ENDBRANCH  18  24
ENDBRANCH   1  19
TORSDOF 7
ENDMDL
MODEL 8
REMARK VINA RESULT:      -7.1      3.352      9.720
REMARK  Name = 
REMARK  7 active torsions:
REMARK  status: ('A' for Active; 'I' for Inactive)
REMARK    1  A    between atoms: O_1  and  C_2
REMARK    2  A    between atoms: C_2  and  C_4
REMARK    3  A    between atoms: C_6  and  N_11
REMARK    4  A    between atoms: C_9  and  O_10
REMARK    5  A    between atoms: N_12  and  C_13
REMARK    6  A    between atoms: C_16  and  S_19
REMARK    7  A    between atoms: S_19  and  N_22
REMARK                            x       y       z     vdW  Elec       q    Type
REMARK                         _______ _______ _______ _____ _____    ______ ____
ROOT
ATOM      1  C   UNL     1       8.622  -1.627  24.894  0.00  0.00    +0.086 A 
ATOM      2  C   UNL     1       9.454  -1.362  23.794  0.00  0.00    +0.031 A 
ATOM      3  C   UNL     1       9.815  -0.048  23.464  0.00  0.00    +0.031 A 
ATOM      4  C   UNL     1       9.357   1.015  24.250  0.00  0.00    +0.109 A 
ATOM      5  C   UNL     1       8.547   0.770  25.360  0.00  0.00    +0.031 A 
ATOM      6  C   UNL     1       8.201  -0.546  25.683  0.00  0.00    +0.031 A 
ENDROOT
BRANCH   4   7
ATOM      7  S   UNL     1       9.703   2.699  23.764  0.00  0.00    +0.073 S 
ATOM      8  O   UNL     1      11.128   2.809  23.526  0.00  0.00    -0.150 OA
ATOM      9  O   UNL     1       9.048   3.557  24.732  0.00  0.00    -0.150 OA
BRANCH   7  10
ATOM     10  N   UNL     1       8.873   2.900  22.312  0.00  0.00    -0.199 N 
ATOM     11  H   UNL     1       9.383   3.545  21.712  0.00  0.00    +0.175 HD
ATOM     12  C   UNL     1       7.536   3.321  22.439  0.00  0.00    +0.138 A 
ATOM     13  C   UNL     1       6.503   2.439  22.703  0.00  0.00    +0.045 A 
ATOM     14  C   UNL     1       5.228   2.970  22.868  0.00  0.00    +0.005 A 
ATOM     15  C   UNL     1       5.050   4.349  22.793  0.00  0.00    +0.020 A 
ATOM     16  C   UNL     1       6.159   5.142  22.539  0.00  0.00    +0.113 A 
ATOM     17  N   UNL     1       7.403   4.654  22.348  0.00  0.00    -0.239 NA
ENDBRANCH   7  10
ENDBRANCH   4   7
BRANCH   1  19
ATOM     18  N   UNL     1       7.388  -3.403  24.387  0.00  0.00    -0.149 NA
ATOM     19  N   UNL     1       8.143  -2.907  25.250  0.00  0.00    -0.149 NA
BRANCH  18  24
ATOM     20  C   UNL     1       5.813  -5.933  26.678  0.00  0.00    +0.102 A 
ATOM     21  C   UNL     1       4.950  -6.558  25.769  0.00  0.00    +0.131 A 
ATOM     22  C   UNL     1       4.945  -6.183  24.429  0.00  0.00    +0.048 A 
ATOM     23  C   UNL     1       5.783  -5.150  24.001  0.00  0.00    +0.033 A 
ATOM     24  C   UNL     1       6.637  -4.485  24.894  0.00  0.00    +0.087 A 
ATOM     25  C   UNL     1       6.669  -4.914  26.229  0.00  0.00    +0.048 A 
BRANCH  20  26
ATOM     26  C   UNL     1       5.865  -6.288  28.120  0.00  0.00    +0.340 C 
ATOM     27  O   UNL     1       5.630  -7.415  28.529  0.00  0.00    -0.245 OA
BRANCH  26  28
ATOM     28  O   UNL     1       6.272  -5.285  28.927  0.00  0.00    -0.477 OA
ATOM     29  H   UNL     1       5.586  -4.592  29.035  0.00  0.00    +0.295 HD
ENDBRANCH  26  28
ENDBRANCH  20  26
BRANCH  21  30
ATOM     30  O   UNL     1       4.082  -7.525  26.204  0.00  0.00    -0.506 OA
ATOM     31  H   UNL     1       4.599  -8.281  26.542  0.00  0.00    +0.292 HD
ENDBRANCH  21  30
ENDBRANCH  18  24
ENDBRANCH   1  19
TORSDOF 7
ENDMDL
MODEL 9
REMARK VINA RESULT:      -7.0      2.204      2.702
REMARK  Name = 
REMARK  7 active torsions:
REMARK  status: ('A' for Active; 'I' for Inactive)
REMARK    1  A    between atoms: O_1  and  C_2
REMARK    2  A    between atoms: C_2  and  C_4
REMARK    3  A    between atoms: C_6  and  N_11
REMARK    4  A    between atoms: C_9  and  O_10
REMARK    5  A    between atoms: N_12  and  C_13
REMARK    6  A    between atoms: C_16  and  S_19
REMARK    7  A    between atoms: S_19  and  N_22
REMARK                            x       y       z     vdW  Elec       q    Type
REMARK                         _______ _______ _______ _____ _____    ______ ____
ROOT
ATOM      1  C   UNL     1       8.992  -0.275  24.799  0.00  0.00    +0.086 A 
ATOM      2  C   UNL     1       8.761  -0.832  26.068  0.00  0.00    +0.031 A 
ATOM      3  C   UNL     1       8.679  -2.221  26.241  0.00  0.00    +0.031 A 
ATOM      4  C   UNL     1       8.848  -3.067  25.141  0.00  0.00    +0.109 A 
ATOM      5  C   UNL     1       9.101  -2.533  23.876  0.00  0.00    +0.031 A 
ATOM      6  C   UNL     1       9.188  -1.147  23.718  0.00  0.00    +0.031 A 
ENDROOT
BRANCH   4   7
ATOM      7  S   UNL     1       8.619  -4.829  25.326  0.00  0.00    +0.073 S 
ATOM      8  O   UNL     1       9.894  -5.472  25.084  0.00  0.00    -0.150 OA
ATOM      9  O   UNL     1       7.453  -5.184  24.540  0.00  0.00    -0.150 OA
BRANCH   7  10
ATOM     10  N   UNL     1       8.184  -5.032  26.941  0.00  0.00    -0.199 N 
ATOM     11  H   UNL     1       8.654  -5.850  27.323  0.00  0.00    +0.175 HD
ATOM     12  C   UNL     1       6.800  -5.121  27.182  0.00  0.00    +0.138 A 
ATOM     13  C   UNL     1       5.993  -4.002  27.290  0.00  0.00    +0.045 A 
ATOM     14  C   UNL     1       4.628  -4.206  27.470  0.00  0.00    +0.005 A 
ATOM     15  C   UNL     1       4.133  -5.506  27.503  0.00  0.00    +0.020 A 
ATOM     16  C   UNL     1       5.031  -6.555  27.371  0.00  0.00    +0.113 A 
ATOM     17  N   UNL     1       6.363  -6.389  27.221  0.00  0.00    -0.239 NA
ENDBRANCH   7  10
ENDBRANCH   4   7
BRANCH   1  19
ATOM     18  N   UNL     1       7.872   1.628  24.555  0.00  0.00    -0.149 NA
ATOM     19  N   UNL     1       9.008   1.109  24.520  0.00  0.00    -0.149 NA
BRANCH  18  24
ATOM     20  C   UNL     1       8.742   5.103  23.416  0.00  0.00    +0.102 A 
ATOM     21  C   UNL     1       7.726   5.294  22.471  0.00  0.00    +0.131 A 
ATOM     22  C   UNL     1       6.755   4.318  22.271  0.00  0.00    +0.048 A 
ATOM     23  C   UNL     1       6.821   3.125  22.996  0.00  0.00    +0.033 A 
ATOM     24  C   UNL     1       7.843   2.892  23.929  0.00  0.00    +0.087 A 
ATOM     25  C   UNL     1       8.780   3.910  24.157  0.00  0.00    +0.048 A 
BRANCH  20  26
ATOM     26  C   UNL     1       9.807   6.107  23.674  0.00  0.00    +0.340 C 
ATOM     27  O   UNL     1       9.618   7.107  24.349  0.00  0.00    -0.245 OA
BRANCH  26  28
ATOM     28  O   UNL     1      11.016   5.778  23.173  0.00  0.00    -0.477 OA
ATOM     29  H   UNL     1      11.406   6.503  22.639  0.00  0.00    +0.295 HD
ENDBRANCH  26  28
ENDBRANCH  20  26
BRANCH  21  30
ATOM     30  O   UNL     1       7.702   6.436  21.714  0.00  0.00    -0.506 OA
ATOM     31  H   UNL     1       6.924   6.967  21.972  0.00  0.00    +0.292 HD
ENDBRANCH  21  30
ENDBRANCH  18  24
ENDBRANCH   1  19
TORSDOF 7
ENDMDL
