MODEL 1
REMARK VINA RESULT:      -6.8      0.000      0.000
REMARK  Name = 
REMARK  15 active torsions:
REMARK  status: ('A' for Active; 'I' for Inactive)
REMARK    1  A    between atoms: O_1  and  C_2
REMARK    2  A    between atoms: C_2  and  C_3
REMARK    3  A    between atoms: C_6  and  O_8
REMARK    4  A    between atoms: O_8  and  C_9
REMARK    5  A    between atoms: C_12  and  C_14
REMARK    6  A    between atoms: C_14  and  O_15
REMARK    7  A    between atoms: O_15  and  P_16
REMARK    8  A    between atoms: P_16  and  O_17
REMARK    9  A    between atoms: P_16  and  O_18
REMARK   10  A    between atoms: C_20  and  O_22
REMARK   11  A    between atoms: C_23  and  O_25
REMARK   12  A    between atoms: C_26  and  O_28
REMARK   13  A    between atoms: C_29  and  O_31
REMARK   14  A    between atoms: C_32  and  O_34
REMARK   15  A    between atoms: C_35  and  O_37
REMARK                            x       y       z     vdW  Elec       q    Type
REMARK                         _______ _______ _______ _____ _____    ______ ____
ROOT
ATOM      1  C   UNL     1       7.523  -3.482  22.262  0.00  0.00    +0.285 C 
ATOM      2  C   UNL     1       6.034  -3.192  21.932  0.00  0.00    +0.201 C 
ATOM      3  C   UNL     1       5.082  -3.641  23.058  0.00  0.00    +0.179 C 
ATOM      4  C   UNL     1       5.420  -5.076  23.488  0.00  0.00    +0.177 C 
ATOM      5  C   UNL     1       6.901  -5.180  23.887  0.00  0.00    +0.179 C 
ATOM      6  O   UNL     1       7.752  -4.791  22.801  0.00  0.00    -0.340 OA
ENDROOT
BRANCH   2   7
ATOM      7  O   UNL     1       5.656  -3.831  20.701  0.00  0.00    -0.384 OA
ATOM      8  H   UNL     1       5.643  -4.798  20.876  0.00  0.00    +0.210 HD
ENDBRANCH   2   7
BRANCH   3   9
ATOM      9  O   UNL     1       5.119  -2.769  24.195  0.00  0.00    -0.386 OA
ATOM     10  H   UNL     1       5.050  -3.316  24.996  0.00  0.00    +0.210 HD
ENDBRANCH   3   9
BRANCH   4  11
ATOM     11  O   UNL     1       5.168  -5.952  22.369  0.00  0.00    -0.386 OA
ATOM     12  H   UNL     1       4.978  -6.837  22.740  0.00  0.00    +0.210 HD
ENDBRANCH   4  11
BRANCH   1  13
ATOM     13  O   UNL     1       8.038  -2.466  23.129  0.00  0.00    -0.317 OA
BRANCH  13  18
ATOM     14  C   UNL     1       6.562   0.842  23.284  0.00  0.00    +0.178 C 
ATOM     15  C   UNL     1       7.755   1.737  22.925  0.00  0.00    +0.177 C 
ATOM     16  C   UNL     1       8.579   1.043  21.823  0.00  0.00    +0.179 C 
ATOM     17  C   UNL     1       8.929  -0.409  22.197  0.00  0.00    +0.201 C 
ATOM     18  C   UNL     1       7.667  -1.158  22.682  0.00  0.00    +0.285 C 
ATOM     19  O   UNL     1       7.049  -0.429  23.734  0.00  0.00    -0.340 OA
BRANCH  15  20
ATOM     20  O   UNL     1       7.298   3.025  22.505  0.00  0.00    -0.386 OA
ATOM     21  H   UNL     1       6.480   3.248  22.979  0.00  0.00    +0.210 HD
ENDBRANCH  15  20
BRANCH  16  22
ATOM     22  O   UNL     1       9.774   1.780  21.548  0.00  0.00    -0.386 OA
ATOM     23  H   UNL     1       9.864   1.849  20.578  0.00  0.00    +0.210 HD
ENDBRANCH  16  22
BRANCH  17  24
ATOM     24  O   UNL     1       9.532  -1.052  21.052  0.00  0.00    -0.384 OA
ATOM     25  H   UNL     1       9.227  -0.593  20.252  0.00  0.00    +0.210 HD
ENDBRANCH  17  24
BRANCH  14  26
ATOM     26  C   UNL     1       5.679   1.456  24.375  0.00  0.00    +0.190 C 
BRANCH  26  27
ATOM     27  O   UNL     1       4.591   2.147  23.754  0.00  0.00    -0.392 OA
ATOM     28  H   UNL     1       4.632   3.071  24.053  0.00  0.00    +0.210 HD
ENDBRANCH  26  27
ENDBRANCH  14  26
ENDBRANCH  13  18
ENDBRANCH   1  13
BRANCH   5  29
ATOM     29  C   UNL     1       7.270  -4.474  25.198  0.00  0.00    +0.206 C 
BRANCH  29  30
ATOM     30  O   UNL     1       6.195  -4.566  26.108  0.00  0.00    -0.284 OA
BRANCH  30  31
ATOM     31  P   UNL     1       6.559  -5.499  27.520  0.00  0.00    +0.472 P 
ATOM     32  O   UNL     1       6.885  -6.333  28.782  0.00  0.00    -0.228 OA
BRANCH  31  33
ATOM     33  O   UNL     1       7.994  -5.792  26.787  0.00  0.00    -0.303 OA
ATOM     34  H   UNL     1       8.734  -5.833  27.410  0.00  0.00    +0.222 HD
ENDBRANCH  31  33
BRANCH  31  35
ATOM     35  O   UNL     1       5.734  -6.703  26.781  0.00  0.00    -0.303 OA
ATOM     36  H   UNL     1       4.790  -6.704  27.012  0.00  0.00    +0.222 HD
ENDBRANCH  31  35
ENDBRANCH  30  31
ENDBRANCH  29  30
ENDBRANCH   5  29
TORSDOF 15
ENDMDL
MODEL 2
REMARK VINA RESULT:      -6.6      1.585      2.613
REMARK  Name = 
REMARK  15 active torsions:
REMARK  status: ('A' for Active; 'I' for Inactive)
REMARK    1  A    between atoms: O_1  and  C_2
REMARK    2  A    between atoms: C_2  and  C_3
REMARK    3  A    between atoms: C_6  and  O_8
REMARK    4  A    between atoms: O_8  and  C_9
REMARK    5  A    between atoms: C_12  and  C_14
REMARK    6  A    between atoms: C_14  and  O_15
REMARK    7  A    between atoms: O_15  and  P_16
REMARK    8  A    between atoms: P_16  and  O_17
REMARK    9  A    between atoms: P_16  and  O_18
REMARK   10  A    between atoms: C_20  and  O_22
REMARK   11  A    between atoms: C_23  and  O_25
REMARK   12  A    between atoms: C_26  and  O_28
REMARK   13  A    between atoms: C_29  and  O_31
REMARK   14  A    between atoms: C_32  and  O_34
REMARK   15  A    between atoms: C_35  and  O_37
REMARK                            x       y       z     vdW  Elec       q    Type
REMARK                         _______ _______ _______ _____ _____    ______ ____
ROOT
ATOM      1  C   UNL     1       6.866  -2.881  22.613  0.00  0.00    +0.285 C 
ATOM      2  C   UNL     1       5.535  -3.474  22.075  0.00  0.00    +0.201 C 
ATOM      3  C   UNL     1       5.089  -4.726  22.857  0.00  0.00    +0.179 C 
ATOM      4  C   UNL     1       6.265  -5.702  22.998  0.00  0.00    +0.177 C 
ATOM      5  C   UNL     1       7.471  -4.999  23.643  0.00  0.00    +0.179 C 
ATOM      6  O   UNL     1       7.877  -3.865  22.866  0.00  0.00    -0.340 OA
ENDROOT
BRANCH   2   7
ATOM      7  O   UNL     1       5.655  -3.797  20.680  0.00  0.00    -0.384 OA
ATOM      8  H   UNL     1       5.725  -2.945  20.196  0.00  0.00    +0.210 HD
ENDBRANCH   2   7
BRANCH   3   9
ATOM      9  O   UNL     1       4.559  -4.411  24.150  0.00  0.00    -0.386 OA
ATOM     10  H   UNL     1       4.792  -5.134  24.756  0.00  0.00    +0.210 HD
ENDBRANCH   3   9
BRANCH   4  11
ATOM     11  O   UNL     1       6.633  -6.157  21.678  0.00  0.00    -0.386 OA
ATOM     12  H   UNL     1       7.604  -6.066  21.608  0.00  0.00    +0.210 HD
ENDBRANCH   4  11
BRANCH   1  13
ATOM     13  O   UNL     1       6.611  -2.087  23.778  0.00  0.00    -0.317 OA
BRANCH  13  18
ATOM     14  C   UNL     1       8.708   0.750  22.939  0.00  0.00    +0.178 C 
ATOM     15  C   UNL     1       8.430   1.704  24.109  0.00  0.00    +0.177 C 
ATOM     16  C   UNL     1       8.311   0.876  25.403  0.00  0.00    +0.179 C 
ATOM     17  C   UNL     1       7.317  -0.290  25.250  0.00  0.00    +0.201 C 
ATOM     18  C   UNL     1       7.615  -1.082  23.956  0.00  0.00    +0.285 C 
ATOM     19  O   UNL     1       7.636  -0.197  22.844  0.00  0.00    -0.340 OA
BRANCH  15  20
ATOM     20  O   UNL     1       9.468   2.682  24.206  0.00  0.00    -0.386 OA
ATOM     21  H   UNL     1      10.333   2.240  24.166  0.00  0.00    +0.210 HD
ENDBRANCH  15  20
BRANCH  16  22
ATOM     22  O   UNL     1       7.923   1.710  26.500  0.00  0.00    -0.386 OA
ATOM     23  H   UNL     1       7.091   1.353  26.865  0.00  0.00    +0.210 HD
ENDBRANCH  16  22
BRANCH  17  24
ATOM     24  O   UNL     1       7.396  -1.126  26.425  0.00  0.00    -0.384 OA
ATOM     25  H   UNL     1       7.150  -2.030  26.170  0.00  0.00    +0.210 HD
ENDBRANCH  17  24
BRANCH  14  26
ATOM     26  C   UNL     1       8.845   1.488  21.604  0.00  0.00    +0.190 C 
BRANCH  26  27
ATOM     27  O   UNL     1      10.095   2.186  21.589  0.00  0.00    -0.392 OA
ATOM     28  H   UNL     1       9.893   3.134  21.666  0.00  0.00    +0.210 HD
ENDBRANCH  26  27
ENDBRANCH  14  26
ENDBRANCH  13  18
ENDBRANCH   1  13
BRANCH   5  29
ATOM     29  C   UNL     1       7.301  -4.656  25.128  0.00  0.00    +0.206 C 
BRANCH  29  30
ATOM     30  O   UNL     1       6.554  -5.667  25.769  0.00  0.00    -0.284 OA
BRANCH  30  31
ATOM     31  P   UNL     1       6.394  -5.436  27.477  0.00  0.00    +0.472 P 
ATOM     32  O   UNL     1       6.250  -5.229  29.004  0.00  0.00    -0.228 OA
BRANCH  31  33
ATOM     33  O   UNL     1       6.698  -3.860  27.153  0.00  0.00    -0.303 OA
ATOM     34  H   UNL     1       6.263  -3.257  27.772  0.00  0.00    +0.222 HD
ENDBRANCH  31  33
BRANCH  31  35
ATOM     35  O   UNL     1       7.959  -5.906  27.559  0.00  0.00    -0.303 OA
ATOM     36  H   UNL     1       8.165  -6.625  26.940  0.00  0.00    +0.222 HD
ENDBRANCH  31  35
ENDBRANCH  30  31
ENDBRANCH  29  30
ENDBRANCH   5  29
TORSDOF 15
ENDMDL
MODEL 3
REMARK VINA RESULT:      -6.4      2.105      3.243
REMARK  Name = 
REMARK  15 active torsions:
REMARK  status: ('A' for Active; 'I' for Inactive)
REMARK    1  A    between atoms: O_1  and  C_2
REMARK    2  A    between atoms: C_2  and  C_3
REMARK    3  A    between atoms: C_6  and  O_8
REMARK    4  A    between atoms: O_8  and  C_9
REMARK    5  A    between atoms: C_12  and  C_14
REMARK    6  A    between atoms: C_14  and  O_15
REMARK    7  A    between atoms: O_15  and  P_16
REMARK    8  A    between atoms: P_16  and  O_17
REMARK    9  A    between atoms: P_16  and  O_18
REMARK   10  A    between atoms: C_20  and  O_22
REMARK   11  A    between atoms: C_23  and  O_25
REMARK   12  A    between atoms: C_26  and  O_28
REMARK   13  A    between atoms: C_29  and  O_31
REMARK   14  A    between atoms: C_32  and  O_34
REMARK   15  A    between atoms: C_35  and  O_37
REMARK                            x       y       z     vdW  Elec       q    Type
REMARK                         _______ _______ _______ _____ _____    ______ ____
ROOT
ATOM      1  C   UNL     1       6.452  -4.337  23.841  0.00  0.00    +0.285 C 
ATOM      2  C   UNL     1       5.346  -4.622  22.788  0.00  0.00    +0.201 C 
ATOM      3  C   UNL     1       4.026  -5.092  23.431  0.00  0.00    +0.179 C 
ATOM      4  C   UNL     1       4.308  -6.210  24.446  0.00  0.00    +0.177 C 
ATOM      5  C   UNL     1       5.341  -5.741  25.485  0.00  0.00    +0.179 C 
ATOM      6  O   UNL     1       6.564  -5.349  24.850  0.00  0.00    -0.340 OA
ENDROOT
BRANCH   2   7
ATOM      7  O   UNL     1       5.794  -5.604  21.839  0.00  0.00    -0.384 OA
ATOM      8  H   UNL     1       6.558  -5.210  21.363  0.00  0.00    +0.210 HD
ENDBRANCH   2   7
BRANCH   3   9
ATOM      9  O   UNL     1       3.309  -4.026  24.065  0.00  0.00    -0.386 OA
ATOM     10  H   UNL     1       2.823  -4.398  24.821  0.00  0.00    +0.210 HD
ENDBRANCH   3   9
BRANCH   4  11
ATOM     11  O   UNL     1       4.839  -7.345  23.730  0.00  0.00    -0.386 OA
ATOM     12  H   UNL     1       4.886  -8.085  24.367  0.00  0.00    +0.210 HD
ENDBRANCH   4  11
BRANCH   1  13
ATOM     13  O   UNL     1       6.251  -3.044  24.423  0.00  0.00    -0.317 OA
BRANCH  13  18
ATOM     14  C   UNL     1       8.670  -0.427  23.753  0.00  0.00    +0.178 C 
ATOM     15  C   UNL     1       8.969   0.095  25.164  0.00  0.00    +0.177 C 
ATOM     16  C   UNL     1       9.009  -1.102  26.134  0.00  0.00    +0.179 C 
ATOM     17  C   UNL     1       7.756  -1.986  26.008  0.00  0.00    +0.201 C 
ATOM     18  C   UNL     1       7.482  -2.318  24.523  0.00  0.00    +0.285 C 
ATOM     19  O   UNL     1       7.413  -1.118  23.766  0.00  0.00    -0.340 OA
BRANCH  15  20
ATOM     20  O   UNL     1      10.202   0.818  25.172  0.00  0.00    -0.386 OA
ATOM     21  H   UNL     1      10.205   1.441  25.919  0.00  0.00    +0.210 HD
ENDBRANCH  15  20
BRANCH  16  22
ATOM     22  O   UNL     1       9.157  -0.650  27.484  0.00  0.00    -0.386 OA
ATOM     23  H   UNL     1       8.326  -0.207  27.743  0.00  0.00    +0.210 HD
ENDBRANCH  16  22
BRANCH  17  24
ATOM     24  O   UNL     1       7.946  -3.178  26.801  0.00  0.00    -0.384 OA
ATOM     25  H   UNL     1       8.900  -3.346  26.873  0.00  0.00    +0.210 HD
ENDBRANCH  17  24
BRANCH  14  26
ATOM     26  C   UNL     1       8.613   0.698  22.714  0.00  0.00    +0.190 C 
BRANCH  26  27
ATOM     27  O   UNL     1       9.930   0.915  22.197  0.00  0.00    -0.392 OA
ATOM     28  H   UNL     1       9.846   1.004  21.232  0.00  0.00    +0.210 HD
ENDBRANCH  26  27
ENDBRANCH  14  26
ENDBRANCH  13  18
ENDBRANCH   1  13
BRANCH   5  29
ATOM     29  C   UNL     1       4.831  -4.683  26.471  0.00  0.00    +0.206 C 
BRANCH  29  30
ATOM     30  O   UNL     1       5.680  -4.629  27.597  0.00  0.00    -0.284 OA
BRANCH  30  31
ATOM     31  P   UNL     1       5.971  -6.174  28.322  0.00  0.00    +0.472 P 
ATOM     32  O   UNL     1       6.229  -7.556  28.970  0.00  0.00    -0.228 OA
BRANCH  31  33
ATOM     33  O   UNL     1       6.082  -5.340  29.726  0.00  0.00    -0.303 OA
ATOM     34  H   UNL     1       6.344  -4.417  29.597  0.00  0.00    +0.222 HD
ENDBRANCH  31  33
BRANCH  31  35
ATOM     35  O   UNL     1       7.525  -5.956  27.863  0.00  0.00    -0.303 OA
ATOM     36  H   UNL     1       8.091  -5.654  28.593  0.00  0.00    +0.222 HD
ENDBRANCH  31  35
ENDBRANCH  30  31
ENDBRANCH  29  30
ENDBRANCH   5  29
TORSDOF 15
ENDMDL
MODEL 4
REMARK VINA RESULT:      -6.4      2.582      6.830
REMARK  Name = 
REMARK  15 active torsions:
REMARK  status: ('A' for Active; 'I' for Inactive)
REMARK    1  A    between atoms: O_1  and  C_2
REMARK    2  A    between atoms: C_2  and  C_3
REMARK    3  A    between atoms: C_6  and  O_8
REMARK    4  A    between atoms: O_8  and  C_9
REMARK    5  A    between atoms: C_12  and  C_14
REMARK    6  A    between atoms: C_14  and  O_15
REMARK    7  A    between atoms: O_15  and  P_16
REMARK    8  A    between atoms: P_16  and  O_17
REMARK    9  A    between atoms: P_16  and  O_18
REMARK   10  A    between atoms: C_20  and  O_22
REMARK   11  A    between atoms: C_23  and  O_25
REMARK   12  A    between atoms: C_26  and  O_28
REMARK   13  A    between atoms: C_29  and  O_31
REMARK   14  A    between atoms: C_32  and  O_34
REMARK   15  A    between atoms: C_35  and  O_37
REMARK                            x       y       z     vdW  Elec       q    Type
REMARK                         _______ _______ _______ _____ _____    ______ ____
ROOT
ATOM      1  C   UNL     1       8.236  -0.498  23.051  0.00  0.00    +0.285 C 
ATOM      2  C   UNL     1       9.788  -0.551  23.012  0.00  0.00    +0.201 C 
ATOM      3  C   UNL     1      10.436   0.732  23.568  0.00  0.00    +0.179 C 
ATOM      4  C   UNL     1       9.778   1.967  22.935  0.00  0.00    +0.177 C 
ATOM      5  C   UNL     1       8.255   1.931  23.148  0.00  0.00    +0.179 C 
ATOM      6  O   UNL     1       7.688   0.742  22.585  0.00  0.00    -0.340 OA
ENDROOT
BRANCH   2   7
ATOM      7  O   UNL     1      10.251  -0.781  21.671  0.00  0.00    -0.384 OA
ATOM      8  H   UNL     1       9.604  -0.349  21.070  0.00  0.00    +0.210 HD
ENDBRANCH   2   7
BRANCH   3   9
ATOM      9  O   UNL     1      10.361   0.817  24.996  0.00  0.00    -0.386 OA
ATOM     10  H   UNL     1      10.829   1.622  25.275  0.00  0.00    +0.210 HD
ENDBRANCH   3   9
BRANCH   4  11
ATOM     11  O   UNL     1      10.058   1.950  21.519  0.00  0.00    -0.386 OA
ATOM     12  H   UNL     1       9.522   1.228  21.133  0.00  0.00    +0.210 HD
ENDBRANCH   4  11
BRANCH   1  13
ATOM     13  O   UNL     1       7.770  -0.809  24.369  0.00  0.00    -0.317 OA
BRANCH  13  18
ATOM     14  C   UNL     1       8.220  -4.271  25.350  0.00  0.00    +0.178 C 
ATOM     15  C   UNL     1       6.928  -4.548  26.129  0.00  0.00    +0.177 C 
ATOM     16  C   UNL     1       5.760  -3.838  25.416  0.00  0.00    +0.179 C 
ATOM     17  C   UNL     1       6.067  -2.353  25.152  0.00  0.00    +0.201 C 
ATOM     18  C   UNL     1       7.460  -2.201  24.500  0.00  0.00    +0.285 C 
ATOM     19  O   UNL     1       8.439  -2.854  25.297  0.00  0.00    -0.340 OA
BRANCH  15  20
ATOM     20  O   UNL     1       6.703  -5.956  26.227  0.00  0.00    -0.386 OA
ATOM     21  H   UNL     1       7.505  -6.389  26.564  0.00  0.00    +0.210 HD
ENDBRANCH  15  20
BRANCH  16  22
ATOM     22  O   UNL     1       4.555  -3.962  26.179  0.00  0.00    -0.386 OA
ATOM     23  H   UNL     1       3.899  -4.427  25.626  0.00  0.00    +0.210 HD
ENDBRANCH  16  22
BRANCH  17  24
ATOM     24  O   UNL     1       5.020  -1.802  24.323  0.00  0.00    -0.384 OA
ATOM     25  H   UNL     1       4.722  -2.494  23.711  0.00  0.00    +0.210 HD
ENDBRANCH  17  24
BRANCH  14  26
ATOM     26  C   UNL     1       9.441  -4.943  25.986  0.00  0.00    +0.190 C 
BRANCH  26  27
ATOM     27  O   UNL     1      10.427  -5.162  24.972  0.00  0.00    -0.392 OA
ATOM     28  H   UNL     1      11.237  -4.706  25.259  0.00  0.00    +0.210 HD
ENDBRANCH  26  27
ENDBRANCH  14  26
ENDBRANCH  13  18
ENDBRANCH   1  13
BRANCH   5  29
ATOM     29  C   UNL     1       7.800   2.165  24.594  0.00  0.00    +0.206 C 
BRANCH  29  30
ATOM     30  O   UNL     1       6.526   2.773  24.602  0.00  0.00    -0.284 OA
BRANCH  30  31
ATOM     31  P   UNL     1       5.318   1.845  25.423  0.00  0.00    +0.472 P 
ATOM     32  O   UNL     1       4.238   1.015  26.158  0.00  0.00    -0.228 OA
BRANCH  31  33
ATOM     33  O   UNL     1       6.583   1.053  26.098  0.00  0.00    -0.303 OA
ATOM     34  H   UNL     1       7.165   0.643  25.442  0.00  0.00    +0.222 HD
ENDBRANCH  31  33
BRANCH  31  35
ATOM     35  O   UNL     1       5.258   0.949  24.056  0.00  0.00    -0.303 OA
ATOM     36  H   UNL     1       5.394   1.482  23.254  0.00  0.00    +0.222 HD
ENDBRANCH  31  35
ENDBRANCH  30  31
ENDBRANCH  29  30
ENDBRANCH   5  29
TORSDOF 15
ENDMDL
MODEL 5
REMARK VINA RESULT:      -6.3      1.810      3.480
REMARK  Name = 
REMARK  15 active torsions:
REMARK  status: ('A' for Active; 'I' for Inactive)
REMARK    1  A    between atoms: O_1  and  C_2
REMARK    2  A    between atoms: C_2  and  C_3
REMARK    3  A    between atoms: C_6  and  O_8
REMARK    4  A    between atoms: O_8  and  C_9
REMARK    5  A    between atoms: C_12  and  C_14
REMARK    6  A    between atoms: C_14  and  O_15
REMARK    7  A    between atoms: O_15  and  P_16
REMARK    8  A    between atoms: P_16  and  O_17
REMARK    9  A    between atoms: P_16  and  O_18
REMARK   10  A    between atoms: C_20  and  O_22
REMARK   11  A    between atoms: C_23  and  O_25
REMARK   12  A    between atoms: C_26  and  O_28
REMARK   13  A    between atoms: C_29  and  O_31
REMARK   14  A    between atoms: C_32  and  O_34
REMARK   15  A    between atoms: C_35  and  O_37
REMARK                            x       y       z     vdW  Elec       q    Type
REMARK                         _______ _______ _______ _____ _____    ______ ____
ROOT
ATOM      1  C   UNL     1       7.490  -1.823  24.500  0.00  0.00    +0.285 C 
ATOM      2  C   UNL     1       8.717  -1.981  25.440  0.00  0.00    +0.201 C 
ATOM      3  C   UNL     1       9.174  -3.447  25.573  0.00  0.00    +0.179 C 
ATOM      4  C   UNL     1       7.965  -4.346  25.870  0.00  0.00    +0.177 C 
ATOM      5  C   UNL     1       6.881  -4.158  24.796  0.00  0.00    +0.179 C 
ATOM      6  O   UNL     1       6.458  -2.791  24.730  0.00  0.00    -0.340 OA
ENDROOT
BRANCH   2   7
ATOM      7  O   UNL     1       8.425  -1.448  26.743  0.00  0.00    -0.384 OA
ATOM      8  H   UNL     1       8.684  -2.136  27.395  0.00  0.00    +0.210 HD
ENDBRANCH   2   7
BRANCH   3   9
ATOM      9  O   UNL     1       9.861  -3.920  24.409  0.00  0.00    -0.386 OA
ATOM     10  H   UNL     1       9.211  -4.354  23.831  0.00  0.00    +0.210 HD
ENDBRANCH   3   9
BRANCH   4  11
ATOM     11  O   UNL     1       7.427  -3.969  27.156  0.00  0.00    -0.386 OA
ATOM     12  H   UNL     1       6.461  -4.111  27.110  0.00  0.00    +0.210 HD
ENDBRANCH   4  11
BRANCH   1  13
ATOM     13  O   UNL     1       7.918  -1.835  23.134  0.00  0.00    -0.317 OA
BRANCH  13  18
ATOM     14  C   UNL     1       6.738   1.572  22.745  0.00  0.00    +0.178 C 
ATOM     15  C   UNL     1       8.051   2.340  22.545  0.00  0.00    +0.177 C 
ATOM     16  C   UNL     1       8.995   1.486  21.676  0.00  0.00    +0.179 C 
ATOM     17  C   UNL     1       9.141   0.054  22.223  0.00  0.00    +0.201 C 
ATOM     18  C   UNL     1       7.751  -0.551  22.521  0.00  0.00    +0.285 C 
ATOM     19  O   UNL     1       7.021   0.317  23.378  0.00  0.00    -0.340 OA
BRANCH  15  20
ATOM     20  O   UNL     1       7.794   3.611  21.946  0.00  0.00    -0.386 OA
ATOM     21  H   UNL     1       7.955   3.555  20.989  0.00  0.00    +0.210 HD
ENDBRANCH  15  20
BRANCH  16  22
ATOM     22  O   UNL     1      10.280   2.105  21.571  0.00  0.00    -0.386 OA
ATOM     23  H   UNL     1      10.160   3.065  21.704  0.00  0.00    +0.210 HD
ENDBRANCH  16  22
BRANCH  17  24
ATOM     24  O   UNL     1       9.881  -0.736  21.266  0.00  0.00    -0.384 OA
ATOM     25  H   UNL     1       9.744  -1.674  21.479  0.00  0.00    +0.210 HD
ENDBRANCH  17  24
BRANCH  14  26
ATOM     26  C   UNL     1       5.731   2.348  23.599  0.00  0.00    +0.190 C 
BRANCH  26  27
ATOM     27  O   UNL     1       4.525   2.523  22.847  0.00  0.00    -0.392 OA
ATOM     28  H   UNL     1       4.740   2.336  21.917  0.00  0.00    +0.210 HD
ENDBRANCH  26  27
ENDBRANCH  14  26
ENDBRANCH  13  18
ENDBRANCH   1  13
BRANCH   5  29
ATOM     29  C   UNL     1       7.234  -4.725  23.415  0.00  0.00    +0.206 C 
BRANCH  29  30
ATOM     30  O   UNL     1       6.539  -5.935  23.202  0.00  0.00    -0.284 OA
BRANCH  30  31
ATOM     31  P   UNL     1       4.833  -5.728  22.996  0.00  0.00    +0.472 P 
ATOM     32  O   UNL     1       3.307  -5.544  22.813  0.00  0.00    -0.228 OA
BRANCH  31  33
ATOM     33  O   UNL     1       4.714  -7.235  23.627  0.00  0.00    -0.303 OA
ATOM     34  H   UNL     1       5.576  -7.647  23.784  0.00  0.00    +0.222 HD
ENDBRANCH  31  33
BRANCH  31  35
ATOM     35  O   UNL     1       5.090  -6.203  21.452  0.00  0.00    -0.303 OA
ATOM     36  H   UNL     1       5.152  -7.169  21.364  0.00  0.00    +0.222 HD
ENDBRANCH  31  35
ENDBRANCH  30  31
ENDBRANCH  29  30
ENDBRANCH   5  29
TORSDOF 15
ENDMDL
MODEL 6
REMARK VINA RESULT:      -6.2      2.453      6.051
REMARK  Name = 
REMARK  15 active torsions:
REMARK  status: ('A' for Active; 'I' for Inactive)
REMARK    1  A    between atoms: O_1  and  C_2
REMARK    2  A    between atoms: C_2  and  C_3
REMARK    3  A    between atoms: C_6  and  O_8
REMARK    4  A    between atoms: O_8  and  C_9
REMARK    5  A    between atoms: C_12  and  C_14
REMARK    6  A    between atoms: C_14  and  O_15
REMARK    7  A    between atoms: O_15  and  P_16
REMARK    8  A    between atoms: P_16  and  O_17
REMARK    9  A    between atoms: P_16  and  O_18
REMARK   10  A    between atoms: C_20  and  O_22
REMARK   11  A    between atoms: C_23  and  O_25
REMARK   12  A    between atoms: C_26  and  O_28
REMARK   13  A    between atoms: C_29  and  O_31
REMARK   14  A    between atoms: C_32  and  O_34
REMARK   15  A    between atoms: C_35  and  O_37
REMARK                            x       y       z     vdW  Elec       q    Type
REMARK                         _______ _______ _______ _____ _____    ______ ____
ROOT
ATOM      1  C   UNL     1       8.367  -0.834  23.124  0.00  0.00    +0.285 C 
ATOM      2  C   UNL     1       9.834  -0.513  22.728  0.00  0.00    +0.201 C 
ATOM      3  C   UNL     1      10.239   0.932  23.083  0.00  0.00    +0.179 C 
ATOM      4  C   UNL     1       9.167   1.912  22.587  0.00  0.00    +0.177 C 
ATOM      5  C   UNL     1       7.788   1.527  23.149  0.00  0.00    +0.179 C 
ATOM      6  O   UNL     1       7.434   0.193  22.765  0.00  0.00    -0.340 OA
ENDROOT
BRANCH   2   7
ATOM      7  O   UNL     1      10.037  -0.737  21.323  0.00  0.00    -0.384 OA
ATOM      8  H   UNL     1      10.187  -1.701  21.207  0.00  0.00    +0.210 HD
ENDBRANCH   2   7
BRANCH   3   9
ATOM      9  O   UNL     1      10.458   1.116  24.487  0.00  0.00    -0.386 OA
ATOM     10  H   UNL     1      11.233   1.692  24.598  0.00  0.00    +0.210 HD
ENDBRANCH   3   9
BRANCH   4  11
ATOM     11  O   UNL     1       9.126   1.844  21.145  0.00  0.00    -0.386 OA
ATOM     12  H   UNL     1       9.843   1.238  20.871  0.00  0.00    +0.210 HD
ENDBRANCH   4  11
BRANCH   1  13
ATOM     13  O   UNL     1       8.294  -1.136  24.522  0.00  0.00    -0.317 OA
BRANCH  13  18
ATOM     14  C   UNL     1       5.662  -3.619  24.756  0.00  0.00    +0.178 C 
ATOM     15  C   UNL     1       6.187  -4.723  23.829  0.00  0.00    +0.177 C 
ATOM     16  C   UNL     1       7.713  -4.839  24.015  0.00  0.00    +0.179 C 
ATOM     17  C   UNL     1       8.413  -3.475  23.881  0.00  0.00    +0.201 C 
ATOM     18  C   UNL     1       7.696  -2.417  24.751  0.00  0.00    +0.285 C 
ATOM     19  O   UNL     1       6.313  -2.384  24.427  0.00  0.00    -0.340 OA
BRANCH  15  20
ATOM     20  O   UNL     1       5.529  -5.960  24.112  0.00  0.00    -0.386 OA
ATOM     21  H   UNL     1       6.011  -6.429  24.815  0.00  0.00    +0.210 HD
ENDBRANCH  15  20
BRANCH  16  22
ATOM     22  O   UNL     1       8.264  -5.768  23.077  0.00  0.00    -0.386 OA
ATOM     23  H   UNL     1       8.224  -6.657  23.479  0.00  0.00    +0.210 HD
ENDBRANCH  16  22
BRANCH  17  24
ATOM     24  O   UNL     1       9.801  -3.626  24.250  0.00  0.00    -0.384 OA
ATOM     25  H   UNL     1       9.992  -3.005  24.972  0.00  0.00    +0.210 HD
ENDBRANCH  17  24
BRANCH  14  26
ATOM     26  C   UNL     1       4.146  -3.432  24.641  0.00  0.00    +0.190 C 
BRANCH  26  27
ATOM     27  O   UNL     1       3.758  -2.309  25.440  0.00  0.00    -0.392 OA
ATOM     28  H   UNL     1       3.836  -2.581  26.370  0.00  0.00    +0.210 HD
ENDBRANCH  26  27
ENDBRANCH  14  26
ENDBRANCH  13  18
ENDBRANCH   1  13
BRANCH   5  29
ATOM     29  C   UNL     1       7.614   1.766  24.654  0.00  0.00    +0.206 C 
BRANCH  29  30
ATOM     30  O   UNL     1       6.285   2.155  24.926  0.00  0.00    -0.284 OA
BRANCH  30  31
ATOM     31  P   UNL     1       5.447   1.072  25.985  0.00  0.00    +0.472 P 
ATOM     32  O   UNL     1       4.698   0.104  26.933  0.00  0.00    -0.228 OA
BRANCH  31  33
ATOM     33  O   UNL     1       6.941   0.550  26.408  0.00  0.00    -0.303 OA
ATOM     34  H   UNL     1       7.612   1.247  26.358  0.00  0.00    +0.222 HD
ENDBRANCH  31  33
BRANCH  31  35
ATOM     35  O   UNL     1       5.290   0.111  24.671  0.00  0.00    -0.303 OA
ATOM     36  H   UNL     1       5.542   0.561  23.847  0.00  0.00    +0.222 HD
ENDBRANCH  31  35
ENDBRANCH  30  31
ENDBRANCH  29  30
ENDBRANCH   5  29
TORSDOF 15
ENDMDL
MODEL 7
REMARK VINA RESULT:      -6.2      2.474      6.726
REMARK  Name = 
REMARK  15 active torsions:
REMARK  status: ('A' for Active; 'I' for Inactive)
REMARK    1  A    between atoms: O_1  and  C_2
REMARK    2  A    between atoms: C_2  and  C_3
REMARK    3  A    between atoms: C_6  and  O_8
REMARK    4  A    between atoms: O_8  and  C_9
REMARK    5  A    between atoms: C_12  and  C_14
REMARK    6  A    between atoms: C_14  and  O_15
REMARK    7  A    between atoms: O_15  and  P_16
REMARK    8  A    between atoms: P_16  and  O_17
REMARK    9  A    between atoms: P_16  and  O_18
REMARK   10  A    between atoms: C_20  and  O_22
REMARK   11  A    between atoms: C_23  and  O_25
REMARK   12  A    between atoms: C_26  and  O_28
REMARK   13  A    between atoms: C_29  and  O_31
REMARK   14  A    between atoms: C_32  and  O_34
REMARK   15  A    between atoms: C_35  and  O_37
REMARK                            x       y       z     vdW  Elec       q    Type
REMARK                         _______ _______ _______ _____ _____    ______ ____
ROOT
ATOM      1  C   UNL     1       7.829  -0.319  22.496  0.00  0.00    +0.285 C 
ATOM      2  C   UNL     1       9.345  -0.659  22.509  0.00  0.00    +0.201 C 
ATOM      3  C   UNL     1      10.164   0.331  23.359  0.00  0.00    +0.179 C 
ATOM      4  C   UNL     1       9.790   1.773  22.989  0.00  0.00    +0.177 C 
ATOM      5  C   UNL     1       8.273   1.986  23.127  0.00  0.00    +0.179 C 
ATOM      6  O   UNL     1       7.550   1.072  22.293  0.00  0.00    -0.340 OA
ENDROOT
BRANCH   2   7
ATOM      7  O   UNL     1       9.866  -0.688  21.170  0.00  0.00    -0.384 OA
ATOM      8  H   UNL     1      10.371  -1.526  21.080  0.00  0.00    +0.210 HD
ENDBRANCH   2   7
BRANCH   3   9
ATOM      9  O   UNL     1       9.990   0.128  24.767  0.00  0.00    -0.386 OA
ATOM     10  H   UNL     1       9.444   0.855  25.111  0.00  0.00    +0.210 HD
ENDBRANCH   3   9
BRANCH   4  11
ATOM     11  O   UNL     1      10.176   2.000  21.616  0.00  0.00    -0.386 OA
ATOM     12  H   UNL     1       9.360   1.940  21.080  0.00  0.00    +0.210 HD
ENDBRANCH   4  11
BRANCH   1  13
ATOM     13  O   UNL     1       7.210  -0.804  23.692  0.00  0.00    -0.317 OA
BRANCH  13  18
ATOM     14  C   UNL     1       6.074  -4.017  22.453  0.00  0.00    +0.178 C 
ATOM     15  C   UNL     1       5.438  -4.632  23.707  0.00  0.00    +0.177 C 
ATOM     16  C   UNL     1       4.699  -3.522  24.479  0.00  0.00    +0.179 C 
ATOM     17  C   UNL     1       5.598  -2.297  24.726  0.00  0.00    +0.201 C 
ATOM     18  C   UNL     1       6.295  -1.870  23.414  0.00  0.00    +0.285 C 
ATOM     19  O   UNL     1       6.981  -2.979  22.850  0.00  0.00    -0.340 OA
BRANCH  15  20
ATOM     20  O   UNL     1       4.554  -5.694  23.342  0.00  0.00    -0.386 OA
ATOM     21  H   UNL     1       4.094  -6.018  24.135  0.00  0.00    +0.210 HD
ENDBRANCH  15  20
BRANCH  16  22
ATOM     22  O   UNL     1       4.199  -4.022  25.723  0.00  0.00    -0.386 OA
ATOM     23  H   UNL     1       3.979  -4.965  25.598  0.00  0.00    +0.210 HD
ENDBRANCH  16  22
BRANCH  17  24
ATOM     24  O   UNL     1       4.794  -1.233  25.282  0.00  0.00    -0.384 OA
ATOM     25  H   UNL     1       4.081  -1.034  24.654  0.00  0.00    +0.210 HD
ENDBRANCH  17  24
BRANCH  14  26
ATOM     26  C   UNL     1       6.833  -5.052  21.616  0.00  0.00    +0.190 C 
BRANCH  26  27
ATOM     27  O   UNL     1       5.955  -5.563  20.608  0.00  0.00    -0.392 OA
ATOM     28  H   UNL     1       6.402  -5.443  19.753  0.00  0.00    +0.210 HD
ENDBRANCH  26  27
ENDBRANCH  14  26
ENDBRANCH  13  18
ENDBRANCH   1  13
BRANCH   5  29
ATOM     29  C   UNL     1       7.751   1.995  24.570  0.00  0.00    +0.206 C 
BRANCH  29  30
ATOM     30  O   UNL     1       6.662   2.887  24.678  0.00  0.00    -0.284 OA
BRANCH  30  31
ATOM     31  P   UNL     1       5.236   2.164  25.340  0.00  0.00    +0.472 P 
ATOM     32  O   UNL     1       3.961   1.517  25.933  0.00  0.00    -0.228 OA
BRANCH  31  33
ATOM     33  O   UNL     1       6.260   1.052  25.971  0.00  0.00    -0.303 OA
ATOM     34  H   UNL     1       6.745   1.381  26.742  0.00  0.00    +0.222 HD
ENDBRANCH  31  33
BRANCH  31  35
ATOM     35  O   UNL     1       5.075   1.447  23.879  0.00  0.00    -0.303 OA
ATOM     36  H   UNL     1       4.157   1.189  23.689  0.00  0.00    +0.222 HD
ENDBRANCH  31  35
ENDBRANCH  30  31
ENDBRANCH  29  30
ENDBRANCH   5  29
TORSDOF 15
ENDMDL
MODEL 8
REMARK VINA RESULT:      -6.1      2.350      3.719
REMARK  Name = 
REMARK  15 active torsions:
REMARK  status: ('A' for Active; 'I' for Inactive)
REMARK    1  A    between atoms: O_1  and  C_2
REMARK    2  A    between atoms: C_2  and  C_3
REMARK    3  A    between atoms: C_6  and  O_8
REMARK    4  A    between atoms: O_8  and  C_9
REMARK    5  A    between atoms: C_12  and  C_14
REMARK    6  A    between atoms: C_14  and  O_15
REMARK    7  A    between atoms: O_15  and  P_16
REMARK    8  A    between atoms: P_16  and  O_17
REMARK    9  A    between atoms: P_16  and  O_18
REMARK   10  A    between atoms: C_20  and  O_22
REMARK   11  A    between atoms: C_23  and  O_25
REMARK   12  A    between atoms: C_26  and  O_28
REMARK   13  A    between atoms: C_29  and  O_31
REMARK   14  A    between atoms: C_32  and  O_34
REMARK   15  A    between atoms: C_35  and  O_37
REMARK                            x       y       z     vdW  Elec       q    Type
REMARK                         _______ _______ _______ _____ _____    ______ ____
ROOT
ATOM      1  C   UNL     1       8.618  -2.484  25.437  0.00  0.00    +0.285 C 
ATOM      2  C   UNL     1       8.856  -3.284  24.126  0.00  0.00    +0.201 C 
ATOM      3  C   UNL     1       8.357  -4.739  24.224  0.00  0.00    +0.179 C 
ATOM      4  C   UNL     1       8.871  -5.382  25.521  0.00  0.00    +0.177 C 
ATOM      5  C   UNL     1       8.465  -4.533  26.737  0.00  0.00    +0.179 C 
ATOM      6  O   UNL     1       8.979  -3.200  26.625  0.00  0.00    -0.340 OA
ENDROOT
BRANCH   2   7
ATOM      7  O   UNL     1      10.250  -3.277  23.778  0.00  0.00    -0.384 OA
ATOM      8  H   UNL     1      10.585  -2.371  23.964  0.00  0.00    +0.210 HD
ENDBRANCH   2   7
BRANCH   3   9
ATOM      9  O   UNL     1       6.929  -4.841  24.162  0.00  0.00    -0.386 OA
ATOM     10  H   UNL     1       6.686  -5.770  24.312  0.00  0.00    +0.210 HD
ENDBRANCH   3   9
BRANCH   4  11
ATOM     11  O   UNL     1      10.311  -5.449  25.450  0.00  0.00    -0.386 OA
ATOM     12  H   UNL     1      10.573  -5.026  24.608  0.00  0.00    +0.210 HD
ENDBRANCH   4  11
BRANCH   1  13
ATOM     13  O   UNL     1       7.259  -2.036  25.494  0.00  0.00    -0.317 OA
BRANCH  13  18
ATOM     14  C   UNL     1       8.289   1.400  24.964  0.00  0.00    +0.178 C 
ATOM     15  C   UNL     1       7.085   1.977  24.207  0.00  0.00    +0.177 C 
ATOM     16  C   UNL     1       5.795   1.384  24.807  0.00  0.00    +0.179 C 
ATOM     17  C   UNL     1       5.852  -0.152  24.887  0.00  0.00    +0.201 C 
ATOM     18  C   UNL     1       7.180  -0.607  25.535  0.00  0.00    +0.285 C 
ATOM     19  O   UNL     1       8.277  -0.029  24.841  0.00  0.00    -0.340 OA
BRANCH  15  20
ATOM     20  O   UNL     1       7.091   3.404  24.284  0.00  0.00    -0.386 OA
ATOM     21  H   UNL     1       7.825   3.753  23.751  0.00  0.00    +0.210 HD
ENDBRANCH  15  20
BRANCH  16  22
ATOM     22  O   UNL     1       4.653   1.794  24.048  0.00  0.00    -0.386 OA
ATOM     23  H   UNL     1       4.024   1.048  24.031  0.00  0.00    +0.210 HD
ENDBRANCH  16  22
BRANCH  17  24
ATOM     24  O   UNL     1       4.703  -0.623  25.624  0.00  0.00    -0.384 OA
ATOM     25  H   UNL     1       4.336   0.125  26.123  0.00  0.00    +0.210 HD
ENDBRANCH  17  24
BRANCH  14  26
ATOM     26  C   UNL     1       9.623   1.938  24.436  0.00  0.00    +0.190 C 
BRANCH  26  27
ATOM     27  O   UNL     1       9.462   2.299  23.060  0.00  0.00    -0.392 OA
ATOM     28  H   UNL     1       9.289   1.478  22.568  0.00  0.00    +0.210 HD
ENDBRANCH  26  27
ENDBRANCH  14  26
ENDBRANCH  13  18
ENDBRANCH   1  13
BRANCH   5  29
ATOM     29  C   UNL     1       6.968  -4.553  27.069  0.00  0.00    +0.206 C 
BRANCH  29  30
ATOM     30  O   UNL     1       6.694  -5.596  27.979  0.00  0.00    -0.284 OA
BRANCH  30  31
ATOM     31  P   UNL     1       5.104  -6.261  27.816  0.00  0.00    +0.472 P 
ATOM     32  O   UNL     1       3.682  -6.855  27.672  0.00  0.00    -0.228 OA
BRANCH  31  33
ATOM     33  O   UNL     1       5.740  -7.596  28.520  0.00  0.00    -0.303 OA
ATOM     34  H   UNL     1       5.998  -7.450  29.443  0.00  0.00    +0.222 HD
ENDBRANCH  31  33
BRANCH  31  35
ATOM     35  O   UNL     1       5.554  -6.635  26.289  0.00  0.00    -0.303 OA
ATOM     36  H   UNL     1       4.798  -6.857  25.721  0.00  0.00    +0.222 HD
ENDBRANCH  31  35
ENDBRANCH  30  31
ENDBRANCH  29  30
ENDBRANCH   5  29
TORSDOF 15
ENDMDL
MODEL 9
REMARK VINA RESULT:      -6.0      2.227      6.475
REMARK  Name = 
REMARK  15 active torsions:
REMARK  status: ('A' for Active; 'I' for Inactive)
REMARK    1  A    between atoms: O_1  and  C_2
REMARK    2  A    between atoms: C_2  and  C_3
REMARK    3  A    between atoms: C_6  and  O_8
REMARK    4  A    between atoms: O_8  and  C_9
REMARK    5  A    between atoms: C_12  and  C_14
REMARK    6  A    between atoms: C_14  and  O_15
REMARK    7  A    between atoms: O_15  and  P_16
REMARK    8  A    between atoms: P_16  and  O_17
REMARK    9  A    between atoms: P_16  and  O_18
REMARK   10  A    between atoms: C_20  and  O_22
REMARK   11  A    between atoms: C_23  and  O_25
REMARK   12  A    between atoms: C_26  and  O_28
REMARK   13  A    between atoms: C_29  and  O_31
REMARK   14  A    between atoms: C_32  and  O_34
REMARK   15  A    between atoms: C_35  and  O_37
REMARK                            x       y       z     vdW  Elec       q    Type
REMARK                         _______ _______ _______ _____ _____    ______ ____
ROOT
ATOM      1  C   UNL     1       8.375  -2.184  22.331  0.00  0.00    +0.285 C 
ATOM      2  C   UNL     1       9.168  -2.464  23.637  0.00  0.00    +0.201 C 
ATOM      3  C   UNL     1       9.103  -1.286  24.630  0.00  0.00    +0.179 C 
ATOM      4  C   UNL     1       9.423   0.028  23.905  0.00  0.00    +0.177 C 
ATOM      5  C   UNL     1       8.486   0.217  22.700  0.00  0.00    +0.179 C 
ATOM      6  O   UNL     1       8.605  -0.879  21.784  0.00  0.00    -0.340 OA
ENDROOT
BRANCH   2   7
ATOM      7  O   UNL     1      10.541  -2.765  23.339  0.00  0.00    -0.384 OA
ATOM      8  H   UNL     1      10.835  -3.433  23.997  0.00  0.00    +0.210 HD
ENDBRANCH   2   7
BRANCH   3   9
ATOM      9  O   UNL     1       7.834  -1.185  25.287  0.00  0.00    -0.386 OA
ATOM     10  H   UNL     1       7.977  -1.308  26.241  0.00  0.00    +0.210 HD
ENDBRANCH   3   9
BRANCH   4  11
ATOM     11  O   UNL     1      10.788  -0.036  23.438  0.00  0.00    -0.386 OA
ATOM     12  H   UNL     1      10.774  -0.522  22.590  0.00  0.00    +0.210 HD
ENDBRANCH   4  11
BRANCH   1  13
ATOM     13  O   UNL     1       6.979  -2.417  22.548  0.00  0.00    -0.317 OA
BRANCH  13  18
ATOM     14  C   UNL     1       6.327  -4.943  25.067  0.00  0.00    +0.178 C 
ATOM     15  C   UNL     1       5.071  -5.627  24.509  0.00  0.00    +0.177 C 
ATOM     16  C   UNL     1       5.205  -5.731  22.978  0.00  0.00    +0.179 C 
ATOM     17  C   UNL     1       5.559  -4.376  22.339  0.00  0.00    +0.201 C 
ATOM     18  C   UNL     1       6.744  -3.723  23.087  0.00  0.00    +0.285 C 
ATOM     19  O   UNL     1       6.452  -3.643  24.475  0.00  0.00    -0.340 OA
BRANCH  15  20
ATOM     20  O   UNL     1       4.903  -6.914  25.109  0.00  0.00    -0.386 OA
ATOM     21  H   UNL     1       4.999  -6.836  26.073  0.00  0.00    +0.210 HD
ENDBRANCH  15  20
BRANCH  16  22
ATOM     22  O   UNL     1       4.001  -6.246  22.401  0.00  0.00    -0.386 OA
ATOM     23  H   UNL     1       4.217  -6.579  21.509  0.00  0.00    +0.210 HD
ENDBRANCH  16  22
BRANCH  17  24
ATOM     24  O   UNL     1       5.851  -4.583  20.940  0.00  0.00    -0.384 OA
ATOM     25  H   UNL     1       6.667  -4.102  20.727  0.00  0.00    +0.210 HD
ENDBRANCH  17  24
BRANCH  14  26
ATOM     26  C   UNL     1       6.284  -4.798  26.591  0.00  0.00    +0.190 C 
BRANCH  26  27
ATOM     27  O   UNL     1       4.918  -4.691  27.006  0.00  0.00    -0.392 OA
ATOM     28  H   UNL     1       4.888  -4.921  27.950  0.00  0.00    +0.210 HD
ENDBRANCH  26  27
ENDBRANCH  14  26
ENDBRANCH  13  18
ENDBRANCH   1  13
BRANCH   5  29
ATOM     29  C   UNL     1       7.026   0.521  23.057  0.00  0.00    +0.206 C 
BRANCH  29  30
ATOM     30  O   UNL     1       6.978   1.464  24.107  0.00  0.00    -0.284 OA
BRANCH  30  31
ATOM     31  P   UNL     1       5.427   1.578  24.867  0.00  0.00    +0.472 P 
ATOM     32  O   UNL     1       4.041   1.679  25.549  0.00  0.00    -0.228 OA
BRANCH  31  33
ATOM     33  O   UNL     1       5.343  -0.039  24.623  0.00  0.00    -0.303 OA
ATOM     34  H   UNL     1       6.190  -0.425  24.357  0.00  0.00    +0.222 HD
ENDBRANCH  31  33
BRANCH  31  35
ATOM     35  O   UNL     1       4.875   2.009  23.390  0.00  0.00    -0.303 OA
ATOM     36  H   UNL     1       5.587   2.086  22.733  0.00  0.00    +0.222 HD
ENDBRANCH  31  35
ENDBRANCH  30  31
ENDBRANCH  29  30
ENDBRANCH   5  29
TORSDOF 15
ENDMDL
