MODEL 1
REMARK VINA RESULT:      -4.6      0.000      0.000
REMARK  Name = 
REMARK  9 active torsions:
REMARK  status: ('A' for Active; 'I' for Inactive)
REMARK    1  A    between atoms: C_2  and  C_3
REMARK    2  A    between atoms: C_2  and  C_7
REMARK    3  A    between atoms: C_2  and  C_12
REMARK    4  A    between atoms: C_3  and  C_4
REMARK    5  A    between atoms: C_4  and  C_5
REMARK    6  A    between atoms: C_4  and  C_6
REMARK    7  A    between atoms: C_7  and  N_8
REMARK    8  A    between atoms: N_8  and  O_9
REMARK    9  A    between atoms: C_12  and  O_13
REMARK                            x       y       z     vdW  Elec       q    Type
REMARK                         _______ _______ _______ _____ _____    ______ ____
ROOT
ATOM      1  C   UNL     1       8.025  -5.088  24.722  0.00  0.00    +0.117 C 
ENDROOT
BRANCH   1   2
ATOM      2  C   UNL     1       9.485  -4.757  24.945  0.00  0.00    +0.309 C 
ATOM      3  O   UNL     1      10.068  -3.826  24.411  0.00  0.00    -0.251 OA
BRANCH   2   4
ATOM      4  O   UNL     1      10.109  -5.586  25.811  0.00  0.00    -0.480 OA
ATOM      5  H   UNL     1      10.912  -5.223  26.230  0.00  0.00    +0.295 HD
ENDBRANCH   2   4
ENDBRANCH   1   2
BRANCH   1   6
ATOM      6  C   UNL     1       7.247  -4.441  25.882  0.00  0.00    +0.154 C 
BRANCH   6   7
ATOM      7  N   UNL     1       6.753  -5.391  26.874  0.00  0.00    -0.186 N 
ATOM      8  C   UNL     1       5.598  -6.117  26.720  0.00  0.00    +0.352 C 
ATOM      9  O   UNL     1       4.716  -5.900  25.899  0.00  0.00    -0.277 OA
BRANCH   7  10
ATOM     10  O   UNL     1       7.762  -5.986  27.661  0.00  0.00    -0.293 OA
ATOM     11  H   UNL     1       8.345  -5.226  27.847  0.00  0.00    +0.242 HD
ENDBRANCH   7  10
ENDBRANCH   6   7
ENDBRANCH   1   6
BRANCH   1  12
ATOM     12  C   UNL     1       7.559  -4.599  23.340  0.00  0.00    +0.019 C 
BRANCH  12  13
ATOM     13  C   UNL     1       6.279  -5.276  22.807  0.00  0.00    -0.016 C 
ATOM     14  C   UNL     1       6.547  -5.830  21.404  0.00  0.00    +0.007 C 
ATOM     15  C   UNL     1       5.079  -4.326  22.757  0.00  0.00    +0.007 C 
ENDBRANCH  12  13
ENDBRANCH   1  12
TORSDOF 7
ENDMDL
MODEL 2
REMARK VINA RESULT:      -4.4      2.183      3.517
REMARK  Name = 
REMARK  9 active torsions:
REMARK  status: ('A' for Active; 'I' for Inactive)
REMARK    1  A    between atoms: C_2  and  C_3
REMARK    2  A    between atoms: C_2  and  C_7
REMARK    3  A    between atoms: C_2  and  C_12
REMARK    4  A    between atoms: C_3  and  C_4
REMARK    5  A    between atoms: C_4  and  C_5
REMARK    6  A    between atoms: C_4  and  C_6
REMARK    7  A    between atoms: C_7  and  N_8
REMARK    8  A    between atoms: N_8  and  O_9
REMARK    9  A    between atoms: C_12  and  O_13
REMARK                            x       y       z     vdW  Elec       q    Type
REMARK                         _______ _______ _______ _____ _____    ______ ____
ROOT
ATOM      1  C   UNL     1       7.794  -4.641  24.684  0.00  0.00    +0.117 C 
ENDROOT
BRANCH   1   2
ATOM      2  C   UNL     1       8.889  -5.299  25.496  0.00  0.00    +0.309 C 
ATOM      3  O   UNL     1      10.073  -5.275  25.198  0.00  0.00    -0.251 OA
BRANCH   2   4
ATOM      4  O   UNL     1       8.447  -5.921  26.612  0.00  0.00    -0.480 OA
ATOM      5  H   UNL     1       8.531  -6.892  26.607  0.00  0.00    +0.295 HD
ENDBRANCH   2   4
ENDBRANCH   1   2
BRANCH   1   6
ATOM      6  C   UNL     1       8.094  -3.132  24.685  0.00  0.00    +0.154 C 
BRANCH   6   7
ATOM      7  N   UNL     1       8.801  -2.663  23.497  0.00  0.00    -0.186 N 
ATOM      8  C   UNL     1       8.307  -1.702  22.649  0.00  0.00    +0.352 C 
ATOM      9  O   UNL     1       7.150  -1.303  22.611  0.00  0.00    -0.277 OA
BRANCH   7  10
ATOM     10  O   UNL     1      10.206  -2.752  23.584  0.00  0.00    -0.293 OA
ATOM     11  H   UNL     1      10.428  -3.232  22.763  0.00  0.00    +0.242 HD
ENDBRANCH   7  10
ENDBRANCH   6   7
ENDBRANCH   1   6
BRANCH   1  12
ATOM     12  C   UNL     1       7.728  -5.240  23.269  0.00  0.00    +0.019 C 
BRANCH  12  13
ATOM     13  C   UNL     1       6.334  -5.201  22.608  0.00  0.00    -0.016 C 
ATOM     14  C   UNL     1       5.358  -6.046  23.434  0.00  0.00    +0.007 C 
ATOM     15  C   UNL     1       6.346  -5.705  21.163  0.00  0.00    +0.007 C 
ENDBRANCH  12  13
ENDBRANCH   1  12
TORSDOF 7
ENDMDL
MODEL 3
REMARK VINA RESULT:      -4.4      2.226      3.984
REMARK  Name = 
REMARK  9 active torsions:
REMARK  status: ('A' for Active; 'I' for Inactive)
REMARK    1  A    between atoms: C_2  and  C_3
REMARK    2  A    between atoms: C_2  and  C_7
REMARK    3  A    between atoms: C_2  and  C_12
REMARK    4  A    between atoms: C_3  and  C_4
REMARK    5  A    between atoms: C_4  and  C_5
REMARK    6  A    between atoms: C_4  and  C_6
REMARK    7  A    between atoms: C_7  and  N_8
REMARK    8  A    between atoms: N_8  and  O_9
REMARK    9  A    between atoms: C_12  and  O_13
REMARK                            x       y       z     vdW  Elec       q    Type
REMARK                         _______ _______ _______ _____ _____    ______ ____
ROOT
ATOM      1  C   UNL     1       8.051  -4.168  25.104  0.00  0.00    +0.117 C 
ENDROOT
BRANCH   1   2
ATOM      2  C   UNL     1       8.484  -5.336  25.964  0.00  0.00    +0.309 C 
ATOM      3  O   UNL     1       7.814  -5.808  26.870  0.00  0.00    -0.251 OA
BRANCH   2   4
ATOM      4  O   UNL     1       9.695  -5.839  25.636  0.00  0.00    -0.480 OA
ATOM      5  H   UNL     1       9.939  -6.667  26.090  0.00  0.00    +0.295 HD
ENDBRANCH   2   4
ENDBRANCH   1   2
BRANCH   1   6
ATOM      6  C   UNL     1       9.319  -3.642  24.408  0.00  0.00    +0.154 C 
BRANCH   6   7
ATOM      7  N   UNL     1       9.444  -2.188  24.413  0.00  0.00    -0.186 N 
ATOM      8  C   UNL     1       9.950  -1.465  23.361  0.00  0.00    +0.352 C 
ATOM      9  O   UNL     1      10.582  -1.919  22.416  0.00  0.00    -0.277 OA
BRANCH   7  10
ATOM     10  O   UNL     1       8.497  -1.527  25.225  0.00  0.00    -0.293 OA
ATOM     11  H   UNL     1       8.151  -0.848  24.615  0.00  0.00    +0.242 HD
ENDBRANCH   7  10
ENDBRANCH   6   7
ENDBRANCH   1   6
BRANCH   1  12
ATOM     12  C   UNL     1       6.955  -4.595  24.113  0.00  0.00    +0.019 C 
BRANCH  12  13
ATOM     13  C   UNL     1       7.340  -4.471  22.623  0.00  0.00    -0.016 C 
ATOM     14  C   UNL     1       6.523  -3.345  21.981  0.00  0.00    +0.007 C 
ATOM     15  C   UNL     1       7.118  -5.769  21.841  0.00  0.00    +0.007 C 
ENDBRANCH  12  13
ENDBRANCH   1  12
TORSDOF 7
ENDMDL
MODEL 4
REMARK VINA RESULT:      -4.4      2.828      4.000
REMARK  Name = 
REMARK  9 active torsions:
REMARK  status: ('A' for Active; 'I' for Inactive)
REMARK    1  A    between atoms: C_2  and  C_3
REMARK    2  A    between atoms: C_2  and  C_7
REMARK    3  A    between atoms: C_2  and  C_12
REMARK    4  A    between atoms: C_3  and  C_4
REMARK    5  A    between atoms: C_4  and  C_5
REMARK    6  A    between atoms: C_4  and  C_6
REMARK    7  A    between atoms: C_7  and  N_8
REMARK    8  A    between atoms: N_8  and  O_9
REMARK    9  A    between atoms: C_12  and  O_13
REMARK                            x       y       z     vdW  Elec       q    Type
REMARK                         _______ _______ _______ _____ _____    ______ ____
ROOT
ATOM      1  C   UNL     1       8.362  -4.501  24.211  0.00  0.00    +0.117 C 
ENDROOT
BRANCH   1   2
ATOM      2  C   UNL     1       8.816  -5.376  25.359  0.00  0.00    +0.309 C 
ATOM      3  O   UNL     1       8.085  -5.767  26.256  0.00  0.00    -0.251 OA
BRANCH   2   4
ATOM      4  O   UNL     1      10.125  -5.710  25.309  0.00  0.00    -0.480 OA
ATOM      5  H   UNL     1      10.363  -6.532  25.777  0.00  0.00    +0.295 HD
ENDBRANCH   2   4
ENDBRANCH   1   2
BRANCH   1   6
ATOM      6  C   UNL     1       6.891  -4.862  23.940  0.00  0.00    +0.154 C 
BRANCH   6   7
ATOM      7  N   UNL     1       6.614  -5.249  22.560  0.00  0.00    -0.186 N 
ATOM      8  C   UNL     1       6.019  -4.418  21.643  0.00  0.00    +0.352 C 
ATOM      9  O   UNL     1       5.423  -3.379  21.896  0.00  0.00    -0.277 OA
BRANCH   7  10
ATOM     10  O   UNL     1       7.500  -6.217  22.039  0.00  0.00    -0.293 OA
ATOM     11  H   UNL     1       8.081  -6.387  22.805  0.00  0.00    +0.242 HD
ENDBRANCH   7  10
ENDBRANCH   6   7
ENDBRANCH   1   6
BRANCH   1  12
ATOM     12  C   UNL     1       8.563  -3.013  24.545  0.00  0.00    +0.019 C 
BRANCH  12  13
ATOM     13  C   UNL     1       9.498  -2.249  23.584  0.00  0.00    -0.016 C 
ATOM     14  C   UNL     1       9.934  -0.935  24.239  0.00  0.00    +0.007 C 
ATOM     15  C   UNL     1       8.846  -1.951  22.231  0.00  0.00    +0.007 C 
ENDBRANCH  12  13
ENDBRANCH   1  12
TORSDOF 7
ENDMDL
MODEL 5
REMARK VINA RESULT:      -4.4      4.460      5.430
REMARK  Name = 
REMARK  9 active torsions:
REMARK  status: ('A' for Active; 'I' for Inactive)
REMARK    1  A    between atoms: C_2  and  C_3
REMARK    2  A    between atoms: C_2  and  C_7
REMARK    3  A    between atoms: C_2  and  C_12
REMARK    4  A    between atoms: C_3  and  C_4
REMARK    5  A    between atoms: C_4  and  C_5
REMARK    6  A    between atoms: C_4  and  C_6
REMARK    7  A    between atoms: C_7  and  N_8
REMARK    8  A    between atoms: N_8  and  O_9
REMARK    9  A    between atoms: C_12  and  O_13
REMARK                            x       y       z     vdW  Elec       q    Type
REMARK                         _______ _______ _______ _____ _____    ______ ____
ROOT
ATOM      1  C   UNL     1       8.303  -1.360  22.429  0.00  0.00    +0.117 C 
ENDROOT
BRANCH   1   2
ATOM      2  C   UNL     1       9.672  -1.893  22.794  0.00  0.00    +0.309 C 
ATOM      3  O   UNL     1       9.944  -2.413  23.866  0.00  0.00    -0.251 OA
BRANCH   2   4
ATOM      4  O   UNL     1      10.593  -1.756  21.815  0.00  0.00    -0.480 OA
ATOM      5  H   UNL     1      11.411  -1.292  22.074  0.00  0.00    +0.295 HD
ENDBRANCH   2   4
ENDBRANCH   1   2
BRANCH   1   6
ATOM      6  C   UNL     1       7.278  -2.296  23.092  0.00  0.00    +0.154 C 
BRANCH   6   7
ATOM      7  N   UNL     1       6.849  -3.407  22.249  0.00  0.00    -0.186 N 
ATOM      8  C   UNL     1       7.216  -4.712  22.467  0.00  0.00    +0.352 C 
ATOM      9  O   UNL     1       8.119  -5.091  23.200  0.00  0.00    -0.277 OA
BRANCH   7  10
ATOM     10  O   UNL     1       5.602  -3.208  21.616  0.00  0.00    -0.293 OA
ATOM     11  H   UNL     1       5.293  -2.385  22.040  0.00  0.00    +0.242 HD
ENDBRANCH   7  10
ENDBRANCH   6   7
ENDBRANCH   1   6
BRANCH   1  12
ATOM     12  C   UNL     1       8.152   0.106  22.870  0.00  0.00    +0.019 C 
BRANCH  12  13
ATOM     13  C   UNL     1       8.496   1.151  21.787  0.00  0.00    -0.016 C 
ATOM     14  C   UNL     1       9.918   1.670  22.018  0.00  0.00    +0.007 C 
ATOM     15  C   UNL     1       7.521   2.331  21.769  0.00  0.00    +0.007 C 
ENDBRANCH  12  13
ENDBRANCH   1  12
TORSDOF 7
ENDMDL
MODEL 6
REMARK VINA RESULT:      -4.4      4.883      6.071
REMARK  Name = 
REMARK  9 active torsions:
REMARK  status: ('A' for Active; 'I' for Inactive)
REMARK    1  A    between atoms: C_2  and  C_3
REMARK    2  A    between atoms: C_2  and  C_7
REMARK    3  A    between atoms: C_2  and  C_12
REMARK    4  A    between atoms: C_3  and  C_4
REMARK    5  A    between atoms: C_4  and  C_5
REMARK    6  A    between atoms: C_4  and  C_6
REMARK    7  A    between atoms: C_7  and  N_8
REMARK    8  A    between atoms: N_8  and  O_9
REMARK    9  A    between atoms: C_12  and  O_13
REMARK                            x       y       z     vdW  Elec       q    Type
REMARK                         _______ _______ _______ _____ _____    ______ ____
ROOT
ATOM      1  C   UNL     1       9.652  -0.481  23.424  0.00  0.00    +0.117 C 
ENDROOT
BRANCH   1   2
ATOM      2  C   UNL     1       9.657  -0.483  21.910  0.00  0.00    +0.309 C 
ATOM      3  O   UNL     1       9.320   0.467  21.221  0.00  0.00    -0.251 OA
BRANCH   2   4
ATOM      4  O   UNL     1      10.084  -1.644  21.365  0.00  0.00    -0.480 OA
ATOM      5  H   UNL     1      10.232  -2.371  21.998  0.00  0.00    +0.295 HD
ENDBRANCH   2   4
ENDBRANCH   1   2
BRANCH   1   6
ATOM      6  C   UNL     1       9.831  -1.944  23.865  0.00  0.00    +0.154 C 
BRANCH   6   7
ATOM      7  N   UNL     1       8.611  -2.573  24.360  0.00  0.00    -0.186 N 
ATOM      8  C   UNL     1       7.784  -3.345  23.582  0.00  0.00    +0.352 C 
ATOM      9  O   UNL     1       7.799  -3.405  22.359  0.00  0.00    -0.277 OA
BRANCH   7  10
ATOM     10  O   UNL     1       8.634  -2.881  25.738  0.00  0.00    -0.293 OA
ATOM     11  H   UNL     1       8.588  -1.993  26.141  0.00  0.00    +0.242 HD
ENDBRANCH   7  10
ENDBRANCH   6   7
ENDBRANCH   1   6
BRANCH   1  12
ATOM     12  C   UNL     1      10.746   0.450  23.973  0.00  0.00    +0.019 C 
BRANCH  12  13
ATOM     13  C   UNL     1      10.257   1.850  24.402  0.00  0.00    -0.016 C 
ATOM     14  C   UNL     1       8.744   1.808  24.635  0.00  0.00    +0.007 C 
ATOM     15  C   UNL     1      10.583   2.935  23.373  0.00  0.00    +0.007 C 
ENDBRANCH  12  13
ENDBRANCH   1  12
TORSDOF 7
ENDMDL
MODEL 7
REMARK VINA RESULT:      -4.3      3.076      4.788
REMARK  Name = 
REMARK  9 active torsions:
REMARK  status: ('A' for Active; 'I' for Inactive)
REMARK    1  A    between atoms: C_2  and  C_3
REMARK    2  A    between atoms: C_2  and  C_7
REMARK    3  A    between atoms: C_2  and  C_12
REMARK    4  A    between atoms: C_3  and  C_4
REMARK    5  A    between atoms: C_4  and  C_5
REMARK    6  A    between atoms: C_4  and  C_6
REMARK    7  A    between atoms: C_7  and  N_8
REMARK    8  A    between atoms: N_8  and  O_9
REMARK    9  A    between atoms: C_12  and  O_13
REMARK                            x       y       z     vdW  Elec       q    Type
REMARK                         _______ _______ _______ _____ _____    ______ ____
ROOT
ATOM      1  C   UNL     1       8.457  -3.011  24.407  0.00  0.00    +0.117 C 
ENDROOT
BRANCH   1   2
ATOM      2  C   UNL     1       8.541  -3.007  25.919  0.00  0.00    +0.309 C 
ATOM      3  O   UNL     1       8.526  -4.013  26.610  0.00  0.00    -0.251 OA
BRANCH   2   4
ATOM      4  O   UNL     1       8.647  -1.772  26.459  0.00  0.00    -0.480 OA
ATOM      5  H   UNL     1       9.469  -1.605  26.957  0.00  0.00    +0.295 HD
ENDBRANCH   2   4
ENDBRANCH   1   2
BRANCH   1   6
ATOM      6  C   UNL     1       9.872  -2.699  23.889  0.00  0.00    +0.154 C 
BRANCH   6   7
ATOM      7  N   UNL     1       9.968  -1.464  23.117  0.00  0.00    -0.186 N 
ATOM      8  C   UNL     1      10.336  -0.257  23.658  0.00  0.00    +0.352 C 
ATOM      9  O   UNL     1      10.382   0.012  24.851  0.00  0.00    -0.277 OA
BRANCH   7  10
ATOM     10  O   UNL     1      10.276  -1.655  21.753  0.00  0.00    -0.293 OA
ATOM     11  H   UNL     1      11.175  -2.032  21.802  0.00  0.00    +0.242 HD
ENDBRANCH   7  10
ENDBRANCH   6   7
ENDBRANCH   1   6
BRANCH   1  12
ATOM     12  C   UNL     1       7.912  -4.354  23.894  0.00  0.00    +0.019 C 
BRANCH  12  13
ATOM     13  C   UNL     1       7.398  -4.336  22.439  0.00  0.00    -0.016 C 
ATOM     14  C   UNL     1       6.151  -3.451  22.353  0.00  0.00    +0.007 C 
ATOM     15  C   UNL     1       7.068  -5.733  21.907  0.00  0.00    +0.007 C 
ENDBRANCH  12  13
ENDBRANCH   1  12
TORSDOF 7
ENDMDL
MODEL 8
REMARK VINA RESULT:      -4.3      6.092      7.493
REMARK  Name = 
REMARK  9 active torsions:
REMARK  status: ('A' for Active; 'I' for Inactive)
REMARK    1  A    between atoms: C_2  and  C_3
REMARK    2  A    between atoms: C_2  and  C_7
REMARK    3  A    between atoms: C_2  and  C_12
REMARK    4  A    between atoms: C_3  and  C_4
REMARK    5  A    between atoms: C_4  and  C_5
REMARK    6  A    between atoms: C_4  and  C_6
REMARK    7  A    between atoms: C_7  and  N_8
REMARK    8  A    between atoms: N_8  and  O_9
REMARK    9  A    between atoms: C_12  and  O_13
REMARK                            x       y       z     vdW  Elec       q    Type
REMARK                         _______ _______ _______ _____ _____    ______ ____
ROOT
ATOM      1  C   UNL     1       9.328   0.879  23.334  0.00  0.00    +0.117 C 
ENDROOT
BRANCH   1   2
ATOM      2  C   UNL     1       9.186   1.603  22.013  0.00  0.00    +0.309 C 
ATOM      3  O   UNL     1       8.175   1.594  21.329  0.00  0.00    -0.251 OA
BRANCH   2   4
ATOM      4  O   UNL     1      10.291   2.289  21.642  0.00  0.00    -0.480 OA
ATOM      5  H   UNL     1      10.138   3.014  21.008  0.00  0.00    +0.295 HD
ENDBRANCH   2   4
ENDBRANCH   1   2
BRANCH   1   6
ATOM      6  C   UNL     1      10.548  -0.048  23.198  0.00  0.00    +0.154 C 
BRANCH   6   7
ATOM      7  N   UNL     1      10.224  -1.405  22.768  0.00  0.00    -0.186 N 
ATOM      8  C   UNL     1       9.521  -2.298  23.538  0.00  0.00    +0.352 C 
ATOM      9  O   UNL     1       9.300  -2.194  24.738  0.00  0.00    -0.277 OA
BRANCH   7  10
ATOM     10  O   UNL     1      10.101  -1.557  21.370  0.00  0.00    -0.293 OA
ATOM     11  H   UNL     1      10.550  -2.411  21.222  0.00  0.00    +0.242 HD
ENDBRANCH   7  10
ENDBRANCH   6   7
ENDBRANCH   1   6
BRANCH   1  12
ATOM     12  C   UNL     1       9.461   1.880  24.495  0.00  0.00    +0.019 C 
BRANCH  12  13
ATOM     13  C   UNL     1       8.215   2.755  24.747  0.00  0.00    -0.016 C 
ATOM     14  C   UNL     1       8.646   4.217  24.902  0.00  0.00    +0.007 C 
ATOM     15  C   UNL     1       7.425   2.324  25.985  0.00  0.00    +0.007 C 
ENDBRANCH  12  13
ENDBRANCH   1  12
TORSDOF 7
ENDMDL
MODEL 9
REMARK VINA RESULT:      -4.3      3.606      5.432
REMARK  Name = 
REMARK  9 active torsions:
REMARK  status: ('A' for Active; 'I' for Inactive)
REMARK    1  A    between atoms: C_2  and  C_3
REMARK    2  A    between atoms: C_2  and  C_7
REMARK    3  A    between atoms: C_2  and  C_12
REMARK    4  A    between atoms: C_3  and  C_4
REMARK    5  A    between atoms: C_4  and  C_5
REMARK    6  A    between atoms: C_4  and  C_6
REMARK    7  A    between atoms: C_7  and  N_8
REMARK    8  A    between atoms: N_8  and  O_9
REMARK    9  A    between atoms: C_12  and  O_13
REMARK                            x       y       z     vdW  Elec       q    Type
REMARK                         _______ _______ _______ _____ _____    ______ ____
ROOT
ATOM      1  C   UNL     1       7.632  -3.449  22.426  0.00  0.00    +0.117 C 
ENDROOT
BRANCH   1   2
ATOM      2  C   UNL     1       6.215  -2.937  22.273  0.00  0.00    +0.309 C 
ATOM      3  O   UNL     1       5.405  -3.385  21.477  0.00  0.00    -0.251 OA
BRANCH   2   4
ATOM      4  O   UNL     1       5.904  -1.927  23.115  0.00  0.00    -0.480 OA
ATOM      5  H   UNL     1       6.621  -1.288  23.283  0.00  0.00    +0.295 HD
ENDBRANCH   2   4
ENDBRANCH   1   2
BRANCH   1   6
ATOM      6  C   UNL     1       8.438  -2.316  23.086  0.00  0.00    +0.154 C 
BRANCH   6   7
ATOM      7  N   UNL     1       9.041  -1.382  22.140  0.00  0.00    -0.186 N 
ATOM      8  C   UNL     1       8.698  -0.055  22.060  0.00  0.00    +0.352 C 
ATOM      9  O   UNL     1       7.705   0.462  22.556  0.00  0.00    -0.277 OA
BRANCH   7  10
ATOM     10  O   UNL     1      10.363  -1.707  21.766  0.00  0.00    -0.293 OA
ATOM     11  H   UNL     1      10.309  -1.670  20.792  0.00  0.00    +0.242 HD
ENDBRANCH   7  10
ENDBRANCH   6   7
ENDBRANCH   1   6
BRANCH   1  12
ATOM     12  C   UNL     1       7.656  -4.755  23.238  0.00  0.00    +0.019 C 
BRANCH  12  13
ATOM     13  C   UNL     1       7.897  -4.578  24.752  0.00  0.00    -0.016 C 
ATOM     14  C   UNL     1       9.166  -5.335  25.155  0.00  0.00    +0.007 C 
ATOM     15  C   UNL     1       6.722  -5.066  25.602  0.00  0.00    +0.007 C 
ENDBRANCH  12  13
ENDBRANCH   1  12
TORSDOF 7
ENDMDL
