MODEL 1
REMARK VINA RESULT:      -5.8      0.000      0.000
REMARK  Name = 
REMARK  3 active torsions:
REMARK  status: ('A' for Active; 'I' for Inactive)
REMARK    1  A    between atoms: C_1  and  C_2
REMARK    2  A    between atoms: C_5  and  N_11
REMARK    3  A    between atoms: C_8  and  O_10
REMARK                            x       y       z     vdW  Elec       q    Type
REMARK                         _______ _______ _______ _____ _____    ______ ____
ROOT
ATOM      1  N   UNL     1       7.272  -4.487  24.937  0.00  0.00    -0.274 N 
ATOM      2  C   UNL     1       8.355  -5.215  25.414  0.00  0.00    +0.331 A 
ATOM      3  O   UNL     1       9.423  -5.375  24.833  0.00  0.00    -0.246 OA
ATOM      4  N   UNL     1       8.185  -5.793  26.651  0.00  0.00    -0.275 N 
ATOM      5  H   UNL     1       8.973  -6.298  27.022  0.00  0.00    +0.173 HD
ATOM      6  C   UNL     1       7.092  -5.677  27.458  0.00  0.00    +0.254 A 
ATOM      7  O   UNL     1       7.035  -6.156  28.584  0.00  0.00    -0.268 OA
ATOM      8  C   UNL     1       5.965  -4.930  26.891  0.00  0.00    +0.088 A 
ATOM      9  C   UNL     1       6.104  -4.380  25.684  0.00  0.00    +0.098 A 
ENDROOT
BRANCH   1  14
ATOM     10  C   UNL     1       6.280  -5.731  20.804  0.00  0.00    +0.040 C 
ATOM     11  C   UNL     1       6.211  -5.163  22.209  0.00  0.00    +0.146 C 
ATOM     12  C   UNL     1       5.291  -3.946  22.332  0.00  0.00    +0.147 C 
ATOM     13  C   UNL     1       6.085  -2.960  23.178  0.00  0.00    +0.088 C 
ATOM     14  C   UNL     1       7.296  -3.752  23.659  0.00  0.00    +0.226 C 
ATOM     15  O   UNL     1       7.517  -4.714  22.609  0.00  0.00    -0.351 OA
BRANCH  12  16
ATOM     16  O   UNL     1       4.038  -4.309  22.894  0.00  0.00    -0.389 OA
ATOM     17  H   UNL     1       3.975  -3.937  23.795  0.00  0.00    +0.210 HD
ENDBRANCH  12  16
ENDBRANCH   1  14
TORSDOF 2
ENDMDL
MODEL 2
REMARK VINA RESULT:      -5.6      5.804      7.074
REMARK  Name = 
REMARK  3 active torsions:
REMARK  status: ('A' for Active; 'I' for Inactive)
REMARK    1  A    between atoms: C_1  and  C_2
REMARK    2  A    between atoms: C_5  and  N_11
REMARK    3  A    between atoms: C_8  and  O_10
REMARK                            x       y       z     vdW  Elec       q    Type
REMARK                         _______ _______ _______ _____ _____    ______ ____
ROOT
ATOM      1  N   UNL     1       9.994   0.428  22.696  0.00  0.00    -0.274 N 
ATOM      2  C   UNL     1      10.291   0.006  23.987  0.00  0.00    +0.331 A 
ATOM      3  O   UNL     1      10.724   0.715  24.889  0.00  0.00    -0.246 OA
ATOM      4  N   UNL     1      10.065  -1.326  24.245  0.00  0.00    -0.275 N 
ATOM      5  H   UNL     1      10.247  -1.638  25.185  0.00  0.00    +0.173 HD
ATOM      6  C   UNL     1       9.539  -2.242  23.382  0.00  0.00    +0.254 A 
ATOM      7  O   UNL     1       9.292  -3.399  23.701  0.00  0.00    -0.268 OA
ATOM      8  C   UNL     1       9.279  -1.754  22.024  0.00  0.00    +0.088 A 
ATOM      9  C   UNL     1       9.512  -0.470  21.750  0.00  0.00    +0.098 A 
ENDROOT
BRANCH   1  14
ATOM     10  C   UNL     1       6.984   3.636  22.188  0.00  0.00    +0.040 C 
ATOM     11  C   UNL     1       8.065   2.730  22.747  0.00  0.00    +0.146 C 
ATOM     12  C   UNL     1       9.040   3.447  23.684  0.00  0.00    +0.147 C 
ATOM     13  C   UNL     1      10.411   2.948  23.252  0.00  0.00    +0.088 C 
ATOM     14  C   UNL     1      10.119   1.829  22.257  0.00  0.00    +0.226 C 
ATOM     15  O   UNL     1       8.862   2.213  21.667  0.00  0.00    -0.351 OA
BRANCH  12  16
ATOM     16  O   UNL     1       8.731   3.176  25.044  0.00  0.00    -0.389 OA
ATOM     17  H   UNL     1       7.804   2.878  25.106  0.00  0.00    +0.210 HD
ENDBRANCH  12  16
ENDBRANCH   1  14
TORSDOF 2
ENDMDL
MODEL 3
REMARK VINA RESULT:      -5.4      4.937      6.377
REMARK  Name = 
REMARK  3 active torsions:
REMARK  status: ('A' for Active; 'I' for Inactive)
REMARK    1  A    between atoms: C_1  and  C_2
REMARK    2  A    between atoms: C_5  and  N_11
REMARK    3  A    between atoms: C_8  and  O_10
REMARK                            x       y       z     vdW  Elec       q    Type
REMARK                         _______ _______ _______ _____ _____    ______ ____
ROOT
ATOM      1  N   UNL     1       8.124  -0.473  23.191  0.00  0.00    -0.274 N 
ATOM      2  C   UNL     1       9.069  -1.041  22.346  0.00  0.00    +0.331 A 
ATOM      3  O   UNL     1       9.418  -0.594  21.259  0.00  0.00    -0.246 OA
ATOM      4  N   UNL     1       9.649  -2.204  22.798  0.00  0.00    -0.275 N 
ATOM      5  H   UNL     1      10.358  -2.610  22.209  0.00  0.00    +0.173 HD
ATOM      6  C   UNL     1       9.422  -2.811  23.998  0.00  0.00    +0.254 A 
ATOM      7  O   UNL     1      10.030  -3.806  24.372  0.00  0.00    -0.268 OA
ATOM      8  C   UNL     1       8.389  -2.191  24.834  0.00  0.00    +0.088 A 
ATOM      9  C   UNL     1       7.802  -1.074  24.403  0.00  0.00    +0.098 A 
ENDROOT
BRANCH   1  14
ATOM     10  C   UNL     1       8.920   3.671  24.537  0.00  0.00    +0.040 C 
ATOM     11  C   UNL     1       8.882   2.383  23.736  0.00  0.00    +0.146 C 
ATOM     12  C   UNL     1       8.897   2.604  22.222  0.00  0.00    +0.147 C 
ATOM     13  C   UNL     1       7.836   1.651  21.693  0.00  0.00    +0.088 C 
ATOM     14  C   UNL     1       7.444   0.802  22.898  0.00  0.00    +0.226 C 
ATOM     15  O   UNL     1       7.661   1.679  24.021  0.00  0.00    -0.351 OA
BRANCH  12  16
ATOM     16  O   UNL     1      10.193   2.376  21.687  0.00  0.00    -0.389 OA
ATOM     17  H   UNL     1      10.529   3.209  21.304  0.00  0.00    +0.210 HD
ENDBRANCH  12  16
ENDBRANCH   1  14
TORSDOF 2
ENDMDL
MODEL 4
REMARK VINA RESULT:      -5.4      2.257      3.404
REMARK  Name = 
REMARK  3 active torsions:
REMARK  status: ('A' for Active; 'I' for Inactive)
REMARK    1  A    between atoms: C_1  and  C_2
REMARK    2  A    between atoms: C_5  and  N_11
REMARK    3  A    between atoms: C_8  and  O_10
REMARK                            x       y       z     vdW  Elec       q    Type
REMARK                         _______ _______ _______ _____ _____    ______ ____
ROOT
ATOM      1  N   UNL     1       8.199  -3.974  24.698  0.00  0.00    -0.274 N 
ATOM      2  C   UNL     1       9.167  -4.754  25.318  0.00  0.00    +0.331 A 
ATOM      3  O   UNL     1      10.332  -4.875  24.952  0.00  0.00    -0.246 OA
ATOM      4  N   UNL     1       8.754  -5.436  26.439  0.00  0.00    -0.275 N 
ATOM      5  H   UNL     1       9.454  -5.982  26.916  0.00  0.00    +0.173 HD
ATOM      6  C   UNL     1       7.520  -5.378  27.015  0.00  0.00    +0.254 A 
ATOM      7  O   UNL     1       7.239  -5.953  28.060  0.00  0.00    -0.268 OA
ATOM      8  C   UNL     1       6.526  -4.570  26.301  0.00  0.00    +0.088 A 
ATOM      9  C   UNL     1       6.904  -3.918  25.200  0.00  0.00    +0.098 A 
ENDROOT
BRANCH   1  14
ATOM     10  C   UNL     1       6.878   0.115  23.624  0.00  0.00    +0.040 C 
ATOM     11  C   UNL     1       7.677  -1.069  24.137  0.00  0.00    +0.146 C 
ATOM     12  C   UNL     1       9.191  -0.882  24.020  0.00  0.00    +0.147 C 
ATOM     13  C   UNL     1       9.692  -2.210  23.474  0.00  0.00    +0.088 C 
ATOM     14  C   UNL     1       8.477  -3.130  23.521  0.00  0.00    +0.226 C 
ATOM     15  O   UNL     1       7.360  -2.234  23.356  0.00  0.00    -0.351 OA
BRANCH  12  16
ATOM     16  O   UNL     1       9.758  -0.524  25.272  0.00  0.00    -0.389 OA
ATOM     17  H   UNL     1      10.570  -0.005  25.116  0.00  0.00    +0.210 HD
ENDBRANCH  12  16
ENDBRANCH   1  14
TORSDOF 2
ENDMDL
MODEL 5
REMARK VINA RESULT:      -5.3      3.469      4.574
REMARK  Name = 
REMARK  3 active torsions:
REMARK  status: ('A' for Active; 'I' for Inactive)
REMARK    1  A    between atoms: C_1  and  C_2
REMARK    2  A    between atoms: C_5  and  N_11
REMARK    3  A    between atoms: C_8  and  O_10
REMARK                            x       y       z     vdW  Elec       q    Type
REMARK                         _______ _______ _______ _____ _____    ______ ____
ROOT
ATOM      1  N   UNL     1       7.933  -2.328  24.748  0.00  0.00    -0.274 N 
ATOM      2  C   UNL     1       7.650  -2.389  26.107  0.00  0.00    +0.331 A 
ATOM      3  O   UNL     1       7.409  -1.428  26.831  0.00  0.00    -0.246 OA
ATOM      4  N   UNL     1       7.643  -3.649  26.659  0.00  0.00    -0.275 N 
ATOM      5  H   UNL     1       7.409  -3.709  27.637  0.00  0.00    +0.173 HD
ATOM      6  C   UNL     1       7.836  -4.825  25.997  0.00  0.00    +0.254 A 
ATOM      7  O   UNL     1       7.740  -5.921  26.536  0.00  0.00    -0.268 OA
ATOM      8  C   UNL     1       8.167  -4.703  24.574  0.00  0.00    +0.088 A 
ATOM      9  C   UNL     1       8.198  -3.487  24.026  0.00  0.00    +0.098 A 
ENDROOT
BRANCH   1  14
ATOM     10  C   UNL     1      10.986   0.841  24.254  0.00  0.00    +0.040 C 
ATOM     11  C   UNL     1      10.115  -0.385  24.052  0.00  0.00    +0.146 C 
ATOM     12  C   UNL     1       9.859  -0.718  22.581  0.00  0.00    +0.147 C 
ATOM     13  C   UNL     1       8.371  -1.032  22.521  0.00  0.00    +0.088 C 
ATOM     14  C   UNL     1       7.926  -1.071  23.978  0.00  0.00    +0.226 C 
ATOM     15  O   UNL     1       8.822  -0.154  24.637  0.00  0.00    -0.351 OA
BRANCH  12  16
ATOM     16  O   UNL     1      10.691  -1.785  22.148  0.00  0.00    -0.389 OA
ATOM     17  H   UNL     1      10.147  -2.590  22.048  0.00  0.00    +0.210 HD
ENDBRANCH  12  16
ENDBRANCH   1  14
TORSDOF 2
ENDMDL
MODEL 6
REMARK VINA RESULT:      -5.3      5.148      6.744
REMARK  Name = 
REMARK  3 active torsions:
REMARK  status: ('A' for Active; 'I' for Inactive)
REMARK    1  A    between atoms: C_1  and  C_2
REMARK    2  A    between atoms: C_5  and  N_11
REMARK    3  A    between atoms: C_8  and  O_10
REMARK                            x       y       z     vdW  Elec       q    Type
REMARK                         _______ _______ _______ _____ _____    ______ ____
ROOT
ATOM      1  N   UNL     1      10.014  -0.224  22.789  0.00  0.00    -0.274 N 
ATOM      2  C   UNL     1       9.623   0.651  21.783  0.00  0.00    +0.331 A 
ATOM      3  O   UNL     1       9.071   0.334  20.734  0.00  0.00    -0.246 OA
ATOM      4  N   UNL     1       9.887   1.981  22.014  0.00  0.00    -0.275 N 
ATOM      5  H   UNL     1       9.581   2.629  21.305  0.00  0.00    +0.173 HD
ATOM      6  C   UNL     1      10.441   2.515  23.139  0.00  0.00    +0.254 A 
ATOM      7  O   UNL     1      10.579   3.720  23.312  0.00  0.00    -0.268 OA
ATOM      8  C   UNL     1      10.870   1.546  24.153  0.00  0.00    +0.088 A 
ATOM      9  C   UNL     1      10.639   0.250  23.937  0.00  0.00    +0.098 A 
ENDROOT
BRANCH   1  14
ATOM     10  C   UNL     1       8.502  -3.056  25.839  0.00  0.00    +0.040 C 
ATOM     11  C   UNL     1       8.602  -2.083  24.679  0.00  0.00    +0.146 C 
ATOM     12  C   UNL     1       7.598  -2.362  23.559  0.00  0.00    +0.147 C 
ATOM     13  C   UNL     1       8.414  -2.229  22.282  0.00  0.00    +0.088 C 
ATOM     14  C   UNL     1       9.759  -1.675  22.740  0.00  0.00    +0.226 C 
ATOM     15  O   UNL     1       9.904  -2.187  24.079  0.00  0.00    -0.351 OA
BRANCH  12  16
ATOM     16  O   UNL     1       6.493  -1.472  23.632  0.00  0.00    -0.389 OA
ATOM     17  H   UNL     1       6.783  -0.641  24.055  0.00  0.00    +0.210 HD
ENDBRANCH  12  16
ENDBRANCH   1  14
TORSDOF 2
ENDMDL
MODEL 7
REMARK VINA RESULT:      -5.3      4.756      5.545
REMARK  Name = 
REMARK  3 active torsions:
REMARK  status: ('A' for Active; 'I' for Inactive)
REMARK    1  A    between atoms: C_1  and  C_2
REMARK    2  A    between atoms: C_5  and  N_11
REMARK    3  A    between atoms: C_8  and  O_10
REMARK                            x       y       z     vdW  Elec       q    Type
REMARK                         _______ _______ _______ _____ _____    ______ ____
ROOT
ATOM      1  N   UNL     1       9.737  -1.052  24.474  0.00  0.00    -0.274 N 
ATOM      2  C   UNL     1       9.675  -2.360  24.008  0.00  0.00    +0.331 A 
ATOM      3  O   UNL     1      10.154  -2.768  22.955  0.00  0.00    -0.246 OA
ATOM      4  N   UNL     1       9.016  -3.251  24.822  0.00  0.00    -0.275 N 
ATOM      5  H   UNL     1       8.990  -4.209  24.510  0.00  0.00    +0.173 HD
ATOM      6  C   UNL     1       8.473  -2.986  26.044  0.00  0.00    +0.254 A 
ATOM      7  O   UNL     1       7.965  -3.846  26.754  0.00  0.00    -0.268 OA
ATOM      8  C   UNL     1       8.533  -1.585  26.472  0.00  0.00    +0.088 A 
ATOM      9  C   UNL     1       9.151  -0.702  25.685  0.00  0.00    +0.098 A 
ENDROOT
BRANCH   1  14
ATOM     10  C   UNL     1       8.298   2.200  21.836  0.00  0.00    +0.040 C 
ATOM     11  C   UNL     1       8.765   1.400  23.037  0.00  0.00    +0.146 C 
ATOM     12  C   UNL     1       9.534   2.233  24.065  0.00  0.00    +0.147 C 
ATOM     13  C   UNL     1      10.730   1.366  24.431  0.00  0.00    +0.088 C 
ATOM     14  C   UNL     1      10.452   0.024  23.764  0.00  0.00    +0.226 C 
ATOM     15  O   UNL     1       9.671   0.371  22.604  0.00  0.00    -0.351 OA
BRANCH  12  16
ATOM     16  O   UNL     1       8.707   2.569  25.170  0.00  0.00    -0.389 OA
ATOM     17  H   UNL     1       8.606   3.539  25.207  0.00  0.00    +0.210 HD
ENDBRANCH  12  16
ENDBRANCH   1  14
TORSDOF 2
ENDMDL
MODEL 8
REMARK VINA RESULT:      -5.2      2.333      3.940
REMARK  Name = 
REMARK  3 active torsions:
REMARK  status: ('A' for Active; 'I' for Inactive)
REMARK    1  A    between atoms: C_1  and  C_2
REMARK    2  A    between atoms: C_5  and  N_11
REMARK    3  A    between atoms: C_8  and  O_10
REMARK                            x       y       z     vdW  Elec       q    Type
REMARK                         _______ _______ _______ _____ _____    ______ ____
ROOT
ATOM      1  N   UNL     1       8.139  -3.713  23.309  0.00  0.00    -0.274 N 
ATOM      2  C   UNL     1       9.222  -3.411  24.125  0.00  0.00    +0.331 A 
ATOM      3  O   UNL     1       9.886  -4.222  24.764  0.00  0.00    -0.246 OA
ATOM      4  N   UNL     1       9.558  -2.079  24.199  0.00  0.00    -0.275 N 
ATOM      5  H   UNL     1      10.361  -1.850  24.763  0.00  0.00    +0.173 HD
ATOM      6  C   UNL     1       8.969  -1.055  23.520  0.00  0.00    +0.254 A 
ATOM      7  O   UNL     1       9.368   0.103  23.573  0.00  0.00    -0.268 OA
ATOM      8  C   UNL     1       7.809  -1.423  22.703  0.00  0.00    +0.088 A 
ATOM      9  C   UNL     1       7.456  -2.707  22.635  0.00  0.00    +0.098 A 
ENDROOT
BRANCH   1  14
ATOM     10  C   UNL     1       5.041  -6.175  25.297  0.00  0.00    +0.040 C 
ATOM     11  C   UNL     1       5.775  -5.251  24.343  0.00  0.00    +0.146 C 
ATOM     12  C   UNL     1       5.282  -5.348  22.898  0.00  0.00    +0.147 C 
ATOM     13  C   UNL     1       6.557  -5.385  22.069  0.00  0.00    +0.088 C 
ATOM     14  C   UNL     1       7.674  -5.091  23.065  0.00  0.00    +0.226 C 
ATOM     15  O   UNL     1       7.168  -5.606  24.312  0.00  0.00    -0.351 OA
BRANCH  12  16
ATOM     16  O   UNL     1       4.421  -4.264  22.581  0.00  0.00    -0.389 OA
ATOM     17  H   UNL     1       3.881  -4.046  23.365  0.00  0.00    +0.210 HD
ENDBRANCH  12  16
ENDBRANCH   1  14
TORSDOF 2
ENDMDL
MODEL 9
REMARK VINA RESULT:      -5.2      1.812      4.724
REMARK  Name = 
REMARK  3 active torsions:
REMARK  status: ('A' for Active; 'I' for Inactive)
REMARK    1  A    between atoms: C_1  and  C_2
REMARK    2  A    between atoms: C_5  and  N_11
REMARK    3  A    between atoms: C_8  and  O_10
REMARK                            x       y       z     vdW  Elec       q    Type
REMARK                         _______ _______ _______ _____ _____    ______ ____
ROOT
ATOM      1  N   UNL     1       7.116  -3.759  23.956  0.00  0.00    -0.274 N 
ATOM      2  C   UNL     1       7.824  -4.849  23.466  0.00  0.00    +0.331 A 
ATOM      3  O   UNL     1       8.775  -5.392  24.018  0.00  0.00    -0.246 OA
ATOM      4  N   UNL     1       7.394  -5.344  22.257  0.00  0.00    -0.275 N 
ATOM      5  H   UNL     1       7.879  -6.154  21.905  0.00  0.00    +0.173 HD
ATOM      6  C   UNL     1       6.326  -4.902  21.532  0.00  0.00    +0.254 A 
ATOM      7  O   UNL     1       5.950  -5.438  20.497  0.00  0.00    -0.268 OA
ATOM      8  C   UNL     1       5.638  -3.726  22.075  0.00  0.00    +0.088 A 
ATOM      9  C   UNL     1       6.054  -3.221  23.237  0.00  0.00    +0.098 A 
ENDROOT
BRANCH   1  14
ATOM     10  C   UNL     1       5.242  -4.275  27.935  0.00  0.00    +0.040 C 
ATOM     11  C   UNL     1       6.162  -4.389  26.734  0.00  0.00    +0.146 C 
ATOM     12  C   UNL     1       7.618  -4.676  27.103  0.00  0.00    +0.147 C 
ATOM     13  C   UNL     1       8.422  -3.733  26.220  0.00  0.00    +0.088 C 
ATOM     14  C   UNL     1       7.398  -3.135  25.262  0.00  0.00    +0.226 C 
ATOM     15  O   UNL     1       6.173  -3.141  26.020  0.00  0.00    -0.351 OA
BRANCH  12  16
ATOM     16  O   UNL     1       7.931  -6.049  26.914  0.00  0.00    -0.389 OA
ATOM     17  H   UNL     1       8.361  -6.159  26.045  0.00  0.00    +0.210 HD
ENDBRANCH  12  16
ENDBRANCH   1  14
TORSDOF 2
ENDMDL
