MODEL 1
REMARK VINA RESULT:      -6.0      0.000      0.000
REMARK  Name = 
REMARK  5 active torsions:
REMARK  status: ('A' for Active; 'I' for Inactive)
REMARK    1  A    between atoms: CA_2  and  N_3
REMARK    2  A    between atoms: CA_2  and  C_4
REMARK    3  A    between atoms: CA_2  and  C_15
REMARK    4  A    between atoms: C_4  and  C_5
REMARK    5  A    between atoms: C_15  and  O_16
REMARK                            x       y       z     vdW  Elec       q    Type
REMARK                         _______ _______ _______ _____ _____    ______ ____
ROOT
ATOM      1  C   UNL     1       8.845  -2.190  24.775  0.00  0.00    -0.038 A 
ATOM      2  C   UNL     1       9.091  -1.238  23.733  0.00  0.00    -0.015 A 
ATOM      3  C   UNL     1       9.430  -1.574  22.398  0.00  0.00    +0.009 A 
ATOM      4  C   UNL     1       9.653  -0.599  21.420  0.00  0.00    +0.001 A 
ATOM      5  C   UNL     1       9.551   0.746  21.744  0.00  0.00    +0.001 A 
ATOM      6  C   UNL     1       9.221   1.115  23.045  0.00  0.00    +0.008 A 
ATOM      7  C   UNL     1       8.995   0.148  24.037  0.00  0.00    -0.018 A 
ATOM      8  C   UNL     1       8.681   0.564  25.334  0.00  0.00    +0.008 A 
ATOM      9  C   UNL     1       8.484  -0.361  26.349  0.00  0.00    +0.001 A 
ATOM     10  C   UNL     1       8.584  -1.721  26.076  0.00  0.00    +0.004 A 
ENDROOT
BRANCH   1  11
ATOM     11  C   UNL     1       8.921  -3.692  24.521  0.00  0.00    +0.065 C 
BRANCH  11  12
ATOM     12  CA  UNL     1       9.202  -4.603  25.737  0.00  0.00    +0.165 C 
BRANCH  12  13
ATOM     13  N   UNL     1      10.282  -5.573  25.432  0.00  0.00    -0.318 NA
ATOM     14  H1  UNL     1      11.178  -5.244  25.791  0.00  0.00    +0.119 HD
ATOM     15  H2  UNL     1      10.097  -6.528  25.714  0.00  0.00    +0.119 HD
ENDBRANCH  12  13
BRANCH  12  16
ATOM     16  C   UNL     1       7.917  -5.324  26.189  0.00  0.00    +0.322 C 
ATOM     17  OXT UNL     1       6.910  -5.426  25.505  0.00  0.00    -0.249 OA
BRANCH  16  18
ATOM     18  O   UNL     1       7.988  -5.842  27.438  0.00  0.00    -0.480 OA
ATOM     19  H   UNL     1       8.904  -5.882  27.759  0.00  0.00    +0.295 HD
ENDBRANCH  16  18
ENDBRANCH  12  16
ENDBRANCH  11  12
ENDBRANCH   1  11
TORSDOF 5
ENDMDL
MODEL 2
REMARK VINA RESULT:      -5.8      3.917      5.700
REMARK  Name = 
REMARK  5 active torsions:
REMARK  status: ('A' for Active; 'I' for Inactive)
REMARK    1  A    between atoms: CA_2  and  N_3
REMARK    2  A    between atoms: CA_2  and  C_4
REMARK    3  A    between atoms: CA_2  and  C_15
REMARK    4  A    between atoms: C_4  and  C_5
REMARK    5  A    between atoms: C_15  and  O_16
REMARK                            x       y       z     vdW  Elec       q    Type
REMARK                         _______ _______ _______ _____ _____    ______ ____
ROOT
ATOM      1  C   UNL     1       8.300  -2.293  23.419  0.00  0.00    -0.038 A 
ATOM      2  C   UNL     1       7.539  -3.372  22.864  0.00  0.00    -0.015 A 
ATOM      3  C   UNL     1       6.583  -3.233  21.826  0.00  0.00    +0.009 A 
ATOM      4  C   UNL     1       5.872  -4.327  21.320  0.00  0.00    +0.001 A 
ATOM      5  C   UNL     1       6.088  -5.596  21.839  0.00  0.00    +0.001 A 
ATOM      6  C   UNL     1       7.018  -5.771  22.859  0.00  0.00    +0.008 A 
ATOM      7  C   UNL     1       7.738  -4.683  23.378  0.00  0.00    -0.018 A 
ATOM      8  C   UNL     1       8.652  -4.903  24.413  0.00  0.00    +0.008 A 
ATOM      9  C   UNL     1       9.357  -3.848  24.973  0.00  0.00    +0.001 A 
ATOM     10  C   UNL     1       9.169  -2.557  24.495  0.00  0.00    +0.004 A 
ENDROOT
BRANCH   1  11
ATOM     11  C   UNL     1       8.147  -0.862  22.913  0.00  0.00    +0.065 C 
BRANCH  11  12
ATOM     12  CA  UNL     1       9.141  -0.382  21.832  0.00  0.00    +0.165 C 
BRANCH  12  13
ATOM     13  N   UNL     1      10.068  -1.474  21.445  0.00  0.00    -0.318 NA
ATOM     14  H1  UNL     1       9.989  -2.262  22.087  0.00  0.00    +0.119 HD
ATOM     15  H2  UNL     1      10.002  -1.774  20.480  0.00  0.00    +0.119 HD
ENDBRANCH  12  13
BRANCH  12  16
ATOM     16  C   UNL     1       9.915   0.861  22.313  0.00  0.00    +0.322 C 
ATOM     17  OXT UNL     1      10.539   0.918  23.362  0.00  0.00    -0.249 OA
BRANCH  16  18
ATOM     18  O   UNL     1       9.841   1.916  21.467  0.00  0.00    -0.480 OA
ATOM     19  H   UNL     1       9.351   2.658  21.861  0.00  0.00    +0.295 HD
ENDBRANCH  16  18
ENDBRANCH  12  16
ENDBRANCH  11  12
ENDBRANCH   1  11
TORSDOF 5
ENDMDL
MODEL 3
REMARK VINA RESULT:      -5.8      1.857      2.036
REMARK  Name = 
REMARK  5 active torsions:
REMARK  status: ('A' for Active; 'I' for Inactive)
REMARK    1  A    between atoms: CA_2  and  N_3
REMARK    2  A    between atoms: CA_2  and  C_4
REMARK    3  A    between atoms: CA_2  and  C_15
REMARK    4  A    between atoms: C_4  and  C_5
REMARK    5  A    between atoms: C_15  and  O_16
REMARK                            x       y       z     vdW  Elec       q    Type
REMARK                         _______ _______ _______ _____ _____    ______ ____
ROOT
ATOM      1  C   UNL     1       7.833  -2.254  25.394  0.00  0.00    -0.038 A 
ATOM      2  C   UNL     1       8.512  -1.731  24.247  0.00  0.00    -0.015 A 
ATOM      3  C   UNL     1       9.809  -2.124  23.828  0.00  0.00    +0.009 A 
ATOM      4  C   UNL     1      10.420  -1.580  22.693  0.00  0.00    +0.001 A 
ATOM      5  C   UNL     1       9.758  -0.620  21.941  0.00  0.00    +0.001 A 
ATOM      6  C   UNL     1       8.485  -0.207  22.322  0.00  0.00    +0.008 A 
ATOM      7  C   UNL     1       7.859  -0.743  23.459  0.00  0.00    -0.018 A 
ATOM      8  C   UNL     1       6.585  -0.289  23.812  0.00  0.00    +0.008 A 
ATOM      9  C   UNL     1       5.950  -0.770  24.947  0.00  0.00    +0.001 A 
ATOM     10  C   UNL     1       6.574  -1.727  25.739  0.00  0.00    +0.004 A 
ENDROOT
BRANCH   1  11
ATOM     11  C   UNL     1       8.466  -3.321  26.281  0.00  0.00    +0.065 C 
BRANCH  11  12
ATOM     12  CA  UNL     1       8.086  -4.793  26.001  0.00  0.00    +0.165 C 
BRANCH  12  13
ATOM     13  N   UNL     1       8.123  -5.594  27.249  0.00  0.00    -0.318 NA
ATOM     14  H1  UNL     1       8.960  -5.384  27.792  0.00  0.00    +0.119 HD
ATOM     15  H2  UNL     1       7.288  -5.542  27.820  0.00  0.00    +0.119 HD
ENDBRANCH  12  13
BRANCH  12  16
ATOM     16  C   UNL     1       9.005  -5.400  24.923  0.00  0.00    +0.322 C 
ATOM     17  OXT UNL     1       8.667  -5.602  23.766  0.00  0.00    -0.249 OA
BRANCH  16  18
ATOM     18  O   UNL     1      10.247  -5.708  25.369  0.00  0.00    -0.480 OA
ATOM     19  H   UNL     1      10.551  -5.081  26.046  0.00  0.00    +0.295 HD
ENDBRANCH  16  18
ENDBRANCH  12  16
ENDBRANCH  11  12
ENDBRANCH   1  11
TORSDOF 5
ENDMDL
MODEL 4
REMARK VINA RESULT:      -5.6      4.282      5.765
REMARK  Name = 
REMARK  5 active torsions:
REMARK  status: ('A' for Active; 'I' for Inactive)
REMARK    1  A    between atoms: CA_2  and  N_3
REMARK    2  A    between atoms: CA_2  and  C_4
REMARK    3  A    between atoms: CA_2  and  C_15
REMARK    4  A    between atoms: C_4  and  C_5
REMARK    5  A    between atoms: C_15  and  O_16
REMARK                            x       y       z     vdW  Elec       q    Type
REMARK                         _______ _______ _______ _____ _____    ______ ____
ROOT
ATOM      1  C   UNL     1       9.278   2.456  23.784  0.00  0.00    -0.038 A 
ATOM      2  C   UNL     1      10.133   3.603  23.699  0.00  0.00    -0.015 A 
ATOM      3  C   UNL     1      11.509   3.559  23.361  0.00  0.00    +0.009 A 
ATOM      4  C   UNL     1      12.293   4.716  23.289  0.00  0.00    +0.001 A 
ATOM      5  C   UNL     1      11.729   5.955  23.558  0.00  0.00    +0.001 A 
ATOM      6  C   UNL     1      10.382   6.037  23.895  0.00  0.00    +0.008 A 
ATOM      7  C   UNL     1       9.582   4.886  23.972  0.00  0.00    -0.018 A 
ATOM      8  C   UNL     1       8.237   5.014  24.329  0.00  0.00    +0.008 A 
ATOM      9  C   UNL     1       7.424   3.896  24.449  0.00  0.00    +0.001 A 
ATOM     10  C   UNL     1       7.944   2.632  24.198  0.00  0.00    +0.004 A 
ENDROOT
BRANCH   1  11
ATOM     11  C   UNL     1       9.795   1.051  23.497  0.00  0.00    +0.065 C 
BRANCH  11  12
ATOM     12  CA  UNL     1       9.812   0.589  22.022  0.00  0.00    +0.165 C 
BRANCH  12  13
ATOM     13  N   UNL     1       8.967   1.473  21.183  0.00  0.00    -0.318 NA
ATOM     14  H1  UNL     1       9.261   2.446  21.268  0.00  0.00    +0.119 HD
ATOM     15  H2  UNL     1       8.881   1.195  20.212  0.00  0.00    +0.119 HD
ENDBRANCH  12  13
BRANCH  12  16
ATOM     16  C   UNL     1       9.369  -0.882  21.904  0.00  0.00    +0.322 C 
ATOM     17  OXT UNL     1       8.247  -1.285  22.166  0.00  0.00    -0.249 OA
BRANCH  16  18
ATOM     18  O   UNL     1      10.349  -1.719  21.484  0.00  0.00    -0.480 OA
ATOM     19  H   UNL     1      11.232  -1.366  21.685  0.00  0.00    +0.295 HD
ENDBRANCH  16  18
ENDBRANCH  12  16
ENDBRANCH  11  12
ENDBRANCH   1  11
TORSDOF 5
ENDMDL
MODEL 5
REMARK VINA RESULT:      -5.5      3.694      5.985
REMARK  Name = 
REMARK  5 active torsions:
REMARK  status: ('A' for Active; 'I' for Inactive)
REMARK    1  A    between atoms: CA_2  and  N_3
REMARK    2  A    between atoms: CA_2  and  C_4
REMARK    3  A    between atoms: CA_2  and  C_15
REMARK    4  A    between atoms: C_4  and  C_5
REMARK    5  A    between atoms: C_15  and  O_16
REMARK                            x       y       z     vdW  Elec       q    Type
REMARK                         _______ _______ _______ _____ _____    ______ ____
ROOT
ATOM      1  C   UNL     1       7.559  -2.225  23.507  0.00  0.00    -0.038 A 
ATOM      2  C   UNL     1       7.688  -3.218  24.531  0.00  0.00    -0.015 A 
ATOM      3  C   UNL     1       8.733  -3.259  25.488  0.00  0.00    +0.009 A 
ATOM      4  C   UNL     1       8.803  -4.253  26.471  0.00  0.00    +0.001 A 
ATOM      5  C   UNL     1       7.835  -5.244  26.525  0.00  0.00    +0.001 A 
ATOM      6  C   UNL     1       6.794  -5.239  25.602  0.00  0.00    +0.008 A 
ATOM      7  C   UNL     1       6.710  -4.249  24.610  0.00  0.00    -0.018 A 
ATOM      8  C   UNL     1       5.655  -4.290  23.694  0.00  0.00    +0.008 A 
ATOM      9  C   UNL     1       5.558  -3.349  22.679  0.00  0.00    +0.001 A 
ATOM     10  C   UNL     1       6.509  -2.341  22.576  0.00  0.00    +0.004 A 
ENDROOT
BRANCH   1  11
ATOM     11  C   UNL     1       8.563  -1.086  23.366  0.00  0.00    +0.065 C 
BRANCH  11  12
ATOM     12  CA  UNL     1       9.049  -0.742  21.940  0.00  0.00    +0.165 C 
BRANCH  12  13
ATOM     13  N   UNL     1      10.195  -1.599  21.551  0.00  0.00    -0.318 NA
ATOM     14  H1  UNL     1      10.910  -1.054  21.068  0.00  0.00    +0.119 HD
ATOM     15  H2  UNL     1      10.595  -2.152  22.300  0.00  0.00    +0.119 HD
ENDBRANCH  12  13
BRANCH  12  16
ATOM     16  C   UNL     1       9.409   0.753  21.831  0.00  0.00    +0.322 C 
ATOM     17  OXT UNL     1      10.225   1.317  22.543  0.00  0.00    -0.249 OA
BRANCH  16  18
ATOM     18  O   UNL     1       8.726   1.413  20.865  0.00  0.00    -0.480 OA
ATOM     19  H   UNL     1       7.885   1.767  21.198  0.00  0.00    +0.295 HD
ENDBRANCH  16  18
ENDBRANCH  12  16
ENDBRANCH  11  12
ENDBRANCH   1  11
TORSDOF 5
ENDMDL
MODEL 6
REMARK VINA RESULT:      -5.4      3.686      5.362
REMARK  Name = 
REMARK  5 active torsions:
REMARK  status: ('A' for Active; 'I' for Inactive)
REMARK    1  A    between atoms: CA_2  and  N_3
REMARK    2  A    between atoms: CA_2  and  C_4
REMARK    3  A    between atoms: CA_2  and  C_15
REMARK    4  A    between atoms: C_4  and  C_5
REMARK    5  A    between atoms: C_15  and  O_16
REMARK                            x       y       z     vdW  Elec       q    Type
REMARK                         _______ _______ _______ _____ _____    ______ ____
ROOT
ATOM      1  C   UNL     1       8.891   2.017  22.514  0.00  0.00    -0.038 A 
ATOM      2  C   UNL     1       9.257   3.322  22.976  0.00  0.00    -0.015 A 
ATOM      3  C   UNL     1      10.552   3.684  23.427  0.00  0.00    +0.009 A 
ATOM      4  C   UNL     1      10.851   4.980  23.862  0.00  0.00    +0.001 A 
ATOM      5  C   UNL     1       9.866   5.956  23.867  0.00  0.00    +0.001 A 
ATOM      6  C   UNL     1       8.583   5.638  23.433  0.00  0.00    +0.008 A 
ATOM      7  C   UNL     1       8.266   4.343  22.994  0.00  0.00    -0.018 A 
ATOM      8  C   UNL     1       6.960   4.064  22.581  0.00  0.00    +0.008 A 
ATOM      9  C   UNL     1       6.602   2.788  22.173  0.00  0.00    +0.001 A 
ATOM     10  C   UNL     1       7.551   1.772  22.158  0.00  0.00    +0.004 A 
ENDROOT
BRANCH   1  11
ATOM     11  C   UNL     1       9.901   0.876  22.457  0.00  0.00    +0.065 C 
BRANCH  11  12
ATOM     12  CA  UNL     1       9.749  -0.259  23.496  0.00  0.00    +0.165 C 
BRANCH  12  13
ATOM     13  N   UNL     1      10.556   0.023  24.707  0.00  0.00    -0.318 NA
ATOM     14  H1  UNL     1      11.259  -0.702  24.853  0.00  0.00    +0.119 HD
ATOM     15  H2  UNL     1      10.965   0.949  24.748  0.00  0.00    +0.119 HD
ENDBRANCH  12  13
BRANCH  12  16
ATOM     16  C   UNL     1      10.126  -1.619  22.878  0.00  0.00    +0.322 C 
ATOM     17  OXT UNL     1      10.312  -2.639  23.525  0.00  0.00    -0.249 OA
BRANCH  16  18
ATOM     18  O   UNL     1      10.247  -1.596  21.529  0.00  0.00    -0.480 OA
ATOM     19  H   UNL     1      10.460  -0.706  21.203  0.00  0.00    +0.295 HD
ENDBRANCH  16  18
ENDBRANCH  12  16
ENDBRANCH  11  12
ENDBRANCH   1  11
TORSDOF 5
ENDMDL
MODEL 7
REMARK VINA RESULT:      -5.4      3.675      5.385
REMARK  Name = 
REMARK  5 active torsions:
REMARK  status: ('A' for Active; 'I' for Inactive)
REMARK    1  A    between atoms: CA_2  and  N_3
REMARK    2  A    between atoms: CA_2  and  C_4
REMARK    3  A    between atoms: CA_2  and  C_15
REMARK    4  A    between atoms: C_4  and  C_5
REMARK    5  A    between atoms: C_15  and  O_16
REMARK                            x       y       z     vdW  Elec       q    Type
REMARK                         _______ _______ _______ _____ _____    ______ ____
ROOT
ATOM      1  C   UNL     1       8.485  -2.601  24.156  0.00  0.00    -0.038 A 
ATOM      2  C   UNL     1       7.678  -3.415  23.296  0.00  0.00    -0.015 A 
ATOM      3  C   UNL     1       6.801  -2.913  22.302  0.00  0.00    +0.009 A 
ATOM      4  C   UNL     1       6.040  -3.759  21.487  0.00  0.00    +0.001 A 
ATOM      5  C   UNL     1       6.125  -5.135  21.643  0.00  0.00    +0.001 A 
ATOM      6  C   UNL     1       6.975  -5.664  22.609  0.00  0.00    +0.008 A 
ATOM      7  C   UNL     1       7.744  -4.829  23.435  0.00  0.00    -0.018 A 
ATOM      8  C   UNL     1       8.573  -5.404  24.403  0.00  0.00    +0.008 A 
ATOM      9  C   UNL     1       9.322  -4.610  25.259  0.00  0.00    +0.001 A 
ATOM     10  C   UNL     1       9.264  -3.226  25.149  0.00  0.00    +0.004 A 
ENDROOT
BRANCH   1  11
ATOM     11  C   UNL     1       8.474  -1.079  24.059  0.00  0.00    +0.065 C 
BRANCH  11  12
ATOM     12  CA  UNL     1       9.745  -0.394  23.507  0.00  0.00    +0.165 C 
BRANCH  12  13
ATOM     13  N   UNL     1       9.890   0.974  24.061  0.00  0.00    -0.318 NA
ATOM     14  H1  UNL     1      10.850   1.304  23.968  0.00  0.00    +0.119 HD
ATOM     15  H2  UNL     1       9.228   1.655  23.708  0.00  0.00    +0.119 HD
ENDBRANCH  12  13
BRANCH  12  16
ATOM     16  C   UNL     1       9.729  -0.373  21.966  0.00  0.00    +0.322 C 
ATOM     17  OXT UNL     1       9.342   0.572  21.296  0.00  0.00    -0.249 OA
BRANCH  16  18
ATOM     18  O   UNL     1      10.179  -1.517  21.396  0.00  0.00    -0.480 OA
ATOM     19  H   UNL     1       9.550  -2.248  21.511  0.00  0.00    +0.295 HD
ENDBRANCH  16  18
ENDBRANCH  12  16
ENDBRANCH  11  12
ENDBRANCH   1  11
TORSDOF 5
ENDMDL
MODEL 8
REMARK VINA RESULT:      -5.4      2.457      2.874
REMARK  Name = 
REMARK  5 active torsions:
REMARK  status: ('A' for Active; 'I' for Inactive)
REMARK    1  A    between atoms: CA_2  and  N_3
REMARK    2  A    between atoms: CA_2  and  C_4
REMARK    3  A    between atoms: CA_2  and  C_15
REMARK    4  A    between atoms: C_4  and  C_5
REMARK    5  A    between atoms: C_15  and  O_16
REMARK                            x       y       z     vdW  Elec       q    Type
REMARK                         _______ _______ _______ _____ _____    ______ ____
ROOT
ATOM      1  C   UNL     1       8.433  -2.095  23.665  0.00  0.00    -0.038 A 
ATOM      2  C   UNL     1       9.027  -0.818  23.404  0.00  0.00    -0.015 A 
ATOM      3  C   UNL     1       9.299  -0.305  22.110  0.00  0.00    +0.009 A 
ATOM      4  C   UNL     1       9.876   0.955  21.918  0.00  0.00    +0.001 A 
ATOM      5  C   UNL     1      10.208   1.741  23.011  0.00  0.00    +0.001 A 
ATOM      6  C   UNL     1       9.957   1.271  24.296  0.00  0.00    +0.008 A 
ATOM      7  C   UNL     1       9.379   0.009  24.506  0.00  0.00    -0.018 A 
ATOM      8  C   UNL     1       9.158  -0.430  25.815  0.00  0.00    +0.008 A 
ATOM      9  C   UNL     1       8.620  -1.684  26.062  0.00  0.00    +0.001 A 
ATOM     10  C   UNL     1       8.280  -2.514  25.001  0.00  0.00    +0.004 A 
ENDROOT
BRANCH   1  11
ATOM     11  C   UNL     1       8.021  -3.032  22.534  0.00  0.00    +0.065 C 
BRANCH  11  12
ATOM     12  CA  UNL     1       7.166  -4.264  22.910  0.00  0.00    +0.165 C 
BRANCH  12  13
ATOM     13  N   UNL     1       7.962  -5.511  22.803  0.00  0.00    -0.318 NA
ATOM     14  H1  UNL     1       8.959  -5.316  22.893  0.00  0.00    +0.119 HD
ATOM     15  H2  UNL     1       7.675  -6.262  23.419  0.00  0.00    +0.119 HD
ENDBRANCH  12  13
BRANCH  12  16
ATOM     16  C   UNL     1       5.898  -4.336  22.039  0.00  0.00    +0.322 C 
ATOM     17  OXT UNL     1       4.908  -3.639  22.206  0.00  0.00    -0.249 OA
BRANCH  16  18
ATOM     18  O   UNL     1       5.961  -5.261  21.051  0.00  0.00    -0.480 OA
ATOM     19  H   UNL     1       5.125  -5.319  20.558  0.00  0.00    +0.295 HD
ENDBRANCH  16  18
ENDBRANCH  12  16
ENDBRANCH  11  12
ENDBRANCH   1  11
TORSDOF 5
ENDMDL
MODEL 9
REMARK VINA RESULT:      -5.3      1.559      2.606
REMARK  Name = 
REMARK  5 active torsions:
REMARK  status: ('A' for Active; 'I' for Inactive)
REMARK    1  A    between atoms: CA_2  and  N_3
REMARK    2  A    between atoms: CA_2  and  C_4
REMARK    3  A    between atoms: CA_2  and  C_15
REMARK    4  A    between atoms: C_4  and  C_5
REMARK    5  A    between atoms: C_15  and  O_16
REMARK                            x       y       z     vdW  Elec       q    Type
REMARK                         _______ _______ _______ _____ _____    ______ ____
ROOT
ATOM      1  C   UNL     1       8.863  -2.514  23.910  0.00  0.00    -0.038 A 
ATOM      2  C   UNL     1       7.875  -1.504  24.143  0.00  0.00    -0.015 A 
ATOM      3  C   UNL     1       6.611  -1.736  24.741  0.00  0.00    +0.009 A 
ATOM      4  C   UNL     1       5.687  -0.705  24.948  0.00  0.00    +0.001 A 
ATOM      5  C   UNL     1       5.992   0.590  24.557  0.00  0.00    +0.001 A 
ATOM      6  C   UNL     1       7.223   0.856  23.965  0.00  0.00    +0.008 A 
ATOM      7  C   UNL     1       8.160  -0.167  23.750  0.00  0.00    -0.018 A 
ATOM      8  C   UNL     1       9.378   0.143  23.138  0.00  0.00    +0.008 A 
ATOM      9  C   UNL     1      10.315  -0.847  22.878  0.00  0.00    +0.001 A 
ATOM     10  C   UNL     1      10.052  -2.162  23.243  0.00  0.00    +0.004 A 
ENDROOT
BRANCH   1  11
ATOM     11  C   UNL     1       8.632  -3.967  24.312  0.00  0.00    +0.065 C 
BRANCH  11  12
ATOM     12  CA  UNL     1       9.287  -4.452  25.625  0.00  0.00    +0.165 C 
BRANCH  12  13
ATOM     13  N   UNL     1      10.192  -5.600  25.371  0.00  0.00    -0.318 NA
ATOM     14  H1  UNL     1       9.739  -6.481  25.615  0.00  0.00    +0.119 HD
ATOM     15  H2  UNL     1      10.595  -5.635  24.443  0.00  0.00    +0.119 HD
ENDBRANCH  12  13
BRANCH  12  16
ATOM     16  C   UNL     1       8.214  -4.810  26.672  0.00  0.00    +0.322 C 
ATOM     17  OXT UNL     1       7.491  -3.993  27.222  0.00  0.00    -0.249 OA
BRANCH  16  18
ATOM     18  O   UNL     1       8.137  -6.134  26.949  0.00  0.00    -0.480 OA
ATOM     19  H   UNL     1       8.980  -6.480  27.286  0.00  0.00    +0.295 HD
ENDBRANCH  16  18
ENDBRANCH  12  16
ENDBRANCH  11  12
ENDBRANCH   1  11
TORSDOF 5
ENDMDL
