MODEL 1
REMARK VINA RESULT:      -5.9      0.000      0.000
REMARK  Name = 
REMARK  5 active torsions:
REMARK  status: ('A' for Active; 'I' for Inactive)
REMARK    1  A    between atoms: C_3  and  N_4
REMARK    2  A    between atoms: N_7  and  C_8
REMARK    3  A    between atoms: C_8  and  C_9
REMARK    4  A    between atoms: C_13  and  N_14
REMARK    5  A    between atoms: C_15  and  C_17
REMARK                            x       y       z     vdW  Elec       q    Type
REMARK                         _______ _______ _______ _____ _____    ______ ____
ROOT
ATOM      1 CL   UNL     1       8.961   2.511  24.860  0.00  0.00    -0.082 Cl
ATOM      2  C   UNL     1       8.877   1.276  23.638  0.00  0.00    +0.064 A 
ATOM      3  C   UNL     1       9.636   1.586  22.492  0.00  0.00    +0.022 A 
ATOM      4  C   UNL     1       9.818   0.653  21.485  0.00  0.00    +0.003 A 
ATOM      5  C   UNL     1       9.249  -0.600  21.624  0.00  0.00    +0.025 A 
ATOM      6  C   UNL     1       8.432  -0.903  22.730  0.00  0.00    +0.056 A 
ATOM      7  C   UNL     1       8.194   0.033  23.783  0.00  0.00    +0.070 A 
ENDROOT
BRANCH   7   8
ATOM      8  N   UNL     1       7.309  -0.294  24.826  0.00  0.00    -0.325 N 
ATOM      9  C   UNL     1       7.832  -0.796  26.119  0.00  0.00    +0.120 C 
ATOM     10  C   UNL     1       6.761  -1.721  26.756  0.00  0.00    +0.104 C 
ATOM     11  N   UNL     1       5.446  -1.077  26.995  0.00  0.00    -0.289 NA
ATOM     12  C   UNL     1       4.990  -0.464  25.724  0.00  0.00    +0.104 C 
ATOM     13  C   UNL     1       6.031   0.425  25.000  0.00  0.00    +0.120 C 
BRANCH  11  14
ATOM     14  C   UNL     1       5.486  -0.079  28.073  0.00  0.00    +0.173 C 
BRANCH  14  15
ATOM     15  C   UNL     1       4.547  -0.427  29.149  0.00  0.00    -0.090 C 
ATOM     16  C   UNL     1       3.784  -0.766  30.015  0.00  0.00    +0.005 C 
ENDBRANCH  14  15
ENDBRANCH  11  14
ENDBRANCH   7   8
BRANCH   6  17
ATOM     17  N   UNL     1       7.738  -2.133  22.684  0.00  0.00    -0.277 N 
ATOM     18  H   UNL     1       6.736  -2.084  22.549  0.00  0.00    +0.155 HD
ATOM     19  C   UNL     1       8.257  -3.315  23.191  0.00  0.00    +0.284 C 
ATOM     20  O   UNL     1       9.327  -3.393  23.791  0.00  0.00    -0.266 OA
BRANCH  19  21
ATOM     21  C   UNL     1       7.402  -4.467  23.002  0.00  0.00    +0.191 A 
ATOM     22  O   UNL     1       6.590  -4.884  24.022  0.00  0.00    -0.444 OA
ATOM     23  C   UNL     1       5.828  -5.899  23.534  0.00  0.00    +0.171 A 
ATOM     24 BR   UNL     1       4.490  -6.766  24.500  0.00  0.00    -0.008 Br
ATOM     25  C   UNL     1       6.169  -6.176  22.230  0.00  0.00    +0.058 A 
ATOM     26  C   UNL     1       7.193  -5.261  21.889  0.00  0.00    +0.056 A 
ENDBRANCH  19  21
ENDBRANCH   6  17
TORSDOF 5
ENDMDL
MODEL 2
REMARK VINA RESULT:      -5.8      3.888      5.486
REMARK  Name = 
REMARK  5 active torsions:
REMARK  status: ('A' for Active; 'I' for Inactive)
REMARK    1  A    between atoms: C_3  and  N_4
REMARK    2  A    between atoms: N_7  and  C_8
REMARK    3  A    between atoms: C_8  and  C_9
REMARK    4  A    between atoms: C_13  and  N_14
REMARK    5  A    between atoms: C_15  and  C_17
REMARK                            x       y       z     vdW  Elec       q    Type
REMARK                         _______ _______ _______ _____ _____    ______ ____
ROOT
ATOM      1 CL   UNL     1       8.944   7.102  24.486  0.00  0.00    -0.082 Cl
ATOM      2  C   UNL     1       9.870   5.743  23.917  0.00  0.00    +0.064 A 
ATOM      3  C   UNL     1      11.247   6.024  23.809  0.00  0.00    +0.022 A 
ATOM      4  C   UNL     1      12.158   5.021  23.527  0.00  0.00    +0.003 A 
ATOM      5  C   UNL     1      11.698   3.727  23.360  0.00  0.00    +0.025 A 
ATOM      6  C   UNL     1      10.320   3.441  23.398  0.00  0.00    +0.056 A 
ATOM      7  C   UNL     1       9.338   4.446  23.661  0.00  0.00    +0.070 A 
ENDROOT
BRANCH   7   8
ATOM      8  N   UNL     1       7.971   4.120  23.611  0.00  0.00    -0.325 N 
ATOM      9  C   UNL     1       7.145   4.177  24.841  0.00  0.00    +0.120 C 
ATOM     10  C   UNL     1       5.994   3.144  24.708  0.00  0.00    +0.104 C 
ATOM     11  N   UNL     1       5.110   3.344  23.533  0.00  0.00    -0.289 NA
ATOM     12  C   UNL     1       5.959   3.414  22.319  0.00  0.00    +0.104 C 
ATOM     13  C   UNL     1       7.165   4.384  22.402  0.00  0.00    +0.120 C 
BRANCH  11  14
ATOM     14  C   UNL     1       4.264   4.539  23.652  0.00  0.00    +0.173 C 
BRANCH  14  15
ATOM     15  C   UNL     1       3.280   4.599  22.562  0.00  0.00    -0.090 C 
ATOM     16  C   UNL     1       2.463   4.594  21.679  0.00  0.00    +0.005 C 
ENDBRANCH  14  15
ENDBRANCH  11  14
ENDBRANCH   7   8
BRANCH   6  17
ATOM     17  N   UNL     1       9.936   2.134  23.021  0.00  0.00    -0.277 N 
ATOM     18  H   UNL     1       9.176   2.058  22.356  0.00  0.00    +0.155 HD
ATOM     19  C   UNL     1      10.245   1.009  23.770  0.00  0.00    +0.284 C 
ATOM     20  O   UNL     1      10.810   1.044  24.861  0.00  0.00    -0.266 OA
BRANCH  19  21
ATOM     21  C   UNL     1       9.795  -0.235  23.182  0.00  0.00    +0.191 A 
ATOM     22  O   UNL     1       9.379  -1.257  23.992  0.00  0.00    -0.444 OA
ATOM     23  C   UNL     1       8.913  -2.243  23.180  0.00  0.00    +0.171 A 
ATOM     24 BR   UNL     1       8.146  -3.830  23.789  0.00  0.00    -0.008 Br
ATOM     25  C   UNL     1       9.068  -1.895  21.858  0.00  0.00    +0.058 A 
ATOM     26  C   UNL     1       9.648  -0.604  21.858  0.00  0.00    +0.056 A 
ENDBRANCH  19  21
ENDBRANCH   6  17
TORSDOF 5
ENDMDL
MODEL 3
REMARK VINA RESULT:      -5.8      2.866      5.046
REMARK  Name = 
REMARK  5 active torsions:
REMARK  status: ('A' for Active; 'I' for Inactive)
REMARK    1  A    between atoms: C_3  and  N_4
REMARK    2  A    between atoms: N_7  and  C_8
REMARK    3  A    between atoms: C_8  and  C_9
REMARK    4  A    between atoms: C_13  and  N_14
REMARK    5  A    between atoms: C_15  and  C_17
REMARK                            x       y       z     vdW  Elec       q    Type
REMARK                         _______ _______ _______ _____ _____    ______ ____
ROOT
ATOM      1 CL   UNL     1       9.538  -1.249  21.456  0.00  0.00    -0.082 Cl
ATOM      2  C   UNL     1       9.276  -1.214  23.176  0.00  0.00    +0.064 A 
ATOM      3  C   UNL     1      10.177  -0.365  23.850  0.00  0.00    +0.022 A 
ATOM      4  C   UNL     1      10.021  -0.087  25.197  0.00  0.00    +0.003 A 
ATOM      5  C   UNL     1       8.954  -0.648  25.876  0.00  0.00    +0.025 A 
ATOM      6  C   UNL     1       8.084  -1.551  25.234  0.00  0.00    +0.056 A 
ATOM      7  C   UNL     1       8.219  -1.889  23.852  0.00  0.00    +0.070 A 
ENDROOT
BRANCH   7   8
ATOM      8  N   UNL     1       7.370  -2.854  23.280  0.00  0.00    -0.325 N 
ATOM      9  C   UNL     1       7.822  -4.259  23.147  0.00  0.00    +0.120 C 
ATOM     10  C   UNL     1       7.107  -4.891  21.923  0.00  0.00    +0.104 C 
ATOM     11  N   UNL     1       5.625  -4.873  21.991  0.00  0.00    -0.289 NA
ATOM     12  C   UNL     1       5.187  -3.481  22.254  0.00  0.00    +0.104 C 
ATOM     13  C   UNL     1       5.903  -2.766  23.427  0.00  0.00    +0.120 C 
BRANCH  11  14
ATOM     14  C   UNL     1       5.089  -5.792  23.005  0.00  0.00    +0.173 C 
BRANCH  14  15
ATOM     15  C   UNL     1       3.629  -5.661  23.116  0.00  0.00    -0.090 C 
ATOM     16  C   UNL     1       2.439  -5.562  23.264  0.00  0.00    +0.005 C 
ENDBRANCH  14  15
ENDBRANCH  11  14
ENDBRANCH   7   8
BRANCH   6  17
ATOM     17  N   UNL     1       7.151  -2.221  26.056  0.00  0.00    -0.277 N 
ATOM     18  H   UNL     1       6.389  -1.665  26.424  0.00  0.00    +0.155 HD
ATOM     19  C   UNL     1       7.424  -3.426  26.686  0.00  0.00    +0.284 C 
ATOM     20  O   UNL     1       8.518  -3.985  26.652  0.00  0.00    -0.266 OA
BRANCH  19  21
ATOM     21  C   UNL     1       6.316  -3.962  27.446  0.00  0.00    +0.191 A 
ATOM     22  O   UNL     1       6.544  -4.921  28.395  0.00  0.00    -0.444 OA
ATOM     23  C   UNL     1       5.359  -5.152  29.020  0.00  0.00    +0.171 A 
ATOM     24 BR   UNL     1       5.140  -6.318  30.459  0.00  0.00    -0.008 Br
ATOM     25  C   UNL     1       4.359  -4.393  28.458  0.00  0.00    +0.058 A 
ATOM     26  C   UNL     1       4.973  -3.633  27.434  0.00  0.00    +0.056 A 
ENDBRANCH  19  21
ENDBRANCH   6  17
TORSDOF 5
ENDMDL
MODEL 4
REMARK VINA RESULT:      -5.7      3.192      5.379
REMARK  Name = 
REMARK  5 active torsions:
REMARK  status: ('A' for Active; 'I' for Inactive)
REMARK    1  A    between atoms: C_3  and  N_4
REMARK    2  A    between atoms: N_7  and  C_8
REMARK    3  A    between atoms: C_8  and  C_9
REMARK    4  A    between atoms: C_13  and  N_14
REMARK    5  A    between atoms: C_15  and  C_17
REMARK                            x       y       z     vdW  Elec       q    Type
REMARK                         _______ _______ _______ _____ _____    ______ ____
ROOT
ATOM      1 CL   UNL     1       4.764  -6.179  25.081  0.00  0.00    -0.082 Cl
ATOM      2  C   UNL     1       5.763  -5.511  23.822  0.00  0.00    +0.064 A 
ATOM      3  C   UNL     1       6.045  -6.437  22.798  0.00  0.00    +0.022 A 
ATOM      4  C   UNL     1       6.690  -6.041  21.638  0.00  0.00    +0.003 A 
ATOM      5  C   UNL     1       7.046  -4.712  21.492  0.00  0.00    +0.025 A 
ATOM      6  C   UNL     1       6.831  -3.789  22.533  0.00  0.00    +0.056 A 
ATOM      7  C   UNL     1       6.193  -4.154  23.758  0.00  0.00    +0.070 A 
ENDROOT
BRANCH   7   8
ATOM      8  N   UNL     1       6.072  -3.211  24.794  0.00  0.00    -0.325 N 
ATOM      9  C   UNL     1       4.800  -2.476  24.990  0.00  0.00    +0.120 C 
ATOM     10  C   UNL     1       5.122  -1.094  25.619  0.00  0.00    +0.104 C 
ATOM     11  N   UNL     1       5.840  -1.152  26.916  0.00  0.00    -0.289 NA
ATOM     12  C   UNL     1       7.046  -1.998  26.742  0.00  0.00    +0.104 C 
ATOM     13  C   UNL     1       6.809  -3.370  26.065  0.00  0.00    +0.120 C 
BRANCH  11  14
ATOM     14  C   UNL     1       5.001  -1.656  28.011  0.00  0.00    +0.173 C 
BRANCH  14  15
ATOM     15  C   UNL     1       4.125  -0.597  28.534  0.00  0.00    -0.090 C 
ATOM     16  C   UNL     1       3.367   0.230  28.968  0.00  0.00    +0.005 C 
ENDBRANCH  14  15
ENDBRANCH  11  14
ENDBRANCH   7   8
BRANCH   6  17
ATOM     17  N   UNL     1       7.406  -2.509  22.369  0.00  0.00    -0.277 N 
ATOM     18  H   UNL     1       7.016  -1.927  21.637  0.00  0.00    +0.155 HD
ATOM     19  C   UNL     1       8.665  -2.176  22.847  0.00  0.00    +0.284 C 
ATOM     20  O   UNL     1       9.426  -2.975  23.388  0.00  0.00    -0.266 OA
BRANCH  19  21
ATOM     21  C   UNL     1       9.044  -0.800  22.609  0.00  0.00    +0.191 A 
ATOM     22  O   UNL     1       8.852   0.136  23.589  0.00  0.00    -0.444 OA
ATOM     23  C   UNL     1       9.395   1.299  23.140  0.00  0.00    +0.171 A 
ATOM     24 BR   UNL     1       9.476   2.873  24.136  0.00  0.00    -0.008 Br
ATOM     25  C   UNL     1       9.891   1.142  21.867  0.00  0.00    +0.058 A 
ATOM     26  C   UNL     1       9.655  -0.210  21.518  0.00  0.00    +0.056 A 
ENDBRANCH  19  21
ENDBRANCH   6  17
TORSDOF 5
ENDMDL
MODEL 5
REMARK VINA RESULT:      -5.7      3.409      6.800
REMARK  Name = 
REMARK  5 active torsions:
REMARK  status: ('A' for Active; 'I' for Inactive)
REMARK    1  A    between atoms: C_3  and  N_4
REMARK    2  A    between atoms: N_7  and  C_8
REMARK    3  A    between atoms: C_8  and  C_9
REMARK    4  A    between atoms: C_13  and  N_14
REMARK    5  A    between atoms: C_15  and  C_17
REMARK                            x       y       z     vdW  Elec       q    Type
REMARK                         _______ _______ _______ _____ _____    ______ ____
ROOT
ATOM      1 CL   UNL     1       7.507  -6.124  22.033  0.00  0.00    -0.082 Cl
ATOM      2  C   UNL     1       6.237  -5.167  22.739  0.00  0.00    +0.064 A 
ATOM      3  C   UNL     1       4.990  -5.824  22.735  0.00  0.00    +0.022 A 
ATOM      4  C   UNL     1       3.899  -5.285  23.397  0.00  0.00    +0.003 A 
ATOM      5  C   UNL     1       4.054  -4.089  24.076  0.00  0.00    +0.025 A 
ATOM      6  C   UNL     1       5.274  -3.388  24.033  0.00  0.00    +0.056 A 
ATOM      7  C   UNL     1       6.420  -3.890  23.343  0.00  0.00    +0.070 A 
ENDROOT
BRANCH   7   8
ATOM      8  N   UNL     1       7.589  -3.112  23.268  0.00  0.00    -0.325 N 
ATOM      9  C   UNL     1       7.626  -1.902  22.412  0.00  0.00    +0.120 C 
ATOM     10  C   UNL     1       9.087  -1.681  21.938  0.00  0.00    +0.104 C 
ATOM     11  N   UNL     1      10.079  -1.520  23.030  0.00  0.00    -0.289 NA
ATOM     12  C   UNL     1       9.946  -2.673  23.953  0.00  0.00    +0.104 C 
ATOM     13  C   UNL     1       8.503  -2.990  24.422  0.00  0.00    +0.120 C 
BRANCH  11  14
ATOM     14  C   UNL     1       9.932  -0.250  23.753  0.00  0.00    +0.173 C 
BRANCH  14  15
ATOM     15  C   UNL     1      10.013   0.894  22.832  0.00  0.00    -0.090 C 
ATOM     16  C   UNL     1      10.107   1.858  22.120  0.00  0.00    +0.005 C 
ENDBRANCH  14  15
ENDBRANCH  11  14
ENDBRANCH   7   8
BRANCH   6  17
ATOM     17  N   UNL     1       5.273  -2.088  24.587  0.00  0.00    -0.277 N 
ATOM     18  H   UNL     1       5.421  -1.320  23.944  0.00  0.00    +0.155 HD
ATOM     19  C   UNL     1       5.480  -1.839  25.936  0.00  0.00    +0.284 C 
ATOM     20  O   UNL     1       5.755  -2.709  26.760  0.00  0.00    -0.266 OA
BRANCH  19  21
ATOM     21  C   UNL     1       5.396  -0.441  26.300  0.00  0.00    +0.191 A 
ATOM     22  O   UNL     1       4.879   0.462  25.412  0.00  0.00    -0.444 OA
ATOM     23  C   UNL     1       4.817   1.660  26.052  0.00  0.00    +0.171 A 
ATOM     24 BR   UNL     1       4.105   3.214  25.308  0.00  0.00    -0.008 Br
ATOM     25  C   UNL     1       5.332   1.555  27.324  0.00  0.00    +0.058 A 
ATOM     26  C   UNL     1       5.716   0.202  27.482  0.00  0.00    +0.056 A 
ENDBRANCH  19  21
ENDBRANCH   6  17
TORSDOF 5
ENDMDL
MODEL 6
REMARK VINA RESULT:      -5.6      3.691      6.922
REMARK  Name = 
REMARK  5 active torsions:
REMARK  status: ('A' for Active; 'I' for Inactive)
REMARK    1  A    between atoms: C_3  and  N_4
REMARK    2  A    between atoms: N_7  and  C_8
REMARK    3  A    between atoms: C_8  and  C_9
REMARK    4  A    between atoms: C_13  and  N_14
REMARK    5  A    between atoms: C_15  and  C_17
REMARK                            x       y       z     vdW  Elec       q    Type
REMARK                         _______ _______ _______ _____ _____    ______ ____
ROOT
ATOM      1 CL   UNL     1       4.120  -3.478  26.679  0.00  0.00    -0.082 Cl
ATOM      2  C   UNL     1       4.533  -1.814  26.382  0.00  0.00    +0.064 A 
ATOM      3  C   UNL     1       3.758  -0.913  27.140  0.00  0.00    +0.022 A 
ATOM      4  C   UNL     1       4.051   0.440  27.156  0.00  0.00    +0.003 A 
ATOM      5  C   UNL     1       5.131   0.898  26.421  0.00  0.00    +0.025 A 
ATOM      6  C   UNL     1       5.874   0.022  25.607  0.00  0.00    +0.056 A 
ATOM      7  C   UNL     1       5.594  -1.378  25.538  0.00  0.00    +0.070 A 
ENDROOT
BRANCH   7   8
ATOM      8  N   UNL     1       6.318  -2.194  24.650  0.00  0.00    -0.325 N 
ATOM      9  C   UNL     1       7.363  -3.112  25.164  0.00  0.00    +0.120 C 
ATOM     10  C   UNL     1       8.434  -3.306  24.057  0.00  0.00    +0.104 C 
ATOM     11  N   UNL     1       7.915  -3.848  22.777  0.00  0.00    -0.289 NA
ATOM     12  C   UNL     1       6.783  -2.996  22.336  0.00  0.00    +0.104 C 
ATOM     13  C   UNL     1       5.704  -2.710  23.410  0.00  0.00    +0.120 C 
BRANCH  11  14
ATOM     14  C   UNL     1       7.503  -5.255  22.877  0.00  0.00    +0.173 C 
BRANCH  14  15
ATOM     15  C   UNL     1       6.788  -5.683  21.667  0.00  0.00    -0.090 C 
ATOM     16  C   UNL     1       6.167  -6.063  20.710  0.00  0.00    +0.005 C 
ENDBRANCH  14  15
ENDBRANCH  11  14
ENDBRANCH   7   8
BRANCH   6  17
ATOM     17  N   UNL     1       6.825   0.615  24.747  0.00  0.00    -0.277 N 
ATOM     18  H   UNL     1       6.537   0.768  23.788  0.00  0.00    +0.155 HD
ATOM     19  C   UNL     1       8.186   0.624  25.014  0.00  0.00    +0.284 C 
ATOM     20  O   UNL     1       8.700   0.058  25.976  0.00  0.00    -0.266 OA
BRANCH  19  21
ATOM     21  C   UNL     1       8.979   1.322  24.024  0.00  0.00    +0.191 A 
ATOM     22  O   UNL     1       9.689   2.434  24.385  0.00  0.00    -0.444 OA
ATOM     23  C   UNL     1      10.419   2.810  23.301  0.00  0.00    +0.171 A 
ATOM     24 BR   UNL     1      11.629   4.227  23.289  0.00  0.00    -0.008 Br
ATOM     25  C   UNL     1      10.154   1.986  22.231  0.00  0.00    +0.058 A 
ATOM     26  C   UNL     1       9.215   1.032  22.693  0.00  0.00    +0.056 A 
ENDBRANCH  19  21
ENDBRANCH   6  17
TORSDOF 5
ENDMDL
MODEL 7
REMARK VINA RESULT:      -5.6      3.900      5.903
REMARK  Name = 
REMARK  5 active torsions:
REMARK  status: ('A' for Active; 'I' for Inactive)
REMARK    1  A    between atoms: C_3  and  N_4
REMARK    2  A    between atoms: N_7  and  C_8
REMARK    3  A    between atoms: C_8  and  C_9
REMARK    4  A    between atoms: C_13  and  N_14
REMARK    5  A    between atoms: C_15  and  C_17
REMARK                            x       y       z     vdW  Elec       q    Type
REMARK                         _______ _______ _______ _____ _____    ______ ____
ROOT
ATOM      1 CL   UNL     1       4.150  -7.093  23.935  0.00  0.00    -0.082 Cl
ATOM      2  C   UNL     1       5.321  -6.040  23.197  0.00  0.00    +0.064 A 
ATOM      3  C   UNL     1       5.640  -6.416  21.876  0.00  0.00    +0.022 A 
ATOM      4  C   UNL     1       6.430  -5.607  21.077  0.00  0.00    +0.003 A 
ATOM      5  C   UNL     1       6.897  -4.410  21.591  0.00  0.00    +0.025 A 
ATOM      6  C   UNL     1       6.643  -4.052  22.929  0.00  0.00    +0.056 A 
ATOM      7  C   UNL     1       5.855  -4.865  23.801  0.00  0.00    +0.070 A 
ENDROOT
BRANCH   7   8
ATOM      8  N   UNL     1       5.697  -4.497  25.149  0.00  0.00    -0.325 N 
ATOM      9  C   UNL     1       4.450  -3.833  25.600  0.00  0.00    +0.120 C 
ATOM     10  C   UNL     1       4.789  -2.927  26.814  0.00  0.00    +0.104 C 
ATOM     11  N   UNL     1       5.394  -3.635  27.970  0.00  0.00    -0.289 NA
ATOM     12  C   UNL     1       6.566  -4.402  27.484  0.00  0.00    +0.104 C 
ATOM     13  C   UNL     1       6.316  -5.284  26.235  0.00  0.00    +0.120 C 
BRANCH  11  14
ATOM     14  C   UNL     1       4.442  -4.514  28.662  0.00  0.00    +0.173 C 
BRANCH  14  15
ATOM     15  C   UNL     1       5.119  -5.321  29.688  0.00  0.00    -0.090 C 
ATOM     16  C   UNL     1       5.696  -6.012  30.485  0.00  0.00    +0.005 C 
ENDBRANCH  14  15
ENDBRANCH  11  14
ENDBRANCH   7   8
BRANCH   6  17
ATOM     17  N   UNL     1       7.325  -2.915  23.418  0.00  0.00    -0.277 N 
ATOM     18  H   UNL     1       7.027  -2.017  23.056  0.00  0.00    +0.155 HD
ATOM     19  C   UNL     1       8.574  -2.979  24.016  0.00  0.00    +0.284 C 
ATOM     20  O   UNL     1       9.237  -4.010  24.111  0.00  0.00    -0.266 OA
BRANCH  19  21
ATOM     21  C   UNL     1       9.073  -1.704  24.484  0.00  0.00    +0.191 A 
ATOM     22  O   UNL     1       9.611  -0.817  23.592  0.00  0.00    -0.444 OA
ATOM     23  C   UNL     1       9.888   0.322  24.281  0.00  0.00    +0.171 A 
ATOM     24 BR   UNL     1      10.560   1.880  23.509  0.00  0.00    -0.008 Br
ATOM     25  C   UNL     1       9.584   0.167  25.614  0.00  0.00    +0.058 A 
ATOM     26  C   UNL     1       9.069  -1.145  25.749  0.00  0.00    +0.056 A 
ENDBRANCH  19  21
ENDBRANCH   6  17
TORSDOF 5
ENDMDL
MODEL 8
REMARK VINA RESULT:      -5.5      3.424      6.908
REMARK  Name = 
REMARK  5 active torsions:
REMARK  status: ('A' for Active; 'I' for Inactive)
REMARK    1  A    between atoms: C_3  and  N_4
REMARK    2  A    between atoms: N_7  and  C_8
REMARK    3  A    between atoms: C_8  and  C_9
REMARK    4  A    between atoms: C_13  and  N_14
REMARK    5  A    between atoms: C_15  and  C_17
REMARK                            x       y       z     vdW  Elec       q    Type
REMARK                         _______ _______ _______ _____ _____    ______ ____
ROOT
ATOM      1 CL   UNL     1       7.160  -6.009  21.859  0.00  0.00    -0.082 Cl
ATOM      2  C   UNL     1       6.325  -5.403  23.261  0.00  0.00    +0.064 A 
ATOM      3  C   UNL     1       5.204  -6.184  23.610  0.00  0.00    +0.022 A 
ATOM      4  C   UNL     1       4.513  -5.949  24.786  0.00  0.00    +0.003 A 
ATOM      5  C   UNL     1       4.946  -4.939  25.626  0.00  0.00    +0.025 A 
ATOM      6  C   UNL     1       6.022  -4.108  25.261  0.00  0.00    +0.056 A 
ATOM      7  C   UNL     1       6.751  -4.294  24.046  0.00  0.00    +0.070 A 
ENDROOT
BRANCH   7   8
ATOM      8  N   UNL     1       7.768  -3.387  23.693  0.00  0.00    -0.325 N 
ATOM      9  C   UNL     1       7.451  -2.191  22.877  0.00  0.00    +0.120 C 
ATOM     10  C   UNL     1       8.710  -1.809  22.055  0.00  0.00    +0.104 C 
ATOM     11  N   UNL     1       9.920  -1.524  22.866  0.00  0.00    -0.289 NA
ATOM     12  C   UNL     1      10.155  -2.673  23.773  0.00  0.00    +0.104 C 
ATOM     13  C   UNL     1       8.922  -3.148  24.583  0.00  0.00    +0.120 C 
BRANCH  11  14
ATOM     14  C   UNL     1       9.815  -0.270  23.625  0.00  0.00    +0.173 C 
BRANCH  14  15
ATOM     15  C   UNL     1       9.922   0.896  22.736  0.00  0.00    -0.090 C 
ATOM     16  C   UNL     1      10.024   1.814  21.967  0.00  0.00    +0.005 C 
ENDBRANCH  14  15
ENDBRANCH  11  14
ENDBRANCH   7   8
BRANCH   6  17
ATOM     17  N   UNL     1       6.261  -2.986  26.086  0.00  0.00    -0.277 N 
ATOM     18  H   UNL     1       6.760  -3.157  26.950  0.00  0.00    +0.155 HD
ATOM     19  C   UNL     1       5.540  -1.806  25.987  0.00  0.00    +0.284 C 
ATOM     20  O   UNL     1       4.584  -1.647  25.232  0.00  0.00    -0.266 OA
BRANCH  19  21
ATOM     21  C   UNL     1       5.975  -0.768  26.897  0.00  0.00    +0.191 A 
ATOM     22  O   UNL     1       5.097  -0.257  27.813  0.00  0.00    -0.444 OA
ATOM     23  C   UNL     1       5.797   0.606  28.597  0.00  0.00    +0.171 A 
ATOM     24 BR   UNL     1       5.083   1.510  30.062  0.00  0.00    -0.008 Br
ATOM     25  C   UNL     1       7.102   0.697  28.171  0.00  0.00    +0.058 A 
ATOM     26  C   UNL     1       7.216  -0.180  27.065  0.00  0.00    +0.056 A 
ENDBRANCH  19  21
ENDBRANCH   6  17
TORSDOF 5
ENDMDL
MODEL 9
REMARK VINA RESULT:      -5.5      2.717      5.701
REMARK  Name = 
REMARK  5 active torsions:
REMARK  status: ('A' for Active; 'I' for Inactive)
REMARK    1  A    between atoms: C_3  and  N_4
REMARK    2  A    between atoms: N_7  and  C_8
REMARK    3  A    between atoms: C_8  and  C_9
REMARK    4  A    between atoms: C_13  and  N_14
REMARK    5  A    between atoms: C_15  and  C_17
REMARK                            x       y       z     vdW  Elec       q    Type
REMARK                         _______ _______ _______ _____ _____    ______ ____
ROOT
ATOM      1 CL   UNL     1      10.209  -0.618  21.994  0.00  0.00    -0.082 Cl
ATOM      2  C   UNL     1       9.472   0.229  23.322  0.00  0.00    +0.064 A 
ATOM      3  C   UNL     1       9.983   1.532  23.492  0.00  0.00    +0.022 A 
ATOM      4  C   UNL     1       9.406   2.410  24.394  0.00  0.00    +0.003 A 
ATOM      5  C   UNL     1       8.308   1.993  25.125  0.00  0.00    +0.025 A 
ATOM      6  C   UNL     1       7.827   0.674  25.015  0.00  0.00    +0.056 A 
ATOM      7  C   UNL     1       8.403  -0.277  24.117  0.00  0.00    +0.070 A 
ENDROOT
BRANCH   7   8
ATOM      8  N   UNL     1       7.933  -1.603  24.104  0.00  0.00    -0.325 N 
ATOM      9  C   UNL     1       7.153  -2.105  22.948  0.00  0.00    +0.120 C 
ATOM     10  C   UNL     1       6.191  -3.215  23.450  0.00  0.00    +0.104 C 
ATOM     11  N   UNL     1       6.858  -4.365  24.109  0.00  0.00    -0.289 NA
ATOM     12  C   UNL     1       7.738  -3.842  25.182  0.00  0.00    +0.104 C 
ATOM     13  C   UNL     1       8.685  -2.688  24.766  0.00  0.00    +0.120 C 
BRANCH  11  14
ATOM     14  C   UNL     1       7.619  -5.200  23.169  0.00  0.00    +0.173 C 
BRANCH  14  15
ATOM     15  C   UNL     1       6.792  -5.583  22.015  0.00  0.00    -0.090 C 
ATOM     16  C   UNL     1       6.155  -5.874  21.038  0.00  0.00    +0.005 C 
ENDBRANCH  14  15
ENDBRANCH  11  14
ENDBRANCH   7   8
BRANCH   6  17
ATOM     17  N   UNL     1       6.833   0.286  25.942  0.00  0.00    -0.277 N 
ATOM     18  H   UNL     1       7.087  -0.437  26.604  0.00  0.00    +0.155 HD
ATOM     19  C   UNL     1       5.481   0.528  25.748  0.00  0.00    +0.284 C 
ATOM     20  O   UNL     1       5.013   1.030  24.729  0.00  0.00    -0.266 OA
BRANCH  19  21
ATOM     21  C   UNL     1       4.639   0.087  26.839  0.00  0.00    +0.191 A 
ATOM     22  O   UNL     1       3.453  -0.541  26.570  0.00  0.00    -0.444 OA
ATOM     23  C   UNL     1       2.934  -0.939  27.762  0.00  0.00    +0.171 A 
ATOM     24 BR   UNL     1       1.361  -1.922  27.947  0.00  0.00    -0.008 Br
ATOM     25  C   UNL     1       3.741  -0.534  28.800  0.00  0.00    +0.058 A 
ATOM     26  C   UNL     1       4.836   0.139  28.207  0.00  0.00    +0.056 A 
ENDBRANCH  19  21
ENDBRANCH   6  17
TORSDOF 5
ENDMDL
