MODEL 1
REMARK VINA RESULT:      -4.5      0.000      0.000
REMARK  Name = 
REMARK  8 active torsions:
REMARK  status: ('A' for Active; 'I' for Inactive)
REMARK    1  A    between atoms: C_2  and  C_4
REMARK    2  A    between atoms: C_4  and  N_5
REMARK    3  A    between atoms: N_5  and  C_6
REMARK    4  A    between atoms: N_5  and  C_10
REMARK    5  A    between atoms: C_6  and  C_7
REMARK    6  A    between atoms: C_7  and  O_8
REMARK    7  A    between atoms: C_10  and  C_11
REMARK    8  A    between atoms: C_11  and  O_12
REMARK                            x       y       z     vdW  Elec       q    Type
REMARK                         _______ _______ _______ _____ _____    ______ ____
ROOT
ATOM      1  N   UNL     1       6.978  -5.238  23.867  0.00  0.00    -0.274 NA
ENDROOT
BRANCH   1   2
ATOM      2  C   UNL     1       7.804  -4.335  24.742  0.00  0.00    +0.181 C 
BRANCH   2   6
ATOM      3  N   UNL     1       8.405  -5.776  26.628  0.00  0.00    -0.328 N 
ATOM      4  H   UNL     1       7.493  -5.610  27.033  0.00  0.00    +0.145 HD
ATOM      5  H   UNL     1       9.087  -6.266  27.193  0.00  0.00    +0.145 HD
ATOM      6  C   UNL     1       8.865  -5.113  25.526  0.00  0.00    +0.225 C 
ATOM      7  O   UNL     1      10.040  -5.192  25.182  0.00  0.00    -0.275 OA
ENDBRANCH   2   6
ENDBRANCH   1   2
BRANCH   1   8
ATOM      8  C   UNL     1       6.972  -4.664  22.475  0.00  0.00    +0.206 C 
BRANCH   8   9
ATOM      9  C   UNL     1       6.404  -5.636  21.444  0.00  0.00    +0.319 C 
ATOM     10  O   UNL     1       5.898  -5.291  20.387  0.00  0.00    -0.250 OA
BRANCH   9  11
ATOM     11  O   UNL     1       6.491  -6.933  21.830  0.00  0.00    -0.480 OA
ATOM     12  H   UNL     1       7.407  -7.129  22.120  0.00  0.00    +0.295 HD
ENDBRANCH   9  11
ENDBRANCH   8   9
ENDBRANCH   1   8
BRANCH   1  13
ATOM     13  C   UNL     1       5.565  -5.199  24.390  0.00  0.00    +0.206 C 
BRANCH  13  14
ATOM     14  C   UNL     1       5.155  -6.504  25.062  0.00  0.00    +0.319 C 
ATOM     15  O   UNL     1       5.366  -6.764  26.237  0.00  0.00    -0.250 OA
BRANCH  14  16
ATOM     16  O   UNL     1       4.557  -7.368  24.209  0.00  0.00    -0.480 OA
ATOM     17  H   UNL     1       3.609  -7.137  24.115  0.00  0.00    +0.295 HD
ENDBRANCH  14  16
ENDBRANCH  13  14
ENDBRANCH   1  13
TORSDOF 8
ENDMDL
MODEL 2
REMARK VINA RESULT:      -4.4      1.035      4.178
REMARK  Name = 
REMARK  8 active torsions:
REMARK  status: ('A' for Active; 'I' for Inactive)
REMARK    1  A    between atoms: C_2  and  C_4
REMARK    2  A    between atoms: C_4  and  N_5
REMARK    3  A    between atoms: N_5  and  C_6
REMARK    4  A    between atoms: N_5  and  C_10
REMARK    5  A    between atoms: C_6  and  C_7
REMARK    6  A    between atoms: C_7  and  O_8
REMARK    7  A    between atoms: C_10  and  C_11
REMARK    8  A    between atoms: C_11  and  O_12
REMARK                            x       y       z     vdW  Elec       q    Type
REMARK                         _______ _______ _______ _____ _____    ______ ____
ROOT
ATOM      1  N   UNL     1       7.324  -5.065  23.890  0.00  0.00    -0.274 NA
ENDROOT
BRANCH   1   2
ATOM      2  C   UNL     1       6.068  -4.800  24.678  0.00  0.00    +0.181 C 
BRANCH   2   6
ATOM      3  N   UNL     1       5.877  -6.294  26.608  0.00  0.00    -0.328 N 
ATOM      4  H   UNL     1       6.620  -5.783  27.066  0.00  0.00    +0.145 HD
ATOM      5  H   UNL     1       5.559  -7.151  27.044  0.00  0.00    +0.145 HD
ATOM      6  C   UNL     1       5.510  -6.079  25.310  0.00  0.00    +0.225 C 
ATOM      7  O   UNL     1       4.748  -6.844  24.730  0.00  0.00    -0.275 OA
ENDBRANCH   2   6
ENDBRANCH   1   2
BRANCH   1   8
ATOM      8  C   UNL     1       8.440  -4.264  24.507  0.00  0.00    +0.206 C 
BRANCH   8   9
ATOM      9  C   UNL     1       9.091  -4.980  25.687  0.00  0.00    +0.319 C 
ATOM     10  O   UNL     1       8.729  -4.853  26.846  0.00  0.00    -0.250 OA
BRANCH   9  11
ATOM     11  O   UNL     1      10.140  -5.759  25.325  0.00  0.00    -0.480 OA
ATOM     12  H   UNL     1       9.847  -6.692  25.252  0.00  0.00    +0.295 HD
ENDBRANCH   9  11
ENDBRANCH   8   9
ENDBRANCH   1   8
BRANCH   1  13
ATOM     13  C   UNL     1       7.095  -4.545  22.495  0.00  0.00    +0.206 C 
BRANCH  13  14
ATOM     14  C   UNL     1       6.459  -5.585  21.581  0.00  0.00    +0.319 C 
ATOM     15  O   UNL     1       5.948  -5.327  20.501  0.00  0.00    -0.250 OA
BRANCH  14  16
ATOM     16  O   UNL     1       6.490  -6.833  22.106  0.00  0.00    -0.480 OA
ATOM     17  H   UNL     1       6.676  -7.485  21.398  0.00  0.00    +0.295 HD
ENDBRANCH  14  16
ENDBRANCH  13  14
ENDBRANCH   1  13
TORSDOF 8
ENDMDL
MODEL 3
REMARK VINA RESULT:      -4.4      2.549      3.655
REMARK  Name = 
REMARK  8 active torsions:
REMARK  status: ('A' for Active; 'I' for Inactive)
REMARK    1  A    between atoms: C_2  and  C_4
REMARK    2  A    between atoms: C_4  and  N_5
REMARK    3  A    between atoms: N_5  and  C_6
REMARK    4  A    between atoms: N_5  and  C_10
REMARK    5  A    between atoms: C_6  and  C_7
REMARK    6  A    between atoms: C_7  and  O_8
REMARK    7  A    between atoms: C_10  and  C_11
REMARK    8  A    between atoms: C_11  and  O_12
REMARK                            x       y       z     vdW  Elec       q    Type
REMARK                         _______ _______ _______ _____ _____    ______ ____
ROOT
ATOM      1  N   UNL     1       8.140  -3.606  23.306  0.00  0.00    -0.274 NA
ENDROOT
BRANCH   1   2
ATOM      2  C   UNL     1       8.259  -2.142  22.976  0.00  0.00    +0.181 C 
BRANCH   2   6
ATOM      3  N   UNL     1       9.531  -0.953  21.256  0.00  0.00    -0.328 N 
ATOM      4  H   UNL     1       8.664  -0.709  20.795  0.00  0.00    +0.145 HD
ATOM      5  H   UNL     1      10.395  -0.746  20.770  0.00  0.00    +0.145 HD
ATOM      6  C   UNL     1       9.600  -1.813  22.315  0.00  0.00    +0.225 C 
ATOM      7  O   UNL     1      10.677  -2.237  22.720  0.00  0.00    -0.275 OA
ENDBRANCH   2   6
ENDBRANCH   1   2
BRANCH   1   8
ATOM      8  C   UNL     1       6.766  -4.068  22.896  0.00  0.00    +0.206 C 
BRANCH   8   9
ATOM      9  C   UNL     1       6.810  -5.242  21.922  0.00  0.00    +0.319 C 
ATOM     10  O   UNL     1       7.548  -6.206  22.048  0.00  0.00    -0.250 OA
BRANCH   9  11
ATOM     11  O   UNL     1       5.960  -5.098  20.875  0.00  0.00    -0.480 OA
ATOM     12  H   UNL     1       6.162  -5.773  20.192  0.00  0.00    +0.295 HD
ENDBRANCH   9  11
ENDBRANCH   8   9
ENDBRANCH   1   8
BRANCH   1  13
ATOM     13  C   UNL     1       8.246  -3.739  24.803  0.00  0.00    +0.206 C 
BRANCH  13  14
ATOM     14  C   UNL     1       8.584  -5.159  25.240  0.00  0.00    +0.319 C 
ATOM     15  O   UNL     1       8.096  -5.709  26.216  0.00  0.00    -0.250 OA
BRANCH  14  16
ATOM     16  O   UNL     1       9.513  -5.745  24.448  0.00  0.00    -0.480 OA
ATOM     17  H   UNL     1       9.389  -5.451  23.521  0.00  0.00    +0.295 HD
ENDBRANCH  14  16
ENDBRANCH  13  14
ENDBRANCH   1  13
TORSDOF 8
ENDMDL
MODEL 4
REMARK VINA RESULT:      -4.4      2.948      4.927
REMARK  Name = 
REMARK  8 active torsions:
REMARK  status: ('A' for Active; 'I' for Inactive)
REMARK    1  A    between atoms: C_2  and  C_4
REMARK    2  A    between atoms: C_4  and  N_5
REMARK    3  A    between atoms: N_5  and  C_6
REMARK    4  A    between atoms: N_5  and  C_10
REMARK    5  A    between atoms: C_6  and  C_7
REMARK    6  A    between atoms: C_7  and  O_8
REMARK    7  A    between atoms: C_10  and  C_11
REMARK    8  A    between atoms: C_11  and  O_12
REMARK                            x       y       z     vdW  Elec       q    Type
REMARK                         _______ _______ _______ _____ _____    ______ ____
ROOT
ATOM      1  N   UNL     1       8.284  -3.343  23.867  0.00  0.00    -0.274 NA
ENDROOT
BRANCH   1   2
ATOM      2  C   UNL     1       7.657  -3.427  22.501  0.00  0.00    +0.181 C 
BRANCH   2   6
ATOM      3  N   UNL     1       6.106  -1.627  23.091  0.00  0.00    -0.328 N 
ATOM      4  H   UNL     1       6.815  -1.224  23.689  0.00  0.00    +0.145 HD
ATOM      5  H   UNL     1       5.175  -1.232  23.136  0.00  0.00    +0.145 HD
ATOM      6  C   UNL     1       6.240  -2.845  22.486  0.00  0.00    +0.225 C 
ATOM      7  O   UNL     1       5.290  -3.388  21.934  0.00  0.00    -0.275 OA
ENDBRANCH   2   6
ENDBRANCH   1   2
BRANCH   1   8
ATOM      8  C   UNL     1       9.660  -2.750  23.713  0.00  0.00    +0.206 C 
BRANCH   8   9
ATOM      9  C   UNL     1       9.657  -1.475  22.874  0.00  0.00    +0.319 C 
ATOM     10  O   UNL     1       9.045  -0.462  23.175  0.00  0.00    -0.250 OA
BRANCH   9  11
ATOM     11  O   UNL     1      10.384  -1.584  21.735  0.00  0.00    -0.480 OA
ATOM     12  H   UNL     1      11.341  -1.537  21.950  0.00  0.00    +0.295 HD
ENDBRANCH   9  11
ENDBRANCH   8   9
ENDBRANCH   1   8
BRANCH   1  13
ATOM     13  C   UNL     1       8.441  -4.753  24.376  0.00  0.00    +0.206 C 
BRANCH  13  14
ATOM     14  C   UNL     1       9.168  -4.812  25.714  0.00  0.00    +0.319 C 
ATOM     15  O   UNL     1       8.799  -4.224  26.720  0.00  0.00    -0.250 OA
BRANCH  14  16
ATOM     16  O   UNL     1      10.293  -5.563  25.666  0.00  0.00    -0.480 OA
ATOM     17  H   UNL     1      10.239  -6.281  26.333  0.00  0.00    +0.295 HD
ENDBRANCH  14  16
ENDBRANCH  13  14
ENDBRANCH   1  13
TORSDOF 8
ENDMDL
MODEL 5
REMARK VINA RESULT:      -4.4      2.486      3.835
REMARK  Name = 
REMARK  8 active torsions:
REMARK  status: ('A' for Active; 'I' for Inactive)
REMARK    1  A    between atoms: C_2  and  C_4
REMARK    2  A    between atoms: C_4  and  N_5
REMARK    3  A    between atoms: N_5  and  C_6
REMARK    4  A    between atoms: N_5  and  C_10
REMARK    5  A    between atoms: C_6  and  C_7
REMARK    6  A    between atoms: C_7  and  O_8
REMARK    7  A    between atoms: C_10  and  C_11
REMARK    8  A    between atoms: C_11  and  O_12
REMARK                            x       y       z     vdW  Elec       q    Type
REMARK                         _______ _______ _______ _____ _____    ______ ____
ROOT
ATOM      1  N   UNL     1       7.980  -3.549  23.215  0.00  0.00    -0.274 NA
ENDROOT
BRANCH   1   2
ATOM      2  C   UNL     1       7.968  -3.719  24.711  0.00  0.00    +0.181 C 
BRANCH   2   6
ATOM      3  N   UNL     1       9.110  -4.920  26.513  0.00  0.00    -0.328 N 
ATOM      4  H   UNL     1       8.855  -4.180  27.155  0.00  0.00    +0.145 HD
ATOM      5  H   UNL     1       9.754  -5.627  26.844  0.00  0.00    +0.145 HD
ATOM      6  C   UNL     1       8.901  -4.845  25.165  0.00  0.00    +0.225 C 
ATOM      7  O   UNL     1       9.397  -5.665  24.399  0.00  0.00    -0.275 OA
ENDBRANCH   2   6
ENDBRANCH   1   2
BRANCH   1   8
ATOM      8  C   UNL     1       8.215  -2.092  22.911  0.00  0.00    +0.206 C 
BRANCH   8   9
ATOM      9  C   UNL     1       9.592  -1.837  22.304  0.00  0.00    +0.319 C 
ATOM     10  O   UNL     1      10.635  -2.259  22.777  0.00  0.00    -0.250 OA
BRANCH   9  11
ATOM     11  O   UNL     1       9.548  -1.063  21.192  0.00  0.00    -0.480 OA
ATOM     12  H   UNL     1       8.852  -1.396  20.586  0.00  0.00    +0.295 HD
ENDBRANCH   9  11
ENDBRANCH   8   9
ENDBRANCH   1   8
BRANCH   1  13
ATOM     13  C   UNL     1       6.606  -3.911  22.712  0.00  0.00    +0.206 C 
BRANCH  13  14
ATOM     14  C   UNL     1       6.632  -5.085  21.741  0.00  0.00    +0.319 C 
ATOM     15  O   UNL     1       5.942  -5.157  20.734  0.00  0.00    -0.250 OA
BRANCH  14  16
ATOM     16  O   UNL     1       7.482  -6.066  22.126  0.00  0.00    -0.480 OA
ATOM     17  H   UNL     1       7.135  -6.936  21.837  0.00  0.00    +0.295 HD
ENDBRANCH  14  16
ENDBRANCH  13  14
ENDBRANCH   1  13
TORSDOF 8
ENDMDL
MODEL 6
REMARK VINA RESULT:      -4.4      6.522      7.669
REMARK  Name = 
REMARK  8 active torsions:
REMARK  status: ('A' for Active; 'I' for Inactive)
REMARK    1  A    between atoms: C_2  and  C_4
REMARK    2  A    between atoms: C_4  and  N_5
REMARK    3  A    between atoms: N_5  and  C_6
REMARK    4  A    between atoms: N_5  and  C_10
REMARK    5  A    between atoms: C_6  and  C_7
REMARK    6  A    between atoms: C_7  and  O_8
REMARK    7  A    between atoms: C_10  and  C_11
REMARK    8  A    between atoms: C_11  and  O_12
REMARK                            x       y       z     vdW  Elec       q    Type
REMARK                         _______ _______ _______ _____ _____    ______ ____
ROOT
ATOM      1  N   UNL     1       8.437   0.568  22.992  0.00  0.00    -0.274 NA
ENDROOT
BRANCH   1   2
ATOM      2  C   UNL     1       9.428   1.317  23.842  0.00  0.00    +0.181 C 
BRANCH   2   6
ATOM      3  N   UNL     1      10.107   2.190  21.658  0.00  0.00    -0.328 N 
ATOM      4  H   UNL     1       9.615   1.427  21.210  0.00  0.00    +0.145 HD
ATOM      5  H   UNL     1      10.689   2.778  21.075  0.00  0.00    +0.145 HD
ATOM      6  C   UNL     1      10.287   2.273  23.009  0.00  0.00    +0.225 C 
ATOM      7  O   UNL     1      11.052   3.098  23.498  0.00  0.00    -0.275 OA
ENDBRANCH   2   6
ENDBRANCH   1   2
BRANCH   1   8
ATOM      8  C   UNL     1       7.052   0.925  23.464  0.00  0.00    +0.206 C 
BRANCH   8   9
ATOM      9  C   UNL     1       6.412   2.024  22.619  0.00  0.00    +0.319 C 
ATOM     10  O   UNL     1       7.009   2.667  21.770  0.00  0.00    -0.250 OA
BRANCH   9  11
ATOM     11  O   UNL     1       5.109   2.241  22.926  0.00  0.00    -0.480 OA
ATOM     12  H   UNL     1       4.537   1.760  22.290  0.00  0.00    +0.295 HD
ENDBRANCH   9  11
ENDBRANCH   8   9
ENDBRANCH   1   8
BRANCH   1  13
ATOM     13  C   UNL     1       8.648  -0.902  23.247  0.00  0.00    +0.206 C 
BRANCH  13  14
ATOM     14  C   UNL     1       9.778  -1.483  22.405  0.00  0.00    +0.319 C 
ATOM     15  O   UNL     1      10.558  -2.336  22.802  0.00  0.00    -0.250 OA
BRANCH  14  16
ATOM     16  O   UNL     1       9.849  -0.931  21.171  0.00  0.00    -0.480 OA
ATOM     17  H   UNL     1      10.733  -0.527  21.040  0.00  0.00    +0.295 HD
ENDBRANCH  14  16
ENDBRANCH  13  14
ENDBRANCH   1  13
TORSDOF 8
ENDMDL
MODEL 7
REMARK VINA RESULT:      -4.4      2.719      5.533
REMARK  Name = 
REMARK  8 active torsions:
REMARK  status: ('A' for Active; 'I' for Inactive)
REMARK    1  A    between atoms: C_2  and  C_4
REMARK    2  A    between atoms: C_4  and  N_5
REMARK    3  A    between atoms: N_5  and  C_6
REMARK    4  A    between atoms: N_5  and  C_10
REMARK    5  A    between atoms: C_6  and  C_7
REMARK    6  A    between atoms: C_7  and  O_8
REMARK    7  A    between atoms: C_10  and  C_11
REMARK    8  A    between atoms: C_11  and  O_12
REMARK                            x       y       z     vdW  Elec       q    Type
REMARK                         _______ _______ _______ _____ _____    ______ ____
ROOT
ATOM      1  N   UNL     1       8.273  -3.273  23.357  0.00  0.00    -0.274 NA
ENDROOT
BRANCH   1   2
ATOM      2  C   UNL     1       6.822  -3.636  23.187  0.00  0.00    +0.181 C 
BRANCH   2   6
ATOM      3  N   UNL     1       7.310  -5.737  22.029  0.00  0.00    -0.328 N 
ATOM      4  H   UNL     1       8.076  -5.901  22.668  0.00  0.00    +0.145 HD
ATOM      5  H   UNL     1       7.220  -6.359  21.234  0.00  0.00    +0.145 HD
ATOM      6  C   UNL     1       6.603  -4.569  21.992  0.00  0.00    +0.225 C 
ATOM      7  O   UNL     1       5.818  -4.330  21.080  0.00  0.00    -0.275 OA
ENDBRANCH   2   6
ENDBRANCH   1   2
BRANCH   1   8
ATOM      8  C   UNL     1       8.618  -3.399  24.818  0.00  0.00    +0.206 C 
BRANCH   8   9
ATOM      9  C   UNL     1       9.183  -4.773  25.168  0.00  0.00    +0.319 C 
ATOM     10  O   UNL     1       9.345  -5.672  24.357  0.00  0.00    -0.250 OA
BRANCH   9  11
ATOM     11  O   UNL     1       9.465  -4.913  26.488  0.00  0.00    -0.480 OA
ATOM     12  H   UNL     1       8.667  -4.702  27.018  0.00  0.00    +0.295 HD
ENDBRANCH   9  11
ENDBRANCH   8   9
ENDBRANCH   1   8
BRANCH   1  13
ATOM     13  C   UNL     1       8.421  -1.825  22.969  0.00  0.00    +0.206 C 
BRANCH  13  14
ATOM     14  C   UNL     1       9.678  -1.567  22.148  0.00  0.00    +0.319 C 
ATOM     15  O   UNL     1      10.799  -1.919  22.483  0.00  0.00    -0.250 OA
BRANCH  14  16
ATOM     16  O   UNL     1       9.430  -0.872  21.012  0.00  0.00    -0.480 OA
ATOM     17  H   UNL     1      10.275  -0.653  20.567  0.00  0.00    +0.295 HD
ENDBRANCH  14  16
ENDBRANCH  13  14
ENDBRANCH   1  13
TORSDOF 8
ENDMDL
MODEL 8
REMARK VINA RESULT:      -4.3      3.032      4.519
REMARK  Name = 
REMARK  8 active torsions:
REMARK  status: ('A' for Active; 'I' for Inactive)
REMARK    1  A    between atoms: C_2  and  C_4
REMARK    2  A    between atoms: C_4  and  N_5
REMARK    3  A    between atoms: N_5  and  C_6
REMARK    4  A    between atoms: N_5  and  C_10
REMARK    5  A    between atoms: C_6  and  C_7
REMARK    6  A    between atoms: C_7  and  O_8
REMARK    7  A    between atoms: C_10  and  C_11
REMARK    8  A    between atoms: C_11  and  O_12
REMARK                            x       y       z     vdW  Elec       q    Type
REMARK                         _______ _______ _______ _____ _____    ______ ____
ROOT
ATOM      1  N   UNL     1       8.172  -3.389  23.799  0.00  0.00    -0.274 NA
ENDROOT
BRANCH   1   2
ATOM      2  C   UNL     1       8.343  -4.783  24.341  0.00  0.00    +0.181 C 
BRANCH   2   6
ATOM      3  N   UNL     1      10.247  -5.510  25.698  0.00  0.00    -0.328 N 
ATOM      4  H   UNL     1      10.503  -6.165  24.970  0.00  0.00    +0.145 HD
ATOM      5  H   UNL     1      10.742  -5.569  26.578  0.00  0.00    +0.145 HD
ATOM      6  C   UNL     1       9.087  -4.789  25.680  0.00  0.00    +0.225 C 
ATOM      7  O   UNL     1       8.716  -4.159  26.664  0.00  0.00    -0.275 OA
ENDBRANCH   2   6
ENDBRANCH   1   2
BRANCH   1   8
ATOM      8  C   UNL     1       7.549  -3.491  22.432  0.00  0.00    +0.206 C 
BRANCH   8   9
ATOM      9  C   UNL     1       6.126  -2.941  22.396  0.00  0.00    +0.319 C 
ATOM     10  O   UNL     1       5.158  -3.577  22.010  0.00  0.00    -0.250 OA
BRANCH   9  11
ATOM     11  O   UNL     1       6.042  -1.652  22.812  0.00  0.00    -0.480 OA
ATOM     12  H   UNL     1       5.584  -1.116  22.130  0.00  0.00    +0.295 HD
ENDBRANCH   9  11
ENDBRANCH   8   9
ENDBRANCH   1   8
BRANCH   1  13
ATOM     13  C   UNL     1       9.550  -2.799  23.638  0.00  0.00    +0.206 C 
BRANCH  13  14
ATOM     14  C   UNL     1       9.541  -1.514  22.818  0.00  0.00    +0.319 C 
ATOM     15  O   UNL     1       8.875  -0.529  23.097  0.00  0.00    -0.250 OA
BRANCH  14  16
ATOM     16  O   UNL     1      10.330  -1.588  21.721  0.00  0.00    -0.480 OA
ATOM     17  H   UNL     1      11.264  -1.424  21.973  0.00  0.00    +0.295 HD
ENDBRANCH  14  16
ENDBRANCH  13  14
ENDBRANCH   1  13
TORSDOF 8
ENDMDL
MODEL 9
REMARK VINA RESULT:      -4.3      6.528      8.197
REMARK  Name = 
REMARK  8 active torsions:
REMARK  status: ('A' for Active; 'I' for Inactive)
REMARK    1  A    between atoms: C_2  and  C_4
REMARK    2  A    between atoms: C_4  and  N_5
REMARK    3  A    between atoms: N_5  and  C_6
REMARK    4  A    between atoms: N_5  and  C_10
REMARK    5  A    between atoms: C_6  and  C_7
REMARK    6  A    between atoms: C_7  and  O_8
REMARK    7  A    between atoms: C_10  and  C_11
REMARK    8  A    between atoms: C_11  and  O_12
REMARK                            x       y       z     vdW  Elec       q    Type
REMARK                         _______ _______ _______ _____ _____    ______ ____
ROOT
ATOM      1  N   UNL     1       8.464   0.601  22.972  0.00  0.00    -0.274 NA
ENDROOT
BRANCH   1   2
ATOM      2  C   UNL     1       7.103   0.984  23.490  0.00  0.00    +0.181 C 
BRANCH   2   6
ATOM      3  N   UNL     1       5.140   2.333  22.927  0.00  0.00    -0.328 N 
ATOM      4  H   UNL     1       4.575   1.745  23.527  0.00  0.00    +0.145 HD
ATOM      5  H   UNL     1       4.659   3.008  22.345  0.00  0.00    +0.145 HD
ATOM      6  C   UNL     1       6.442   2.058  22.621  0.00  0.00    +0.225 C 
ATOM      7  O   UNL     1       7.032   2.676  21.741  0.00  0.00    -0.275 OA
ENDBRANCH   2   6
ENDBRANCH   1   2
BRANCH   1   8
ATOM      8  C   UNL     1       8.667  -0.868  23.231  0.00  0.00    +0.206 C 
BRANCH   8   9
ATOM      9  C   UNL     1       9.795  -1.460  22.390  0.00  0.00    +0.319 C 
ATOM     10  O   UNL     1      10.561  -2.324  22.786  0.00  0.00    -0.250 OA
BRANCH   9  11
ATOM     11  O   UNL     1       9.884  -0.907  21.154  0.00  0.00    -0.480 OA
ATOM     12  H   UNL     1      10.217   0.012  21.229  0.00  0.00    +0.295 HD
ENDBRANCH   9  11
ENDBRANCH   8   9
ENDBRANCH   1   8
BRANCH   1  13
ATOM     13  C   UNL     1       9.483   1.360  23.783  0.00  0.00    +0.206 C 
BRANCH  13  14
ATOM     14  C   UNL     1      10.301   2.326  22.935  0.00  0.00    +0.319 C 
ATOM     15  O   UNL     1      11.050   3.175  23.396  0.00  0.00    -0.250 OA
BRANCH  14  16
ATOM     16  O   UNL     1      10.088   2.169  21.608  0.00  0.00    -0.480 OA
ATOM     17  H   UNL     1       9.380   1.506  21.463  0.00  0.00    +0.295 HD
ENDBRANCH  14  16
ENDBRANCH  13  14
ENDBRANCH   1  13
TORSDOF 8
ENDMDL
