MODEL 1
REMARK VINA RESULT:      -7.0      0.000      0.000
REMARK  Name = 
REMARK  7 active torsions:
REMARK  status: ('A' for Active; 'I' for Inactive)
REMARK    1  A    between atoms: C_2  and  C_12
REMARK    2  A    between atoms: C_7  and  C_9
REMARK    3  A    between atoms: C_9  and  C_10
REMARK    4  A    between atoms: C_10  and  C_11
REMARK    5  A    between atoms: N_14  and  C_15
REMARK    6  A    between atoms: C_15  and  C_16
REMARK    7  A    between atoms: C_19  and  C_22
REMARK                            x       y       z     vdW  Elec       q    Type
REMARK                         _______ _______ _______ _____ _____    ______ ____
ROOT
ATOM      1  C   UNL     1       7.440  -4.800  25.776  0.00  0.00    +0.234 C 
ATOM      2  N   UNL     1       7.882  -3.688  25.095  0.00  0.00    -0.310 N 
ATOM      3  H   UNL     1       7.232  -2.921  24.962  0.00  0.00    +0.149 HD
ATOM      4  O   UNL     1       8.160  -5.769  26.010  0.00  0.00    -0.274 OA
ENDROOT
BRANCH   1   5
ATOM      5  C   UNL     1       5.930  -4.836  26.085  0.00  0.00    +0.162 C 
ATOM      6  N   UNL     1       5.304  -6.126  25.766  0.00  0.00    -0.290 N 
ATOM      7  C   UNL     1       4.783  -6.510  24.545  0.00  0.00    +0.216 C 
ATOM      8  O   UNL     1       4.107  -7.536  24.439  0.00  0.00    -0.276 OA
ATOM      9  C   UNL     1       4.923  -6.845  26.970  0.00  0.00    +0.108 C 
ATOM     10  C   UNL     1       5.567  -6.080  28.116  0.00  0.00    +0.021 C 
ATOM     11  C   UNL     1       5.666  -4.658  27.582  0.00  0.00    +0.033 C 
BRANCH   7  12
ATOM     12  C   UNL     1       5.136  -5.672  23.324  0.00  0.00    +0.096 C 
BRANCH  12  13
ATOM     13  C   UNL     1       6.287  -6.290  22.527  0.00  0.00    +0.006 C 
ATOM     14  C   UNL     1       7.128  -5.222  21.846  0.00  0.00    +0.004 C 
ENDBRANCH  12  13
ENDBRANCH   7  12
ENDBRANCH   1   5
BRANCH   2  15
ATOM     15  C   UNL     1       9.233  -3.562  24.596  0.00  0.00    +0.139 C 
BRANCH  15  16
ATOM     16  C   UNL     1       9.531  -2.156  24.132  0.00  0.00    -0.030 A 
ATOM     17  C   UNL     1       9.898  -1.913  22.800  0.00  0.00    +0.006 A 
ATOM     18  C   UNL     1      10.124  -0.611  22.343  0.00  0.00    +0.016 A 
ATOM     19  C   UNL     1       9.978   0.471  23.215  0.00  0.00    +0.065 A 
ATOM     20  C   UNL     1       9.642   0.238  24.554  0.00  0.00    +0.016 A 
ATOM     21  C   UNL     1       9.412  -1.067  25.007  0.00  0.00    +0.006 A 
BRANCH  19  22
ATOM     22  C   UNL     1      10.163   1.861  22.707  0.00  0.00    +0.308 C 
ATOM     23  N   UNL     1       9.792   2.233  21.522  0.00  0.00    -0.099 NA
ATOM     24  H   UNL     1       9.412   1.450  20.987  0.00  0.00    +0.363 HD
ATOM     25  N   UNL     1      10.753   2.814  23.481  0.00  0.00    -0.247 N 
ATOM     26  H   UNL     1      10.632   3.736  23.072  0.00  0.00    +0.288 HD
ATOM     27  H   UNL     1      10.529   2.791  24.469  0.00  0.00    +0.288 HD
ENDBRANCH  19  22
ENDBRANCH  15  16
ENDBRANCH   2  15
TORSDOF 6
ENDMDL
MODEL 2
REMARK VINA RESULT:      -7.0      2.608      4.025
REMARK  Name = 
REMARK  7 active torsions:
REMARK  status: ('A' for Active; 'I' for Inactive)
REMARK    1  A    between atoms: C_2  and  C_12
REMARK    2  A    between atoms: C_7  and  C_9
REMARK    3  A    between atoms: C_9  and  C_10
REMARK    4  A    between atoms: C_10  and  C_11
REMARK    5  A    between atoms: N_14  and  C_15
REMARK    6  A    between atoms: C_15  and  C_16
REMARK    7  A    between atoms: C_19  and  C_22
REMARK                            x       y       z     vdW  Elec       q    Type
REMARK                         _______ _______ _______ _____ _____    ______ ____
ROOT
ATOM      1  C   UNL     1       8.845  -3.591  24.044  0.00  0.00    +0.234 C 
ATOM      2  N   UNL     1       8.936  -2.503  23.205  0.00  0.00    -0.310 N 
ATOM      3  H   UNL     1       8.075  -2.072  22.888  0.00  0.00    +0.149 HD
ATOM      4  O   UNL     1       9.832  -4.164  24.502  0.00  0.00    -0.274 OA
ENDROOT
BRANCH   1   5
ATOM      5  C   UNL     1       7.427  -4.161  24.245  0.00  0.00    +0.162 C 
ATOM      6  N   UNL     1       6.370  -3.155  24.085  0.00  0.00    -0.290 N 
ATOM      7  C   UNL     1       5.873  -2.318  25.065  0.00  0.00    +0.216 C 
ATOM      8  O   UNL     1       4.854  -1.651  24.872  0.00  0.00    -0.276 OA
ATOM      9  C   UNL     1       5.602  -3.379  22.871  0.00  0.00    +0.108 C 
ATOM     10  C   UNL     1       6.373  -4.436  22.096  0.00  0.00    +0.021 C 
ATOM     11  C   UNL     1       7.099  -5.215  23.184  0.00  0.00    +0.033 C 
BRANCH   7  12
ATOM     12  C   UNL     1       6.665  -2.186  26.358  0.00  0.00    +0.096 C 
BRANCH  12  13
ATOM     13  C   UNL     1       7.387  -0.839  26.444  0.00  0.00    +0.006 C 
ATOM     14  C   UNL     1       8.842  -1.012  26.850  0.00  0.00    +0.004 C 
ENDBRANCH  12  13
ENDBRANCH   7  12
ENDBRANCH   1   5
BRANCH   2  15
ATOM     15  C   UNL     1      10.201  -1.939  22.790  0.00  0.00    +0.139 C 
BRANCH  15  16
ATOM     16  C   UNL     1      10.218  -0.435  22.929  0.00  0.00    -0.030 A 
ATOM     17  C   UNL     1      10.676   0.161  24.114  0.00  0.00    +0.006 A 
ATOM     18  C   UNL     1      10.749   1.552  24.236  0.00  0.00    +0.016 A 
ATOM     19  C   UNL     1      10.368   2.369  23.168  0.00  0.00    +0.065 A 
ATOM     20  C   UNL     1       9.881   1.786  21.993  0.00  0.00    +0.016 A 
ATOM     21  C   UNL     1       9.814   0.392  21.871  0.00  0.00    +0.006 A 
BRANCH  19  22
ATOM     22  C   UNL     1      10.503   3.850  23.285  0.00  0.00    +0.308 C 
ATOM     23  N   UNL     1      11.648   4.456  23.266  0.00  0.00    -0.099 NA
ATOM     24  H   UNL     1      12.422   3.791  23.213  0.00  0.00    +0.363 HD
ATOM     25  N   UNL     1       9.403   4.641  23.429  0.00  0.00    -0.247 N 
ATOM     26  H   UNL     1       9.645   5.620  23.303  0.00  0.00    +0.288 HD
ATOM     27  H   UNL     1       8.582   4.369  22.902  0.00  0.00    +0.288 HD
ENDBRANCH  19  22
ENDBRANCH  15  16
ENDBRANCH   2  15
TORSDOF 6
ENDMDL
MODEL 3
REMARK VINA RESULT:      -6.9      2.760      3.907
REMARK  Name = 
REMARK  7 active torsions:
REMARK  status: ('A' for Active; 'I' for Inactive)
REMARK    1  A    between atoms: C_2  and  C_12
REMARK    2  A    between atoms: C_7  and  C_9
REMARK    3  A    between atoms: C_9  and  C_10
REMARK    4  A    between atoms: C_10  and  C_11
REMARK    5  A    between atoms: N_14  and  C_15
REMARK    6  A    between atoms: C_15  and  C_16
REMARK    7  A    between atoms: C_19  and  C_22
REMARK                            x       y       z     vdW  Elec       q    Type
REMARK                         _______ _______ _______ _____ _____    ______ ____
ROOT
ATOM      1  C   UNL     1       8.075  -3.009  23.222  0.00  0.00    +0.234 C 
ATOM      2  N   UNL     1       9.340  -2.601  23.586  0.00  0.00    -0.310 N 
ATOM      3  H   UNL     1       9.663  -2.826  24.519  0.00  0.00    +0.149 HD
ATOM      4  O   UNL     1       7.605  -2.805  22.104  0.00  0.00    -0.274 OA
ENDROOT
BRANCH   1   5
ATOM      5  C   UNL     1       7.211  -3.591  24.357  0.00  0.00    +0.162 C 
ATOM      6  N   UNL     1       5.916  -2.916  24.503  0.00  0.00    -0.290 N 
ATOM      7  C   UNL     1       5.654  -1.787  25.257  0.00  0.00    +0.216 C 
ATOM      8  O   UNL     1       4.497  -1.419  25.466  0.00  0.00    -0.276 OA
ATOM      9  C   UNL     1       4.818  -3.772  24.085  0.00  0.00    +0.108 C 
ATOM     10  C   UNL     1       5.475  -4.963  23.406  0.00  0.00    +0.021 C 
ATOM     11  C   UNL     1       6.838  -5.049  24.077  0.00  0.00    +0.033 C 
BRANCH   7  12
ATOM     12  C   UNL     1       6.840  -0.970  25.751  0.00  0.00    +0.096 C 
BRANCH  12  13
ATOM     13  C   UNL     1       6.821   0.453  25.189  0.00  0.00    +0.006 C 
ATOM     14  C   UNL     1       6.700   0.452  23.673  0.00  0.00    +0.004 C 
ENDBRANCH  12  13
ENDBRANCH   7  12
ENDBRANCH   1   5
BRANCH   2  15
ATOM     15  C   UNL     1      10.224  -1.898  22.683  0.00  0.00    +0.139 C 
BRANCH  15  16
ATOM     16  C   UNL     1      10.210  -0.408  22.932  0.00  0.00    -0.030 A 
ATOM     17  C   UNL     1       9.902   0.481  21.891  0.00  0.00    +0.006 A 
ATOM     18  C   UNL     1       9.831   1.858  22.120  0.00  0.00    +0.016 A 
ATOM     19  C   UNL     1      10.062   2.367  23.401  0.00  0.00    +0.065 A 
ATOM     20  C   UNL     1      10.399   1.493  24.440  0.00  0.00    +0.016 A 
ATOM     21  C   UNL     1      10.464   0.113  24.209  0.00  0.00    +0.006 A 
BRANCH  19  22
ATOM     22  C   UNL     1       9.927   3.831  23.650  0.00  0.00    +0.308 C 
ATOM     23  N   UNL     1      10.845   4.688  23.328  0.00  0.00    -0.099 NA
ATOM     24  H   UNL     1      11.668   4.224  22.938  0.00  0.00    +0.363 HD
ATOM     25  N   UNL     1       8.813   4.338  24.248  0.00  0.00    -0.247 N 
ATOM     26  H   UNL     1       8.792   5.350  24.172  0.00  0.00    +0.288 HD
ATOM     27  H   UNL     1       7.932   3.907  23.994  0.00  0.00    +0.288 HD
ENDBRANCH  19  22
ENDBRANCH  15  16
ENDBRANCH   2  15
TORSDOF 6
ENDMDL
MODEL 4
REMARK VINA RESULT:      -6.6      2.668      7.471
REMARK  Name = 
REMARK  7 active torsions:
REMARK  status: ('A' for Active; 'I' for Inactive)
REMARK    1  A    between atoms: C_2  and  C_12
REMARK    2  A    between atoms: C_7  and  C_9
REMARK    3  A    between atoms: C_9  and  C_10
REMARK    4  A    between atoms: C_10  and  C_11
REMARK    5  A    between atoms: N_14  and  C_15
REMARK    6  A    between atoms: C_15  and  C_16
REMARK    7  A    between atoms: C_19  and  C_22
REMARK                            x       y       z     vdW  Elec       q    Type
REMARK                         _______ _______ _______ _____ _____    ______ ____
ROOT
ATOM      1  C   UNL     1       8.655  -1.747  22.682  0.00  0.00    +0.234 C 
ATOM      2  N   UNL     1       7.689  -2.696  22.432  0.00  0.00    -0.310 N 
ATOM      3  H   UNL     1       6.795  -2.383  22.072  0.00  0.00    +0.149 HD
ATOM      4  O   UNL     1       9.778  -2.031  23.096  0.00  0.00    -0.274 OA
ENDROOT
BRANCH   1   5
ATOM      5  C   UNL     1       8.193  -0.281  22.574  0.00  0.00    +0.162 C 
ATOM      6  N   UNL     1       8.475   0.506  23.781  0.00  0.00    -0.290 N 
ATOM      7  C   UNL     1       7.667   0.622  24.897  0.00  0.00    +0.216 C 
ATOM      8  O   UNL     1       7.907   1.461  25.768  0.00  0.00    -0.276 OA
ATOM      9  C   UNL     1       9.525   1.484  23.547  0.00  0.00    +0.108 C 
ATOM     10  C   UNL     1      10.109   1.127  22.189  0.00  0.00    +0.021 C 
ATOM     11  C   UNL     1       8.948   0.458  21.467  0.00  0.00    +0.033 C 
BRANCH   7  12
ATOM     12  C   UNL     1       6.522  -0.368  25.054  0.00  0.00    +0.096 C 
BRANCH  12  13
ATOM     13  C   UNL     1       6.864  -1.476  26.053  0.00  0.00    +0.006 C 
ATOM     14  C   UNL     1       5.646  -1.893  26.861  0.00  0.00    +0.004 C 
ENDBRANCH  12  13
ENDBRANCH   7  12
ENDBRANCH   1   5
BRANCH   2  15
ATOM     15  C   UNL     1       7.911  -4.110  22.636  0.00  0.00    +0.139 C 
BRANCH  15  16
ATOM     16  C   UNL     1       7.423  -4.566  23.991  0.00  0.00    -0.030 A 
ATOM     17  C   UNL     1       6.072  -4.895  24.182  0.00  0.00    +0.006 A 
ATOM     18  C   UNL     1       5.617  -5.371  25.415  0.00  0.00    +0.016 A 
ATOM     19  C   UNL     1       6.512  -5.530  26.477  0.00  0.00    +0.065 A 
ATOM     20  C   UNL     1       7.855  -5.177  26.306  0.00  0.00    +0.016 A 
ATOM     21  C   UNL     1       8.309  -4.705  25.068  0.00  0.00    +0.006 A 
BRANCH  19  22
ATOM     22  C   UNL     1       6.031  -6.093  27.772  0.00  0.00    +0.308 C 
ATOM     23  N   UNL     1       6.368  -5.601  28.922  0.00  0.00    -0.099 NA
ATOM     24  H   UNL     1       7.030  -4.829  28.819  0.00  0.00    +0.363 HD
ATOM     25  N   UNL     1       5.206  -7.177  27.798  0.00  0.00    -0.247 N 
ATOM     26  H   UNL     1       4.822  -7.315  28.727  0.00  0.00    +0.288 HD
ATOM     27  H   UNL     1       4.501  -7.222  27.071  0.00  0.00    +0.288 HD
ENDBRANCH  19  22
ENDBRANCH  15  16
ENDBRANCH   2  15
TORSDOF 6
ENDMDL
MODEL 5
REMARK VINA RESULT:      -6.5      2.887      7.324
REMARK  Name = 
REMARK  7 active torsions:
REMARK  status: ('A' for Active; 'I' for Inactive)
REMARK    1  A    between atoms: C_2  and  C_12
REMARK    2  A    between atoms: C_7  and  C_9
REMARK    3  A    between atoms: C_9  and  C_10
REMARK    4  A    between atoms: C_10  and  C_11
REMARK    5  A    between atoms: N_14  and  C_15
REMARK    6  A    between atoms: C_15  and  C_16
REMARK    7  A    between atoms: C_19  and  C_22
REMARK                            x       y       z     vdW  Elec       q    Type
REMARK                         _______ _______ _______ _____ _____    ______ ____
ROOT
ATOM      1  C   UNL     1       7.386   0.371  24.385  0.00  0.00    +0.234 C 
ATOM      2  N   UNL     1       6.948  -0.457  25.394  0.00  0.00    -0.310 N 
ATOM      3  H   UNL     1       7.619  -0.749  26.096  0.00  0.00    +0.149 HD
ATOM      4  O   UNL     1       6.643   0.798  23.503  0.00  0.00    -0.274 OA
ENDROOT
BRANCH   1   5
ATOM      5  C   UNL     1       8.909   0.599  24.323  0.00  0.00    +0.162 C 
ATOM      6  N   UNL     1       9.554  -0.095  23.202  0.00  0.00    -0.290 N 
ATOM      7  C   UNL     1      10.027  -1.394  23.197  0.00  0.00    +0.216 C 
ATOM      8  O   UNL     1      10.724  -1.811  22.270  0.00  0.00    -0.276 OA
ATOM      9  C   UNL     1      10.012   0.842  22.188  0.00  0.00    +0.108 C 
ATOM     10  C   UNL     1       9.403   2.180  22.574  0.00  0.00    +0.021 C 
ATOM     11  C   UNL     1       9.239   2.074  24.084  0.00  0.00    +0.033 C 
BRANCH   7  12
ATOM     12  C   UNL     1       9.593  -2.313  24.330  0.00  0.00    +0.096 C 
BRANCH  12  13
ATOM     13  C   UNL     1       8.800  -3.515  23.812  0.00  0.00    +0.006 C 
ATOM     14  C   UNL     1       8.866  -4.686  24.781  0.00  0.00    +0.004 C 
ENDBRANCH  12  13
ENDBRANCH   7  12
ENDBRANCH   1   5
BRANCH   2  15
ATOM     15  C   UNL     1       5.575  -0.897  25.505  0.00  0.00    +0.139 C 
BRANCH  15  16
ATOM     16  C   UNL     1       5.392  -2.302  24.983  0.00  0.00    -0.030 A 
ATOM     17  C   UNL     1       5.343  -2.543  23.601  0.00  0.00    +0.006 A 
ATOM     18  C   UNL     1       5.229  -3.845  23.103  0.00  0.00    +0.016 A 
ATOM     19  C   UNL     1       5.169  -4.928  23.984  0.00  0.00    +0.065 A 
ATOM     20  C   UNL     1       5.187  -4.697  25.364  0.00  0.00    +0.016 A 
ATOM     21  C   UNL     1       5.306  -3.392  25.860  0.00  0.00    +0.006 A 
BRANCH  19  22
ATOM     22  C   UNL     1       5.107  -6.317  23.445  0.00  0.00    +0.308 C 
ATOM     23  N   UNL     1       4.522  -7.290  24.070  0.00  0.00    -0.099 NA
ATOM     24  H   UNL     1       4.166  -6.989  24.980  0.00  0.00    +0.363 HD
ATOM     25  N   UNL     1       5.683  -6.628  22.250  0.00  0.00    -0.247 N 
ATOM     26  H   UNL     1       5.392  -7.550  21.938  0.00  0.00    +0.288 HD
ATOM     27  H   UNL     1       5.612  -5.928  21.521  0.00  0.00    +0.288 HD
ENDBRANCH  19  22
ENDBRANCH  15  16
ENDBRANCH   2  15
TORSDOF 6
ENDMDL
MODEL 6
REMARK VINA RESULT:      -6.5      1.905      2.545
REMARK  Name = 
REMARK  7 active torsions:
REMARK  status: ('A' for Active; 'I' for Inactive)
REMARK    1  A    between atoms: C_2  and  C_12
REMARK    2  A    between atoms: C_7  and  C_9
REMARK    3  A    between atoms: C_9  and  C_10
REMARK    4  A    between atoms: C_10  and  C_11
REMARK    5  A    between atoms: N_14  and  C_15
REMARK    6  A    between atoms: C_15  and  C_16
REMARK    7  A    between atoms: C_19  and  C_22
REMARK                            x       y       z     vdW  Elec       q    Type
REMARK                         _______ _______ _______ _____ _____    ______ ____
ROOT
ATOM      1  C   UNL     1       7.742  -2.457  24.318  0.00  0.00    +0.234 C 
ATOM      2  N   UNL     1       8.207  -2.056  23.085  0.00  0.00    -0.310 N 
ATOM      3  H   UNL     1       7.529  -1.893  22.349  0.00  0.00    +0.149 HD
ATOM      4  O   UNL     1       8.484  -2.655  25.279  0.00  0.00    -0.274 OA
ENDROOT
BRANCH   1   5
ATOM      5  C   UNL     1       6.243  -2.811  24.381  0.00  0.00    +0.162 C 
ATOM      6  N   UNL     1       5.962  -3.993  25.205  0.00  0.00    -0.290 N 
ATOM      7  C   UNL     1       5.972  -5.311  24.788  0.00  0.00    +0.216 C 
ATOM      8  O   UNL     1       5.531  -6.207  25.510  0.00  0.00    -0.276 OA
ATOM      9  C   UNL     1       5.279  -3.633  26.438  0.00  0.00    +0.108 C 
ATOM     10  C   UNL     1       5.355  -2.116  26.510  0.00  0.00    +0.021 C 
ATOM     11  C   UNL     1       5.438  -1.694  25.049  0.00  0.00    +0.033 C 
BRANCH   7  12
ATOM     12  C   UNL     1       6.617  -5.628  23.446  0.00  0.00    +0.096 C 
BRANCH  12  13
ATOM     13  C   UNL     1       5.571  -5.800  22.342  0.00  0.00    +0.006 C 
ATOM     14  C   UNL     1       6.199  -5.701  20.961  0.00  0.00    +0.004 C 
ENDBRANCH  12  13
ENDBRANCH   7  12
ENDBRANCH   1   5
BRANCH   2  15
ATOM     15  C   UNL     1       9.610  -1.833  22.814  0.00  0.00    +0.139 C 
BRANCH  15  16
ATOM     16  C   UNL     1       9.982  -0.374  22.948  0.00  0.00    -0.030 A 
ATOM     17  C   UNL     1       9.753   0.515  21.887  0.00  0.00    +0.006 A 
ATOM     18  C   UNL     1      10.041   1.877  22.017  0.00  0.00    +0.016 A 
ATOM     19  C   UNL     1      10.557   2.371  23.218  0.00  0.00    +0.065 A 
ATOM     20  C   UNL     1      10.817   1.488  24.273  0.00  0.00    +0.016 A 
ATOM     21  C   UNL     1      10.523   0.125  24.141  0.00  0.00    +0.006 A 
BRANCH  19  22
ATOM     22  C   UNL     1      10.808   3.833  23.369  0.00  0.00    +0.308 C 
ATOM     23  N   UNL     1      11.887   4.411  22.945  0.00  0.00    -0.099 NA
ATOM     24  H   UNL     1      12.543   3.733  22.551  0.00  0.00    +0.363 HD
ATOM     25  N   UNL     1       9.894   4.638  23.982  0.00  0.00    -0.247 N 
ATOM     26  H   UNL     1      10.121   5.617  23.835  0.00  0.00    +0.288 HD
ATOM     27  H   UNL     1       8.919   4.430  23.800  0.00  0.00    +0.288 HD
ENDBRANCH  19  22
ENDBRANCH  15  16
ENDBRANCH   2  15
TORSDOF 6
ENDMDL
MODEL 7
REMARK VINA RESULT:      -6.3      2.946      7.500
REMARK  Name = 
REMARK  7 active torsions:
REMARK  status: ('A' for Active; 'I' for Inactive)
REMARK    1  A    between atoms: C_2  and  C_12
REMARK    2  A    between atoms: C_7  and  C_9
REMARK    3  A    between atoms: C_9  and  C_10
REMARK    4  A    between atoms: C_10  and  C_11
REMARK    5  A    between atoms: N_14  and  C_15
REMARK    6  A    between atoms: C_15  and  C_16
REMARK    7  A    between atoms: C_19  and  C_22
REMARK                            x       y       z     vdW  Elec       q    Type
REMARK                         _______ _______ _______ _____ _____    ______ ____
ROOT
ATOM      1  C   UNL     1       9.812  -0.411  23.719  0.00  0.00    +0.234 C 
ATOM      2  N   UNL     1       9.527  -1.681  23.268  0.00  0.00    -0.310 N 
ATOM      3  H   UNL     1       8.965  -1.775  22.431  0.00  0.00    +0.149 HD
ATOM      4  O   UNL     1      10.507  -0.195  24.710  0.00  0.00    -0.274 OA
ENDROOT
BRANCH   1   5
ATOM      5  C   UNL     1       9.065   0.732  23.004  0.00  0.00    +0.162 C 
ATOM      6  N   UNL     1       8.272   1.565  23.916  0.00  0.00    -0.290 N 
ATOM      7  C   UNL     1       6.970   1.338  24.319  0.00  0.00    +0.216 C 
ATOM      8  O   UNL     1       6.336   2.201  24.929  0.00  0.00    -0.276 OA
ATOM      9  C   UNL     1       8.852   2.890  24.067  0.00  0.00    +0.108 C 
ATOM     10  C   UNL     1      10.220   2.807  23.409  0.00  0.00    +0.021 C 
ATOM     11  C   UNL     1      10.045   1.717  22.361  0.00  0.00    +0.033 C 
BRANCH   7  12
ATOM     12  C   UNL     1       6.373  -0.037  24.057  0.00  0.00    +0.096 C 
BRANCH  12  13
ATOM     13  C   UNL     1       6.528  -0.962  25.268  0.00  0.00    +0.006 C 
ATOM     14  C   UNL     1       5.245  -1.728  25.551  0.00  0.00    +0.004 C 
ENDBRANCH  12  13
ENDBRANCH   7  12
ENDBRANCH   1   5
BRANCH   2  15
ATOM     15  C   UNL     1      10.022  -2.872  23.923  0.00  0.00    +0.139 C 
BRANCH  15  16
ATOM     16  C   UNL     1       8.895  -3.747  24.421  0.00  0.00    -0.030 A 
ATOM     17  C   UNL     1       8.884  -4.198  25.749  0.00  0.00    +0.006 A 
ATOM     18  C   UNL     1       7.821  -4.963  26.239  0.00  0.00    +0.016 A 
ATOM     19  C   UNL     1       6.747  -5.283  25.404  0.00  0.00    +0.065 A 
ATOM     20  C   UNL     1       6.762  -4.864  24.068  0.00  0.00    +0.016 A 
ATOM     21  C   UNL     1       7.826  -4.094  23.583  0.00  0.00    +0.006 A 
BRANCH  19  22
ATOM     22  C   UNL     1       5.589  -6.049  25.948  0.00  0.00    +0.308 C 
ATOM     23  N   UNL     1       5.631  -6.677  27.081  0.00  0.00    -0.099 NA
ATOM     24  H   UNL     1       6.557  -6.616  27.508  0.00  0.00    +0.363 HD
ATOM     25  N   UNL     1       4.418  -6.130  25.257  0.00  0.00    -0.247 N 
ATOM     26  H   UNL     1       3.681  -6.516  25.839  0.00  0.00    +0.288 HD
ATOM     27  H   UNL     1       4.129  -5.292  24.764  0.00  0.00    +0.288 HD
ENDBRANCH  19  22
ENDBRANCH  15  16
ENDBRANCH   2  15
TORSDOF 6
ENDMDL
MODEL 8
REMARK VINA RESULT:      -6.2      3.179      5.371
REMARK  Name = 
REMARK  7 active torsions:
REMARK  status: ('A' for Active; 'I' for Inactive)
REMARK    1  A    between atoms: C_2  and  C_12
REMARK    2  A    between atoms: C_7  and  C_9
REMARK    3  A    between atoms: C_9  and  C_10
REMARK    4  A    between atoms: C_10  and  C_11
REMARK    5  A    between atoms: N_14  and  C_15
REMARK    6  A    between atoms: C_15  and  C_16
REMARK    7  A    between atoms: C_19  and  C_22
REMARK                            x       y       z     vdW  Elec       q    Type
REMARK                         _______ _______ _______ _____ _____    ______ ____
ROOT
ATOM      1  C   UNL     1       7.224   0.315  23.672  0.00  0.00    +0.234 C 
ATOM      2  N   UNL     1       7.551   1.528  24.237  0.00  0.00    -0.310 N 
ATOM      3  H   UNL     1       7.859   1.537  25.202  0.00  0.00    +0.149 HD
ATOM      4  O   UNL     1       6.865   0.199  22.501  0.00  0.00    -0.274 OA
ENDROOT
BRANCH   1   5
ATOM      5  C   UNL     1       7.169  -0.880  24.645  0.00  0.00    +0.162 C 
ATOM      6  N   UNL     1       8.435  -1.619  24.726  0.00  0.00    -0.290 N 
ATOM      7  C   UNL     1       8.837  -2.658  23.909  0.00  0.00    +0.216 C 
ATOM      8  O   UNL     1       9.829  -3.335  24.186  0.00  0.00    -0.276 OA
ATOM      9  C   UNL     1       9.088  -1.418  26.010  0.00  0.00    +0.108 C 
ATOM     10  C   UNL     1       8.315  -0.294  26.682  0.00  0.00    +0.021 C 
ATOM     11  C   UNL     1       6.921  -0.413  26.082  0.00  0.00    +0.033 C 
BRANCH   7  12
ATOM     12  C   UNL     1       8.065  -2.888  22.617  0.00  0.00    +0.096 C 
BRANCH  12  13
ATOM     13  C   UNL     1       7.410  -4.271  22.589  0.00  0.00    +0.006 C 
ATOM     14  C   UNL     1       6.592  -4.526  23.845  0.00  0.00    +0.004 C 
ENDBRANCH  12  13
ENDBRANCH   7  12
ENDBRANCH   1   5
BRANCH   2  15
ATOM     15  C   UNL     1       7.500   2.771  23.500  0.00  0.00    +0.139 C 
BRANCH  15  16
ATOM     16  C   UNL     1       8.837   3.476  23.497  0.00  0.00    -0.030 A 
ATOM     17  C   UNL     1       8.911   4.853  23.757  0.00  0.00    +0.006 A 
ATOM     18  C   UNL     1      10.146   5.507  23.811  0.00  0.00    +0.016 A 
ATOM     19  C   UNL     1      11.328   4.789  23.613  0.00  0.00    +0.065 A 
ATOM     20  C   UNL     1      11.263   3.421  23.324  0.00  0.00    +0.016 A 
ATOM     21  C   UNL     1      10.026   2.767  23.274  0.00  0.00    +0.006 A 
BRANCH  19  22
ATOM     22  C   UNL     1      12.643   5.482  23.730  0.00  0.00    +0.308 C 
ATOM     23  N   UNL     1      13.726   5.037  23.175  0.00  0.00    -0.099 NA
ATOM     24  H   UNL     1      13.564   4.145  22.703  0.00  0.00    +0.363 HD
ATOM     25  N   UNL     1      12.764   6.632  24.451  0.00  0.00    -0.247 N 
ATOM     26  H   UNL     1      13.661   7.074  24.277  0.00  0.00    +0.288 HD
ATOM     27  H   UNL     1      11.989   7.282  24.392  0.00  0.00    +0.288 HD
ENDBRANCH  19  22
ENDBRANCH  15  16
ENDBRANCH   2  15
TORSDOF 6
ENDMDL
MODEL 9
REMARK VINA RESULT:      -6.2      4.140      7.962
REMARK  Name = 
REMARK  7 active torsions:
REMARK  status: ('A' for Active; 'I' for Inactive)
REMARK    1  A    between atoms: C_2  and  C_12
REMARK    2  A    between atoms: C_7  and  C_9
REMARK    3  A    between atoms: C_9  and  C_10
REMARK    4  A    between atoms: C_10  and  C_11
REMARK    5  A    between atoms: N_14  and  C_15
REMARK    6  A    between atoms: C_15  and  C_16
REMARK    7  A    between atoms: C_19  and  C_22
REMARK                            x       y       z     vdW  Elec       q    Type
REMARK                         _______ _______ _______ _____ _____    ______ ____
ROOT
ATOM      1  C   UNL     1       8.720   2.384  22.813  0.00  0.00    +0.234 C 
ATOM      2  N   UNL     1       8.231   1.376  22.012  0.00  0.00    -0.310 N 
ATOM      3  H   UNL     1       7.251   1.404  21.754  0.00  0.00    +0.149 HD
ATOM      4  O   UNL     1       9.899   2.450  23.157  0.00  0.00    -0.274 OA
ENDROOT
BRANCH   1   5
ATOM      5  C   UNL     1       7.663   3.340  23.400  0.00  0.00    +0.162 C 
ATOM      6  N   UNL     1       7.900   3.670  24.811  0.00  0.00    -0.290 N 
ATOM      7  C   UNL     1       7.462   2.955  25.910  0.00  0.00    +0.216 C 
ATOM      8  O   UNL     1       7.548   3.424  27.046  0.00  0.00    -0.276 OA
ATOM      9  C   UNL     1       8.320   5.052  24.972  0.00  0.00    +0.108 C 
ATOM     10  C   UNL     1       8.602   5.552  23.564  0.00  0.00    +0.021 C 
ATOM     11  C   UNL     1       7.692   4.698  22.693  0.00  0.00    +0.033 C 
BRANCH   7  12
ATOM     12  C   UNL     1       6.944   1.542  25.680  0.00  0.00    +0.096 C 
BRANCH  12  13
ATOM     13  C   UNL     1       8.072   0.509  25.744  0.00  0.00    +0.006 C 
ATOM     14  C   UNL     1       7.711  -0.653  26.657  0.00  0.00    +0.004 C 
ENDBRANCH  12  13
ENDBRANCH   7  12
ENDBRANCH   1   5
BRANCH   2  15
ATOM     15  C   UNL     1       9.063   0.307  21.505  0.00  0.00    +0.139 C 
BRANCH  15  16
ATOM     16  C   UNL     1       9.006  -0.916  22.389  0.00  0.00    -0.030 A 
ATOM     17  C   UNL     1       7.820  -1.659  22.494  0.00  0.00    +0.006 A 
ATOM     18  C   UNL     1       7.769  -2.824  23.265  0.00  0.00    +0.016 A 
ATOM     19  C   UNL     1       8.910  -3.266  23.940  0.00  0.00    +0.065 A 
ATOM     20  C   UNL     1      10.089  -2.517  23.868  0.00  0.00    +0.016 A 
ATOM     21  C   UNL     1      10.139  -1.353  23.090  0.00  0.00    +0.006 A 
BRANCH  19  22
ATOM     22  C   UNL     1       8.863  -4.541  24.714  0.00  0.00    +0.308 C 
ATOM     23  N   UNL     1       9.887  -5.325  24.842  0.00  0.00    -0.099 NA
ATOM     24  H   UNL     1      10.690  -4.980  24.312  0.00  0.00    +0.363 HD
ATOM     25  N   UNL     1       7.713  -4.946  25.323  0.00  0.00    -0.247 N 
ATOM     26  H   UNL     1       7.894  -5.718  25.957  0.00  0.00    +0.288 HD
ATOM     27  H   UNL     1       7.148  -4.218  25.744  0.00  0.00    +0.288 HD
ENDBRANCH  19  22
ENDBRANCH  15  16
ENDBRANCH   2  15
TORSDOF 6
ENDMDL
