MODEL 1
REMARK VINA RESULT:      -4.1      0.000      0.000
REMARK  Name = 
REMARK  8 active torsions:
REMARK  status: ('A' for Active; 'I' for Inactive)
REMARK    1  A    between atoms: C_1  and  C_2
REMARK    2  A    between atoms: C_2  and  C_3
REMARK    3  A    between atoms: C_3  and  C_5
REMARK    4  A    between atoms: C_5  and  C_6
REMARK    5  A    between atoms: C_6  and  C_7
REMARK    6  A    between atoms: C_7  and  C_8
REMARK    7  A    between atoms: C_7  and  C_9
REMARK    8  A    between atoms: C_7  and  O_10
REMARK                            x       y       z     vdW  Elec       q    Type
REMARK                         _______ _______ _______ _____ _____    ______ ____
ROOT
ATOM      1  C   UNL     1       9.594  -0.025  21.617  0.00  0.00    +0.041 C 
ENDROOT
BRANCH   1   2
ATOM      2  C   UNL     1       9.263   1.404  22.086  0.00  0.00    +0.061 C 
ATOM      3  C   UNL     1       9.341   1.540  23.608  0.00  0.00    +0.041 C 
ATOM      4  C   UNL     1       7.904   1.889  21.579  0.00  0.00    +0.041 C 
BRANCH   2   5
ATOM      5  O   UNL     1      10.268   2.273  21.549  0.00  0.00    -0.389 OA
ATOM      6  H   UNL     1      10.978   1.721  21.178  0.00  0.00    +0.210 HD
ENDBRANCH   2   5
ENDBRANCH   1   2
BRANCH   1   7
ATOM      7  C   UNL     1      10.416  -0.855  22.596  0.00  0.00    +0.077 C 
BRANCH   7   8
ATOM      8  C   UNL     1       9.642  -2.084  23.026  0.00  0.00    +0.133 C 
ATOM      9  O   UNL     1      10.150  -2.912  23.781  0.00  0.00    -0.297 OA
BRANCH   8  11
ATOM     10  C   UNL     1       7.186  -1.951  23.607  0.00  0.00    +0.012 C 
ATOM     11  C   UNL     1       8.215  -2.200  22.519  0.00  0.00    +0.071 C 
ENDBRANCH   8  11
ENDBRANCH   7   8
ENDBRANCH   1   7
TORSDOF 5
ENDMDL
MODEL 2
REMARK VINA RESULT:      -3.9      2.225      5.155
REMARK  Name = 
REMARK  8 active torsions:
REMARK  status: ('A' for Active; 'I' for Inactive)
REMARK    1  A    between atoms: C_1  and  C_2
REMARK    2  A    between atoms: C_2  and  C_3
REMARK    3  A    between atoms: C_3  and  C_5
REMARK    4  A    between atoms: C_5  and  C_6
REMARK    5  A    between atoms: C_6  and  C_7
REMARK    6  A    between atoms: C_7  and  C_8
REMARK    7  A    between atoms: C_7  and  C_9
REMARK    8  A    between atoms: C_7  and  O_10
REMARK                            x       y       z     vdW  Elec       q    Type
REMARK                         _______ _______ _______ _____ _____    ______ ____
ROOT
ATOM      1  C   UNL     1       9.444  -2.966  24.464  0.00  0.00    +0.041 C 
ENDROOT
BRANCH   1   2
ATOM      2  C   UNL     1       9.053  -4.403  24.856  0.00  0.00    +0.061 C 
ATOM      3  C   UNL     1       8.093  -5.032  23.843  0.00  0.00    +0.041 C 
ATOM      4  C   UNL     1       8.467  -4.489  26.266  0.00  0.00    +0.041 C 
BRANCH   2   5
ATOM      5  O   UNL     1      10.247  -5.193  24.828  0.00  0.00    -0.389 OA
ATOM      6  H   UNL     1      10.048  -6.026  24.367  0.00  0.00    +0.210 HD
ENDBRANCH   2   5
ENDBRANCH   1   2
BRANCH   1   7
ATOM      7  C   UNL     1       8.731  -2.412  23.236  0.00  0.00    +0.077 C 
BRANCH   7   8
ATOM      8  C   UNL     1       9.674  -1.549  22.424  0.00  0.00    +0.133 C 
ATOM      9  O   UNL     1      10.869  -1.835  22.339  0.00  0.00    -0.297 OA
BRANCH   8  11
ATOM     10  C   UNL     1       9.868   0.907  21.864  0.00  0.00    +0.012 C 
ATOM     11  C   UNL     1       9.059  -0.366  21.697  0.00  0.00    +0.071 C 
ENDBRANCH   8  11
ENDBRANCH   7   8
ENDBRANCH   1   7
TORSDOF 5
ENDMDL
MODEL 3
REMARK VINA RESULT:      -3.8      1.883      2.745
REMARK  Name = 
REMARK  8 active torsions:
REMARK  status: ('A' for Active; 'I' for Inactive)
REMARK    1  A    between atoms: C_1  and  C_2
REMARK    2  A    between atoms: C_2  and  C_3
REMARK    3  A    between atoms: C_3  and  C_5
REMARK    4  A    between atoms: C_5  and  C_6
REMARK    5  A    between atoms: C_6  and  C_7
REMARK    6  A    between atoms: C_7  and  C_8
REMARK    7  A    between atoms: C_7  and  C_9
REMARK    8  A    between atoms: C_7  and  O_10
REMARK                            x       y       z     vdW  Elec       q    Type
REMARK                         _______ _______ _______ _____ _____    ______ ____
ROOT
ATOM      1  C   UNL     1       8.517  -1.325  23.245  0.00  0.00    +0.041 C 
ENDROOT
BRANCH   1   2
ATOM      2  C   UNL     1       9.739  -0.671  22.573  0.00  0.00    +0.061 C 
ATOM      3  C   UNL     1      10.609   0.088  23.578  0.00  0.00    +0.041 C 
ATOM      4  C   UNL     1       9.351   0.243  21.410  0.00  0.00    +0.041 C 
BRANCH   2   5
ATOM      5  O   UNL     1      10.553  -1.727  22.049  0.00  0.00    -0.389 OA
ATOM      6  H   UNL     1       9.975  -2.481  21.843  0.00  0.00    +0.210 HD
ENDBRANCH   2   5
ENDBRANCH   1   2
BRANCH   1   7
ATOM      7  C   UNL     1       7.997  -2.584  22.561  0.00  0.00    +0.077 C 
BRANCH   7   8
ATOM      8  C   UNL     1       8.289  -3.803  23.411  0.00  0.00    +0.133 C 
ATOM      9  O   UNL     1       9.298  -3.850  24.115  0.00  0.00    -0.297 OA
BRANCH   8  11
ATOM     10  C   UNL     1       7.154  -5.579  22.016  0.00  0.00    +0.012 C 
ATOM     11  C   UNL     1       7.257  -4.917  23.379  0.00  0.00    +0.071 C 
ENDBRANCH   8  11
ENDBRANCH   7   8
ENDBRANCH   1   7
TORSDOF 5
ENDMDL
MODEL 4
REMARK VINA RESULT:      -3.7      1.677      4.334
REMARK  Name = 
REMARK  8 active torsions:
REMARK  status: ('A' for Active; 'I' for Inactive)
REMARK    1  A    between atoms: C_1  and  C_2
REMARK    2  A    between atoms: C_2  and  C_3
REMARK    3  A    between atoms: C_3  and  C_5
REMARK    4  A    between atoms: C_5  and  C_6
REMARK    5  A    between atoms: C_6  and  C_7
REMARK    6  A    between atoms: C_7  and  C_8
REMARK    7  A    between atoms: C_7  and  C_9
REMARK    8  A    between atoms: C_7  and  O_10
REMARK                            x       y       z     vdW  Elec       q    Type
REMARK                         _______ _______ _______ _____ _____    ______ ____
ROOT
ATOM      1  C   UNL     1       9.771   0.779  21.804  0.00  0.00    +0.041 C 
ENDROOT
BRANCH   1   2
ATOM      2  C   UNL     1       9.620  -0.600  22.473  0.00  0.00    +0.061 C 
ATOM      3  C   UNL     1       8.156  -1.036  22.564  0.00  0.00    +0.041 C 
ATOM      4  C   UNL     1      10.277  -0.658  23.853  0.00  0.00    +0.041 C 
BRANCH   2   5
ATOM      5  O   UNL     1      10.276  -1.556  21.633  0.00  0.00    -0.389 OA
ATOM      6  H   UNL     1      10.164  -2.436  22.032  0.00  0.00    +0.210 HD
ENDBRANCH   2   5
ENDBRANCH   1   2
BRANCH   1   7
ATOM      7  C   UNL     1       8.462   1.478  21.457  0.00  0.00    +0.077 C 
BRANCH   7   8
ATOM      8  C   UNL     1       8.297   2.733  22.289  0.00  0.00    +0.133 C 
ATOM      9  O   UNL     1       7.364   3.507  22.078  0.00  0.00    -0.297 OA
BRANCH   8  11
ATOM     10  C   UNL     1       8.709   2.696  24.782  0.00  0.00    +0.012 C 
ATOM     11  C   UNL     1       9.303   2.944  23.407  0.00  0.00    +0.071 C 
ENDBRANCH   8  11
ENDBRANCH   7   8
ENDBRANCH   1   7
TORSDOF 5
ENDMDL
MODEL 5
REMARK VINA RESULT:      -3.7      1.783      4.192
REMARK  Name = 
REMARK  8 active torsions:
REMARK  status: ('A' for Active; 'I' for Inactive)
REMARK    1  A    between atoms: C_1  and  C_2
REMARK    2  A    between atoms: C_2  and  C_3
REMARK    3  A    between atoms: C_3  and  C_5
REMARK    4  A    between atoms: C_5  and  C_6
REMARK    5  A    between atoms: C_6  and  C_7
REMARK    6  A    between atoms: C_7  and  C_8
REMARK    7  A    between atoms: C_7  and  C_9
REMARK    8  A    between atoms: C_7  and  O_10
REMARK                            x       y       z     vdW  Elec       q    Type
REMARK                         _______ _______ _______ _____ _____    ______ ____
ROOT
ATOM      1  C   UNL     1       9.770  -0.534  24.766  0.00  0.00    +0.041 C 
ENDROOT
BRANCH   1   2
ATOM      2  C   UNL     1       9.454  -1.645  23.748  0.00  0.00    +0.061 C 
ATOM      3  C   UNL     1       9.452  -3.032  24.395  0.00  0.00    +0.041 C 
ATOM      4  C   UNL     1      10.397  -1.623  22.543  0.00  0.00    +0.041 C 
BRANCH   2   5
ATOM      5  O   UNL     1       8.124  -1.419  23.269  0.00  0.00    -0.389 OA
ATOM      6  H   UNL     1       7.756  -2.273  22.983  0.00  0.00    +0.210 HD
ENDBRANCH   2   5
ENDBRANCH   1   2
BRANCH   1   7
ATOM      7  C   UNL     1      10.752   0.527  24.284  0.00  0.00    +0.077 C 
BRANCH   7   8
ATOM      8  C   UNL     1      10.007   1.751  23.793  0.00  0.00    +0.133 C 
ATOM      9  O   UNL     1       9.434   2.496  24.589  0.00  0.00    -0.297 OA
BRANCH   8  11
ATOM     10  C   UNL     1       8.772   1.614  21.593  0.00  0.00    +0.012 C 
ATOM     11  C   UNL     1      10.052   2.023  22.300  0.00  0.00    +0.071 C 
ENDBRANCH   8  11
ENDBRANCH   7   8
ENDBRANCH   1   7
TORSDOF 5
ENDMDL
MODEL 6
REMARK VINA RESULT:      -3.7      5.469      6.707
REMARK  Name = 
REMARK  8 active torsions:
REMARK  status: ('A' for Active; 'I' for Inactive)
REMARK    1  A    between atoms: C_1  and  C_2
REMARK    2  A    between atoms: C_2  and  C_3
REMARK    3  A    between atoms: C_3  and  C_5
REMARK    4  A    between atoms: C_5  and  C_6
REMARK    5  A    between atoms: C_6  and  C_7
REMARK    6  A    between atoms: C_7  and  C_8
REMARK    7  A    between atoms: C_7  and  C_9
REMARK    8  A    between atoms: C_7  and  O_10
REMARK                            x       y       z     vdW  Elec       q    Type
REMARK                         _______ _______ _______ _____ _____    ______ ____
ROOT
ATOM      1  C   UNL     1       6.303  -5.580  25.505  0.00  0.00    +0.041 C 
ENDROOT
BRANCH   1   2
ATOM      2  C   UNL     1       7.005  -5.148  26.806  0.00  0.00    +0.061 C 
ATOM      3  C   UNL     1       6.224  -5.579  28.050  0.00  0.00    +0.041 C 
ATOM      4  C   UNL     1       7.287  -3.645  26.851  0.00  0.00    +0.041 C 
BRANCH   2   5
ATOM      5  O   UNL     1       8.262  -5.832  26.860  0.00  0.00    -0.389 OA
ATOM      6  H   UNL     1       8.899  -5.260  27.323  0.00  0.00    +0.210 HD
ENDBRANCH   2   5
ENDBRANCH   1   2
BRANCH   1   7
ATOM      7  C   UNL     1       6.433  -4.601  24.344  0.00  0.00    +0.077 C 
BRANCH   7   8
ATOM      8  C   UNL     1       7.542  -5.037  23.409  0.00  0.00    +0.133 C 
ATOM      9  O   UNL     1       8.625  -5.416  23.857  0.00  0.00    -0.297 OA
BRANCH   8  11
ATOM     10  C   UNL     1       6.128  -6.009  21.554  0.00  0.00    +0.012 C 
ATOM     11  C   UNL     1       7.225  -5.026  21.924  0.00  0.00    +0.071 C 
ENDBRANCH   8  11
ENDBRANCH   7   8
ENDBRANCH   1   7
TORSDOF 5
ENDMDL
MODEL 7
REMARK VINA RESULT:      -3.7      2.792      3.871
REMARK  Name = 
REMARK  8 active torsions:
REMARK  status: ('A' for Active; 'I' for Inactive)
REMARK    1  A    between atoms: C_1  and  C_2
REMARK    2  A    between atoms: C_2  and  C_3
REMARK    3  A    between atoms: C_3  and  C_5
REMARK    4  A    between atoms: C_5  and  C_6
REMARK    5  A    between atoms: C_6  and  C_7
REMARK    6  A    between atoms: C_7  and  C_8
REMARK    7  A    between atoms: C_7  and  C_9
REMARK    8  A    between atoms: C_7  and  O_10
REMARK                            x       y       z     vdW  Elec       q    Type
REMARK                         _______ _______ _______ _____ _____    ______ ____
ROOT
ATOM      1  C   UNL     1       7.822  -1.985  22.542  0.00  0.00    +0.041 C 
ENDROOT
BRANCH   1   2
ATOM      2  C   UNL     1       9.275  -1.525  22.761  0.00  0.00    +0.061 C 
ATOM      3  C   UNL     1       9.993  -2.372  23.814  0.00  0.00    +0.041 C 
ATOM      4  C   UNL     1       9.375  -0.041  23.116  0.00  0.00    +0.041 C 
BRANCH   2   5
ATOM      5  O   UNL     1       9.978  -1.730  21.529  0.00  0.00    -0.389 OA
ATOM      6  H   UNL     1       9.753  -2.616  21.196  0.00  0.00    +0.210 HD
ENDBRANCH   2   5
ENDBRANCH   1   2
BRANCH   1   7
ATOM      7  C   UNL     1       7.613  -3.495  22.546  0.00  0.00    +0.077 C 
BRANCH   7   8
ATOM      8  C   UNL     1       6.309  -3.848  21.860  0.00  0.00    +0.133 C 
ATOM      9  O   UNL     1       5.427  -3.001  21.717  0.00  0.00    -0.297 OA
BRANCH   8  11
ATOM     10  C   UNL     1       7.174  -6.220  21.967  0.00  0.00    +0.012 C 
ATOM     11  C   UNL     1       6.182  -5.265  21.327  0.00  0.00    +0.071 C 
ENDBRANCH   8  11
ENDBRANCH   7   8
ENDBRANCH   1   7
TORSDOF 5
ENDMDL
MODEL 8
REMARK VINA RESULT:      -3.6      1.380      1.794
REMARK  Name = 
REMARK  8 active torsions:
REMARK  status: ('A' for Active; 'I' for Inactive)
REMARK    1  A    between atoms: C_1  and  C_2
REMARK    2  A    between atoms: C_2  and  C_3
REMARK    3  A    between atoms: C_3  and  C_5
REMARK    4  A    between atoms: C_5  and  C_6
REMARK    5  A    between atoms: C_6  and  C_7
REMARK    6  A    between atoms: C_7  and  C_8
REMARK    7  A    between atoms: C_7  and  C_9
REMARK    8  A    between atoms: C_7  and  O_10
REMARK                            x       y       z     vdW  Elec       q    Type
REMARK                         _______ _______ _______ _____ _____    ______ ____
ROOT
ATOM      1  C   UNL     1      10.133   1.140  22.108  0.00  0.00    +0.041 C 
ENDROOT
BRANCH   1   2
ATOM      2  C   UNL     1       9.663   2.310  22.991  0.00  0.00    +0.061 C 
ATOM      3  C   UNL     1      10.813   3.256  23.349  0.00  0.00    +0.041 C 
ATOM      4  C   UNL     1       8.950   1.840  24.260  0.00  0.00    +0.041 C 
BRANCH   2   5
ATOM      5  O   UNL     1       8.731   3.078  22.222  0.00  0.00    -0.389 OA
ATOM      6  H   UNL     1       9.212   3.821  21.817  0.00  0.00    +0.210 HD
ENDBRANCH   2   5
ENDBRANCH   1   2
BRANCH   1   7
ATOM      7  C   UNL     1       9.028   0.205  21.630  0.00  0.00    +0.077 C 
BRANCH   7   8
ATOM      8  C   UNL     1       9.295  -1.210  22.100  0.00  0.00    +0.133 C 
ATOM      9  O   UNL     1      10.433  -1.677  22.065  0.00  0.00    -0.297 OA
BRANCH   8  11
ATOM     10  C   UNL     1       6.934  -1.079  22.990  0.00  0.00    +0.012 C 
ATOM     11  C   UNL     1       8.107  -1.980  22.649  0.00  0.00    +0.071 C 
ENDBRANCH   8  11
ENDBRANCH   7   8
ENDBRANCH   1   7
TORSDOF 5
ENDMDL
MODEL 9
REMARK VINA RESULT:      -3.6      1.769      4.104
REMARK  Name = 
REMARK  8 active torsions:
REMARK  status: ('A' for Active; 'I' for Inactive)
REMARK    1  A    between atoms: C_1  and  C_2
REMARK    2  A    between atoms: C_2  and  C_3
REMARK    3  A    between atoms: C_3  and  C_5
REMARK    4  A    between atoms: C_5  and  C_6
REMARK    5  A    between atoms: C_6  and  C_7
REMARK    6  A    between atoms: C_7  and  C_8
REMARK    7  A    between atoms: C_7  and  C_9
REMARK    8  A    between atoms: C_7  and  O_10
REMARK                            x       y       z     vdW  Elec       q    Type
REMARK                         _______ _______ _______ _____ _____    ______ ____
ROOT
ATOM      1  C   UNL     1       8.833  -0.012  22.625  0.00  0.00    +0.041 C 
ENDROOT
BRANCH   1   2
ATOM      2  C   UNL     1       9.223  -1.498  22.522  0.00  0.00    +0.061 C 
ATOM      3  C   UNL     1       8.021  -2.385  22.187  0.00  0.00    +0.041 C 
ATOM      4  C   UNL     1       9.926  -2.010  23.780  0.00  0.00    +0.041 C 
BRANCH   2   5
ATOM      5  O   UNL     1      10.137  -1.625  21.426  0.00  0.00    -0.389 OA
ATOM      6  H   UNL     1      11.042  -1.620  21.784  0.00  0.00    +0.210 HD
ENDBRANCH   2   5
ENDBRANCH   1   2
BRANCH   1   7
ATOM      7  C   UNL     1       9.947   0.975  22.294  0.00  0.00    +0.077 C 
BRANCH   7   8
ATOM      8  C   UNL     1      10.366   1.732  23.536  0.00  0.00    +0.133 C 
ATOM      9  O   UNL     1      11.169   1.240  24.329  0.00  0.00    -0.297 OA
BRANCH   8  11
ATOM     10  C   UNL     1       8.692   3.174  24.762  0.00  0.00    +0.012 C 
ATOM     11  C   UNL     1       9.787   3.125  23.712  0.00  0.00    +0.071 C 
ENDBRANCH   8  11
ENDBRANCH   7   8
ENDBRANCH   1   7
TORSDOF 5
ENDMDL
