MODEL 1
REMARK VINA RESULT:      -6.3      0.000      0.000
REMARK  Name = 
REMARK  4 active torsions:
REMARK  status: ('A' for Active; 'I' for Inactive)
REMARK    1  A    between atoms: C_1  and  C_2
REMARK    2  A    between atoms: C_3  and  C_7
REMARK    3  A    between atoms: N_9  and  C_10
REMARK    4  A    between atoms: C_13  and  C_16
REMARK                            x       y       z     vdW  Elec       q    Type
REMARK                         _______ _______ _______ _____ _____    ______ ____
ROOT
ATOM      1  C   UNL     1       8.261  -3.637  25.056  0.00  0.00    +0.253 C 
ATOM      2  N   UNL     1       7.922  -2.323  25.347  0.00  0.00    -0.281 N 
ATOM      3  H   UNL     1       7.200  -2.150  26.032  0.00  0.00    +0.155 HD
ATOM      4  O   UNL     1       9.113  -3.959  24.239  0.00  0.00    -0.270 OA
ENDROOT
BRANCH   1  10
ATOM      5  C   UNL     1       5.690  -5.334  24.013  0.00  0.00    +0.090 C 
ATOM      6  C   UNL     1       6.457  -5.364  25.281  0.00  0.00    +0.146 A 
ATOM      7  O   UNL     1       6.017  -6.259  26.205  0.00  0.00    -0.359 OA
ATOM      8  N   UNL     1       6.816  -6.189  27.331  0.00  0.00    -0.086 NA
ATOM      9  C   UNL     1       7.723  -5.246  27.060  0.00  0.00    +0.170 A 
ATOM     10  C   UNL     1       7.550  -4.675  25.782  0.00  0.00    +0.098 A 
ENDBRANCH   1  10
BRANCH   2  11
ATOM     11  C   UNL     1       8.525  -1.171  24.767  0.00  0.00    +0.034 A 
ATOM     12  C   UNL     1       8.054  -0.708  23.533  0.00  0.00    +0.024 A 
ATOM     13  C   UNL     1       8.603   0.444  22.944  0.00  0.00    +0.014 A 
ATOM     14  C   UNL     1       9.637   1.154  23.576  0.00  0.00    +0.055 A 
ATOM     15  C   UNL     1      10.115   0.677  24.797  0.00  0.00    +0.014 A 
ATOM     16  C   UNL     1       9.567  -0.466  25.379  0.00  0.00    +0.024 A 
BRANCH  14  17
ATOM     17  C   UNL     1      10.222   2.404  22.970  0.00  0.00    +0.417 C 
ATOM     18  F   UNL     1       9.340   3.441  22.959  0.00  0.00    -0.166 F 
ATOM     19  F   UNL     1      10.618   2.229  21.682  0.00  0.00    -0.166 F 
ATOM     20  F   UNL     1      11.322   2.864  23.638  0.00  0.00    -0.166 F 
ENDBRANCH  14  17
ENDBRANCH   2  11
TORSDOF 3
ENDMDL
MODEL 2
REMARK VINA RESULT:      -6.2      1.621      2.052
REMARK  Name = 
REMARK  4 active torsions:
REMARK  status: ('A' for Active; 'I' for Inactive)
REMARK    1  A    between atoms: C_1  and  C_2
REMARK    2  A    between atoms: C_3  and  C_7
REMARK    3  A    between atoms: N_9  and  C_10
REMARK    4  A    between atoms: C_13  and  C_16
REMARK                            x       y       z     vdW  Elec       q    Type
REMARK                         _______ _______ _______ _____ _____    ______ ____
ROOT
ATOM      1  C   UNL     1       7.843  -2.556  25.631  0.00  0.00    +0.253 C 
ATOM      2  N   UNL     1       8.611  -1.545  26.189  0.00  0.00    -0.281 N 
ATOM      3  H   UNL     1       8.881  -1.622  27.160  0.00  0.00    +0.155 HD
ATOM      4  O   UNL     1       7.455  -2.560  24.470  0.00  0.00    -0.270 OA
ENDROOT
BRANCH   1  10
ATOM      5  C   UNL     1       9.493  -5.336  25.993  0.00  0.00    +0.090 C 
ATOM      6  C   UNL     1       8.241  -4.833  26.605  0.00  0.00    +0.146 A 
ATOM      7  O   UNL     1       7.643  -5.679  27.485  0.00  0.00    -0.359 OA
ATOM      8  N   UNL     1       6.495  -5.091  27.984  0.00  0.00    -0.086 NA
ATOM      9  C   UNL     1       6.425  -3.898  27.387  0.00  0.00    +0.170 A 
ATOM     10  C   UNL     1       7.493  -3.670  26.495  0.00  0.00    +0.098 A 
ENDBRANCH   1  10
BRANCH   2  11
ATOM     11  C   UNL     1       9.080  -0.392  25.498  0.00  0.00    +0.034 A 
ATOM     12  C   UNL     1      10.318  -0.449  24.847  0.00  0.00    +0.024 A 
ATOM     13  C   UNL     1      10.800   0.658  24.129  0.00  0.00    +0.014 A 
ATOM     14  C   UNL     1      10.055   1.847  24.050  0.00  0.00    +0.055 A 
ATOM     15  C   UNL     1       8.830   1.904  24.716  0.00  0.00    +0.014 A 
ATOM     16  C   UNL     1       8.355   0.802  25.428  0.00  0.00    +0.024 A 
BRANCH  14  17
ATOM     17  C   UNL     1      10.545   3.036  23.264  0.00  0.00    +0.417 C 
ATOM     18  F   UNL     1      10.666   2.771  21.934  0.00  0.00    -0.166 F 
ATOM     19  F   UNL     1      11.766   3.472  23.676  0.00  0.00    -0.166 F 
ATOM     20  F   UNL     1       9.717   4.119  23.351  0.00  0.00    -0.166 F 
ENDBRANCH  14  17
ENDBRANCH   2  11
TORSDOF 3
ENDMDL
MODEL 3
REMARK VINA RESULT:      -6.1      0.999      1.570
REMARK  Name = 
REMARK  4 active torsions:
REMARK  status: ('A' for Active; 'I' for Inactive)
REMARK    1  A    between atoms: C_1  and  C_2
REMARK    2  A    between atoms: C_3  and  C_7
REMARK    3  A    between atoms: N_9  and  C_10
REMARK    4  A    between atoms: C_13  and  C_16
REMARK                            x       y       z     vdW  Elec       q    Type
REMARK                         _______ _______ _______ _____ _____    ______ ____
ROOT
ATOM      1  C   UNL     1       7.346  -3.912  24.182  0.00  0.00    +0.253 C 
ATOM      2  N   UNL     1       7.188  -2.629  24.688  0.00  0.00    -0.281 N 
ATOM      3  H   UNL     1       6.507  -2.477  25.418  0.00  0.00    +0.155 HD
ATOM      4  O   UNL     1       8.135  -4.206  23.294  0.00  0.00    -0.270 OA
ENDROOT
BRANCH   1  10
ATOM      5  C   UNL     1       7.709  -5.294  27.105  0.00  0.00    +0.090 C 
ATOM      6  C   UNL     1       6.723  -5.504  26.017  0.00  0.00    +0.146 A 
ATOM      7  O   UNL     1       5.784  -6.457  26.260  0.00  0.00    -0.359 OA
ATOM      8  N   UNL     1       4.931  -6.549  25.177  0.00  0.00    -0.086 NA
ATOM      9  C   UNL     1       5.378  -5.647  24.299  0.00  0.00    +0.170 A 
ATOM     10  C   UNL     1       6.516  -4.954  24.762  0.00  0.00    +0.098 A 
ENDBRANCH   1  10
BRANCH   2  11
ATOM     11  C   UNL     1       7.929  -1.486  24.274  0.00  0.00    +0.034 A 
ATOM     12  C   UNL     1       7.378  -0.633  23.311  0.00  0.00    +0.024 A 
ATOM     13  C   UNL     1       8.065   0.522  22.900  0.00  0.00    +0.014 A 
ATOM     14  C   UNL     1       9.321   0.844  23.442  0.00  0.00    +0.055 A 
ATOM     15  C   UNL     1       9.873  -0.019  24.388  0.00  0.00    +0.014 A 
ATOM     16  C   UNL     1       9.187  -1.164  24.794  0.00  0.00    +0.024 A 
BRANCH  14  17
ATOM     17  C   UNL     1      10.062   2.091  23.031  0.00  0.00    +0.417 C 
ATOM     18  F   UNL     1       9.292   3.211  23.121  0.00  0.00    -0.166 F 
ATOM     19  F   UNL     1      10.506   2.039  21.747  0.00  0.00    -0.166 F 
ATOM     20  F   UNL     1      11.166   2.340  23.795  0.00  0.00    -0.166 F 
ENDBRANCH  14  17
ENDBRANCH   2  11
TORSDOF 3
ENDMDL
MODEL 4
REMARK VINA RESULT:      -6.1      2.510      2.842
REMARK  Name = 
REMARK  4 active torsions:
REMARK  status: ('A' for Active; 'I' for Inactive)
REMARK    1  A    between atoms: C_1  and  C_2
REMARK    2  A    between atoms: C_3  and  C_7
REMARK    3  A    between atoms: N_9  and  C_10
REMARK    4  A    between atoms: C_13  and  C_16
REMARK                            x       y       z     vdW  Elec       q    Type
REMARK                         _______ _______ _______ _____ _____    ______ ____
ROOT
ATOM      1  C   UNL     1       6.542  -3.222  23.422  0.00  0.00    +0.253 C 
ATOM      2  N   UNL     1       6.619  -2.082  22.634  0.00  0.00    -0.281 N 
ATOM      3  H   UNL     1       5.954  -1.968  21.882  0.00  0.00    +0.155 HD
ATOM      4  O   UNL     1       7.301  -3.464  24.351  0.00  0.00    -0.270 OA
ENDROOT
BRANCH   1  10
ATOM      5  C   UNL     1       6.765  -5.806  21.459  0.00  0.00    +0.090 C 
ATOM      6  C   UNL     1       5.646  -5.254  22.258  0.00  0.00    +0.146 A 
ATOM      7  O   UNL     1       4.473  -5.937  22.165  0.00  0.00    -0.359 OA
ATOM      8  N   UNL     1       3.519  -5.324  22.956  0.00  0.00    -0.086 NA
ATOM      9  C   UNL     1       4.140  -4.279  23.510  0.00  0.00    +0.170 A 
ATOM     10  C   UNL     1       5.487  -4.169  23.106  0.00  0.00    +0.098 A 
ENDBRANCH   1  10
BRANCH   2  11
ATOM     11  C   UNL     1       7.558  -1.026  22.805  0.00  0.00    +0.034 A 
ATOM     12  C   UNL     1       7.233   0.040  23.651  0.00  0.00    +0.024 A 
ATOM     13  C   UNL     1       8.146   1.086  23.870  0.00  0.00    +0.014 A 
ATOM     14  C   UNL     1       9.404   1.087  23.244  0.00  0.00    +0.055 A 
ATOM     15  C   UNL     1       9.716   0.030  22.387  0.00  0.00    +0.014 A 
ATOM     16  C   UNL     1       8.806  -1.006  22.174  0.00  0.00    +0.024 A 
BRANCH  14  17
ATOM     17  C   UNL     1      10.405   2.187  23.485  0.00  0.00    +0.417 C 
ATOM     18  F   UNL     1       9.884   3.222  24.200  0.00  0.00    -0.166 F 
ATOM     19  F   UNL     1      10.884   2.725  22.332  0.00  0.00    -0.166 F 
ATOM     20  F   UNL     1      11.504   1.773  24.184  0.00  0.00    -0.166 F 
ENDBRANCH  14  17
ENDBRANCH   2  11
TORSDOF 3
ENDMDL
MODEL 5
REMARK VINA RESULT:      -6.1      2.726      3.657
REMARK  Name = 
REMARK  4 active torsions:
REMARK  status: ('A' for Active; 'I' for Inactive)
REMARK    1  A    between atoms: C_1  and  C_2
REMARK    2  A    between atoms: C_3  and  C_7
REMARK    3  A    between atoms: N_9  and  C_10
REMARK    4  A    between atoms: C_13  and  C_16
REMARK                            x       y       z     vdW  Elec       q    Type
REMARK                         _______ _______ _______ _____ _____    ______ ____
ROOT
ATOM      1  C   UNL     1       8.905  -0.641  23.282  0.00  0.00    +0.253 C 
ATOM      2  N   UNL     1       9.265   0.197  24.327  0.00  0.00    -0.281 N 
ATOM      3  H   UNL     1       9.388  -0.202  25.247  0.00  0.00    +0.155 HD
ATOM      4  O   UNL     1       8.723  -0.262  22.132  0.00  0.00    -0.270 OA
ENDROOT
BRANCH   1  10
ATOM      5  C   UNL     1       6.248  -2.455  22.801  0.00  0.00    +0.090 C 
ATOM      6  C   UNL     1       7.582  -2.770  23.366  0.00  0.00    +0.146 A 
ATOM      7  O   UNL     1       7.751  -4.055  23.775  0.00  0.00    -0.359 OA
ATOM      8  N   UNL     1       9.030  -4.215  24.274  0.00  0.00    -0.086 NA
ATOM      9  C   UNL     1       9.607  -3.016  24.155  0.00  0.00    +0.170 A 
ATOM     10  C   UNL     1       8.745  -2.051  23.595  0.00  0.00    +0.098 A 
ENDBRANCH   1  10
BRANCH   2  11
ATOM     11  C   UNL     1       9.500   1.597  24.215  0.00  0.00    +0.034 A 
ATOM     12  C   UNL     1      10.697   2.039  23.639  0.00  0.00    +0.024 A 
ATOM     13  C   UNL     1      10.951   3.412  23.482  0.00  0.00    +0.014 A 
ATOM     14  C   UNL     1      10.015   4.371  23.902  0.00  0.00    +0.055 A 
ATOM     15  C   UNL     1       8.832   3.925  24.492  0.00  0.00    +0.014 A 
ATOM     16  C   UNL     1       8.582   2.561  24.645  0.00  0.00    +0.024 A 
BRANCH  14  17
ATOM     17  C   UNL     1      10.261   5.847  23.721  0.00  0.00    +0.417 C 
ATOM     18  F   UNL     1      10.305   6.520  24.904  0.00  0.00    -0.166 F 
ATOM     19  F   UNL     1       9.298   6.453  22.976  0.00  0.00    -0.166 F 
ATOM     20  F   UNL     1      11.443   6.125  23.095  0.00  0.00    -0.166 F 
ENDBRANCH  14  17
ENDBRANCH   2  11
TORSDOF 3
ENDMDL
MODEL 6
REMARK VINA RESULT:      -6.0      5.260      7.646
REMARK  Name = 
REMARK  4 active torsions:
REMARK  status: ('A' for Active; 'I' for Inactive)
REMARK    1  A    between atoms: C_1  and  C_2
REMARK    2  A    between atoms: C_3  and  C_7
REMARK    3  A    between atoms: N_9  and  C_10
REMARK    4  A    between atoms: C_13  and  C_16
REMARK                            x       y       z     vdW  Elec       q    Type
REMARK                         _______ _______ _______ _____ _____    ______ ____
ROOT
ATOM      1  C   UNL     1       8.704   0.080  22.452  0.00  0.00    +0.253 C 
ATOM      2  N   UNL     1       7.917  -0.717  23.271  0.00  0.00    -0.281 N 
ATOM      3  H   UNL     1       7.613  -0.346  24.160  0.00  0.00    +0.155 HD
ATOM      4  O   UNL     1       9.132  -0.272  21.360  0.00  0.00    -0.270 OA
ENDROOT
BRANCH   1  10
ATOM      5  C   UNL     1      11.055   0.874  24.554  0.00  0.00    +0.090 C 
ATOM      6  C   UNL     1      10.041   1.685  23.839  0.00  0.00    +0.146 A 
ATOM      7  O   UNL     1      10.074   3.019  24.100  0.00  0.00    -0.359 OA
ATOM      8  N   UNL     1       9.087   3.655  23.371  0.00  0.00    -0.086 NA
ATOM      9  C   UNL     1       8.476   2.686  22.686  0.00  0.00    +0.170 A 
ATOM     10  C   UNL     1       9.023   1.411  22.939  0.00  0.00    +0.098 A 
ENDBRANCH   1  10
BRANCH   2  11
ATOM     11  C   UNL     1       7.473  -2.032  22.956  0.00  0.00    +0.034 A 
ATOM     12  C   UNL     1       8.265  -3.123  23.331  0.00  0.00    +0.024 A 
ATOM     13  C   UNL     1       7.846  -4.438  23.066  0.00  0.00    +0.014 A 
ATOM     14  C   UNL     1       6.625  -4.688  22.416  0.00  0.00    +0.055 A 
ATOM     15  C   UNL     1       5.847  -3.596  22.029  0.00  0.00    +0.014 A 
ATOM     16  C   UNL     1       6.267  -2.292  22.295  0.00  0.00    +0.024 A 
BRANCH  14  17
ATOM     17  C   UNL     1       6.148  -6.091  22.145  0.00  0.00    +0.417 C 
ATOM     18  F   UNL     1       5.280  -6.541  23.093  0.00  0.00    -0.166 F 
ATOM     19  F   UNL     1       7.164  -6.994  22.102  0.00  0.00    -0.166 F 
ATOM     20  F   UNL     1       5.490  -6.217  20.954  0.00  0.00    -0.166 F 
ENDBRANCH  14  17
ENDBRANCH   2  11
TORSDOF 3
ENDMDL
MODEL 7
REMARK VINA RESULT:      -6.0      1.357      2.029
REMARK  Name = 
REMARK  4 active torsions:
REMARK  status: ('A' for Active; 'I' for Inactive)
REMARK    1  A    between atoms: C_1  and  C_2
REMARK    2  A    between atoms: C_3  and  C_7
REMARK    3  A    between atoms: N_9  and  C_10
REMARK    4  A    between atoms: C_13  and  C_16
REMARK                            x       y       z     vdW  Elec       q    Type
REMARK                         _______ _______ _______ _____ _____    ______ ____
ROOT
ATOM      1  C   UNL     1       7.162  -4.147  24.932  0.00  0.00    +0.253 C 
ATOM      2  N   UNL     1       7.317  -2.825  25.323  0.00  0.00    -0.281 N 
ATOM      3  H   UNL     1       7.166  -2.586  26.293  0.00  0.00    +0.155 HD
ATOM      4  O   UNL     1       7.313  -4.544  23.784  0.00  0.00    -0.270 OA
ENDROOT
BRANCH   1  10
ATOM      5  C   UNL     1       4.750  -6.326  24.823  0.00  0.00    +0.090 C 
ATOM      6  C   UNL     1       5.759  -6.006  25.861  0.00  0.00    +0.146 A 
ATOM      7  O   UNL     1       5.677  -6.747  26.998  0.00  0.00    -0.359 OA
ATOM      8  N   UNL     1       6.671  -6.355  27.875  0.00  0.00    -0.086 NA
ATOM      9  C   UNL     1       7.331  -5.379  27.246  0.00  0.00    +0.170 A 
ATOM     10  C   UNL     1       6.802  -5.101  25.968  0.00  0.00    +0.098 A 
ENDBRANCH   1  10
BRANCH   2  11
ATOM     11  C   UNL     1       7.697  -1.754  24.466  0.00  0.00    +0.034 A 
ATOM     12  C   UNL     1       9.056  -1.452  24.319  0.00  0.00    +0.024 A 
ATOM     13  C   UNL     1       9.472  -0.422  23.459  0.00  0.00    +0.014 A 
ATOM     14  C   UNL     1       8.536   0.330  22.728  0.00  0.00    +0.055 A 
ATOM     15  C   UNL     1       7.181   0.035  22.891  0.00  0.00    +0.014 A 
ATOM     16  C   UNL     1       6.773  -0.988  23.746  0.00  0.00    +0.024 A 
BRANCH  14  17
ATOM     17  C   UNL     1       8.964   1.422  21.782  0.00  0.00    +0.417 C 
ATOM     18  F   UNL     1      10.318   1.556  21.717  0.00  0.00    -0.166 F 
ATOM     19  F   UNL     1       8.479   2.642  22.133  0.00  0.00    -0.166 F 
ATOM     20  F   UNL     1       8.553   1.214  20.496  0.00  0.00    -0.166 F 
ENDBRANCH  14  17
ENDBRANCH   2  11
TORSDOF 3
ENDMDL
MODEL 8
REMARK VINA RESULT:      -6.0      4.976      7.796
REMARK  Name = 
REMARK  4 active torsions:
REMARK  status: ('A' for Active; 'I' for Inactive)
REMARK    1  A    between atoms: C_1  and  C_2
REMARK    2  A    between atoms: C_3  and  C_7
REMARK    3  A    between atoms: N_9  and  C_10
REMARK    4  A    between atoms: C_13  and  C_16
REMARK                            x       y       z     vdW  Elec       q    Type
REMARK                         _______ _______ _______ _____ _____    ______ ____
ROOT
ATOM      1  C   UNL     1      10.148   2.181  23.020  0.00  0.00    +0.253 C 
ATOM      2  N   UNL     1       9.740   1.354  24.056  0.00  0.00    -0.281 N 
ATOM      3  H   UNL     1       9.770   1.711  25.001  0.00  0.00    +0.155 HD
ATOM      4  O   UNL     1      10.160   1.848  21.842  0.00  0.00    -0.270 OA
ENDROOT
BRANCH   1  10
ATOM      5  C   UNL     1       8.300   4.561  24.244  0.00  0.00    +0.090 C 
ATOM      6  C   UNL     1       9.739   4.494  23.897  0.00  0.00    +0.146 A 
ATOM      7  O   UNL     1      10.444   5.636  24.118  0.00  0.00    -0.359 OA
ATOM      8  N   UNL     1      11.764   5.439  23.760  0.00  0.00    -0.086 NA
ATOM      9  C   UNL     1      11.827   4.177  23.327  0.00  0.00    +0.170 A 
ATOM     10  C   UNL     1      10.579   3.521  23.379  0.00  0.00    +0.098 A 
ENDBRANCH   1  10
BRANCH   2  11
ATOM     11  C   UNL     1       9.256   0.024  23.904  0.00  0.00    +0.034 A 
ATOM     12  C   UNL     1      10.154  -1.043  24.024  0.00  0.00    +0.024 A 
ATOM     13  C   UNL     1       9.708  -2.371  23.911  0.00  0.00    +0.014 A 
ATOM     14  C   UNL     1       8.353  -2.658  23.672  0.00  0.00    +0.055 A 
ATOM     15  C   UNL     1       7.465  -1.590  23.537  0.00  0.00    +0.014 A 
ATOM     16  C   UNL     1       7.912  -0.274  23.650  0.00  0.00    +0.024 A 
BRANCH  14  17
ATOM     17  C   UNL     1       7.852  -4.076  23.572  0.00  0.00    +0.417 C 
ATOM     18  F   UNL     1       7.637  -4.465  22.285  0.00  0.00    -0.166 F 
ATOM     19  F   UNL     1       6.676  -4.266  24.227  0.00  0.00    -0.166 F 
ATOM     20  F   UNL     1       8.720  -4.994  24.094  0.00  0.00    -0.166 F 
ENDBRANCH  14  17
ENDBRANCH   2  11
TORSDOF 3
ENDMDL
MODEL 9
REMARK VINA RESULT:      -6.0      5.274      7.574
REMARK  Name = 
REMARK  4 active torsions:
REMARK  status: ('A' for Active; 'I' for Inactive)
REMARK    1  A    between atoms: C_1  and  C_2
REMARK    2  A    between atoms: C_3  and  C_7
REMARK    3  A    between atoms: N_9  and  C_10
REMARK    4  A    between atoms: C_13  and  C_16
REMARK                            x       y       z     vdW  Elec       q    Type
REMARK                         _______ _______ _______ _____ _____    ______ ____
ROOT
ATOM      1  C   UNL     1       8.844   0.167  22.397  0.00  0.00    +0.253 C 
ATOM      2  N   UNL     1       8.046  -0.595  23.239  0.00  0.00    -0.281 N 
ATOM      3  H   UNL     1       7.742  -0.191  24.114  0.00  0.00    +0.155 HD
ATOM      4  O   UNL     1       9.273  -0.225  21.320  0.00  0.00    -0.270 OA
ENDROOT
BRANCH   1  10
ATOM      5  C   UNL     1       7.024   2.840  22.041  0.00  0.00    +0.090 C 
ATOM      6  C   UNL     1       8.352   2.612  22.659  0.00  0.00    +0.146 A 
ATOM      7  O   UNL     1       8.949   3.719  23.177  0.00  0.00    -0.359 OA
ATOM      8  N   UNL     1      10.171   3.370  23.723  0.00  0.00    -0.086 NA
ATOM      9  C   UNL     1      10.285   2.055  23.517  0.00  0.00    +0.170 A 
ATOM     10  C   UNL     1       9.173   1.511  22.842  0.00  0.00    +0.098 A 
ENDBRANCH   1  10
BRANCH   2  11
ATOM     11  C   UNL     1       7.590  -1.915  22.966  0.00  0.00    +0.034 A 
ATOM     12  C   UNL     1       6.338  -2.091  22.366  0.00  0.00    +0.024 A 
ATOM     13  C   UNL     1       5.867  -3.377  22.053  0.00  0.00    +0.014 A 
ATOM     14  C   UNL     1       6.639  -4.516  22.338  0.00  0.00    +0.055 A 
ATOM     15  C   UNL     1       7.879  -4.337  22.952  0.00  0.00    +0.014 A 
ATOM     16  C   UNL     1       8.343  -3.058  23.260  0.00  0.00    +0.024 A 
BRANCH  14  17
ATOM     17  C   UNL     1       6.162  -5.902  21.987  0.00  0.00    +0.417 C 
ATOM     18  F   UNL     1       7.132  -6.845  22.143  0.00  0.00    -0.166 F 
ATOM     19  F   UNL     1       5.738  -6.003  20.700  0.00  0.00    -0.166 F 
ATOM     20  F   UNL     1       5.113  -6.322  22.756  0.00  0.00    -0.166 F 
ENDBRANCH  14  17
ENDBRANCH   2  11
TORSDOF 3
ENDMDL
