MODEL 1
REMARK VINA RESULT:      -7.0      0.000      0.000
REMARK  Name = 
REMARK  12 active torsions:
REMARK  status: ('A' for Active; 'I' for Inactive)
REMARK    1  A    between atoms: O_1  and  C_2
REMARK    2  A    between atoms: C_6  and  S_8
REMARK    3  A    between atoms: S_8  and  C_9
REMARK    4  A    between atoms: C_9  and  C_10
REMARK    5  A    between atoms: C_13  and  O_15
REMARK    6  A    between atoms: O_15  and  C_16
REMARK    7  A    between atoms: C_19  and  N_22
REMARK    8  A    between atoms: C_25  and  O_27
REMARK    9  A    between atoms: C_28  and  O_30
REMARK   10  A    between atoms: C_31  and  O_33
REMARK   11  A    between atoms: C_34  and  O_36
REMARK   12  A    between atoms: C_37  and  O_39
REMARK                            x       y       z     vdW  Elec       q    Type
REMARK                         _______ _______ _______ _____ _____    ______ ____
ROOT
ATOM      1  C   UNL     1       4.276  -4.120  23.302  0.00  0.00    +0.163 C 
ATOM      2  C   UNL     1       4.484  -5.648  23.349  0.00  0.00    +0.175 C 
ATOM      3  C   UNL     1       5.969  -6.033  23.265  0.00  0.00    +0.180 C 
ATOM      4  C   UNL     1       6.658  -5.354  22.072  0.00  0.00    +0.214 C 
ATOM      5  C   UNL     1       6.359  -3.833  22.051  0.00  0.00    +0.339 C 
ATOM      6  O   UNL     1       4.964  -3.540  22.169  0.00  0.00    -0.333 OA
ENDROOT
BRANCH   2   7
ATOM      7  O   UNL     1       3.746  -6.212  22.248  0.00  0.00    -0.387 OA
ATOM      8  H   UNL     1       4.172  -7.044  21.987  0.00  0.00    +0.210 HD
ENDBRANCH   2   7
BRANCH   3   9
ATOM      9  O   UNL     1       6.628  -5.774  24.511  0.00  0.00    -0.386 OA
ATOM     10  H   UNL     1       7.251  -5.028  24.410  0.00  0.00    +0.210 HD
ENDBRANCH   3   9
BRANCH   4  11
ATOM     11  O   UNL     1       6.251  -6.025  20.869  0.00  0.00    -0.383 OA
ATOM     12  H   UNL     1       5.686  -5.431  20.345  0.00  0.00    +0.210 HD
ENDBRANCH   4  11
BRANCH   1  13
ATOM     13  C   UNL     1       4.604  -3.368  24.612  0.00  0.00    +0.106 C 
BRANCH  13  14
ATOM     14  S   UNL     1       3.839  -4.131  26.078  0.00  0.00    -0.124 S 
BRANCH  14  18
ATOM     15  C   UNL     1       5.933  -6.061  28.748  0.00  0.00    +0.171 C 
ATOM     16  C   UNL     1       6.631  -5.548  27.475  0.00  0.00    +0.177 C 
ATOM     17  C   UNL     1       6.477  -4.022  27.394  0.00  0.00    +0.184 C 
ATOM     18  C   UNL     1       4.981  -3.627  27.442  0.00  0.00    +0.207 C 
ATOM     19  O   UNL     1       4.452  -4.082  28.702  0.00  0.00    -0.361 OA
ATOM     20  C   UNL     1       4.512  -5.503  28.868  0.00  0.00    +0.195 C 
BRANCH  15  21
ATOM     21  O   UNL     1       5.906  -7.488  28.802  0.00  0.00    -0.387 OA
ATOM     22  H   UNL     1       6.724  -7.793  29.234  0.00  0.00    +0.210 HD
ENDBRANCH  15  21
BRANCH  16  23
ATOM     23  O   UNL     1       8.018  -5.926  27.493  0.00  0.00    -0.386 OA
ATOM     24  H   UNL     1       8.394  -5.766  26.611  0.00  0.00    +0.210 HD
ENDBRANCH  16  23
BRANCH  17  25
ATOM     25  O   UNL     1       7.180  -3.474  26.281  0.00  0.00    -0.386 OA
ATOM     26  H   UNL     1       7.744  -2.753  26.610  0.00  0.00    +0.210 HD
ENDBRANCH  17  25
ENDBRANCH  14  18
ENDBRANCH  13  14
ENDBRANCH   1  13
BRANCH   5  27
ATOM     27  O   UNL     1       7.159  -3.195  23.054  0.00  0.00    -0.461 OA
BRANCH  27  28
ATOM     28  C   UNL     1       7.721  -1.983  22.756  0.00  0.00    +0.124 A 
ATOM     29  C   UNL     1       6.981  -0.878  23.193  0.00  0.00    +0.052 A 
ATOM     30  C   UNL     1       7.418   0.425  22.939  0.00  0.00    +0.088 A 
ATOM     31  C   UNL     1       8.621   0.620  22.250  0.00  0.00    +0.273 A 
ATOM     32  C   UNL     1       9.365  -0.475  21.800  0.00  0.00    +0.088 A 
ATOM     33  C   UNL     1       8.910  -1.774  22.052  0.00  0.00    +0.052 A 
BRANCH  31  34
ATOM     34  N   UNL     1       9.102   1.983  21.998  0.00  0.00    +0.080 N 
ATOM     35  O   UNL     1      10.326   2.153  21.894  0.00  0.00    +0.041 OA
ATOM     36  O   UNL     1       8.256   2.883  21.906  0.00  0.00    -0.576 OA
ENDBRANCH  31  34
ENDBRANCH  27  28
ENDBRANCH   5  27
TORSDOF 12
ENDMDL
MODEL 2
REMARK VINA RESULT:      -6.8      3.442      8.033
REMARK  Name = 
REMARK  12 active torsions:
REMARK  status: ('A' for Active; 'I' for Inactive)
REMARK    1  A    between atoms: O_1  and  C_2
REMARK    2  A    between atoms: C_6  and  S_8
REMARK    3  A    between atoms: S_8  and  C_9
REMARK    4  A    between atoms: C_9  and  C_10
REMARK    5  A    between atoms: C_13  and  O_15
REMARK    6  A    between atoms: O_15  and  C_16
REMARK    7  A    between atoms: C_19  and  N_22
REMARK    8  A    between atoms: C_25  and  O_27
REMARK    9  A    between atoms: C_28  and  O_30
REMARK   10  A    between atoms: C_31  and  O_33
REMARK   11  A    between atoms: C_34  and  O_36
REMARK   12  A    between atoms: C_37  and  O_39
REMARK                            x       y       z     vdW  Elec       q    Type
REMARK                         _______ _______ _______ _____ _____    ______ ____
ROOT
ATOM      1  C   UNL     1       8.333  -2.313  25.218  0.00  0.00    +0.163 C 
ATOM      2  C   UNL     1       8.874  -2.599  23.802  0.00  0.00    +0.175 C 
ATOM      3  C   UNL     1       7.995  -3.600  23.037  0.00  0.00    +0.180 C 
ATOM      4  C   UNL     1       7.739  -4.867  23.866  0.00  0.00    +0.214 C 
ATOM      5  C   UNL     1       7.256  -4.508  25.295  0.00  0.00    +0.339 C 
ATOM      6  O   UNL     1       8.095  -3.546  25.938  0.00  0.00    -0.333 OA
ENDROOT
BRANCH   2   7
ATOM      7  O   UNL     1      10.214  -3.104  23.953  0.00  0.00    -0.387 OA
ATOM      8  H   UNL     1      10.559  -2.809  24.811  0.00  0.00    +0.210 HD
ENDBRANCH   2   7
BRANCH   3   9
ATOM      9  O   UNL     1       6.787  -2.972  22.591  0.00  0.00    -0.386 OA
ATOM     10  H   UNL     1       6.205  -3.632  22.168  0.00  0.00    +0.210 HD
ENDBRANCH   3   9
BRANCH   4  11
ATOM     11  O   UNL     1       8.933  -5.665  23.858  0.00  0.00    -0.383 OA
ATOM     12  H   UNL     1       8.708  -6.579  23.614  0.00  0.00    +0.210 HD
ENDBRANCH   4  11
BRANCH   1  13
ATOM     13  C   UNL     1       7.108  -1.373  25.281  0.00  0.00    +0.106 C 
BRANCH  13  14
ATOM     14  S   UNL     1       7.251   0.053  24.158  0.00  0.00    -0.124 S 
BRANCH  14  18
ATOM     15  C   UNL     1      10.198   2.330  22.986  0.00  0.00    +0.171 C 
ATOM     16  C   UNL     1       8.839   2.974  23.322  0.00  0.00    +0.177 C 
ATOM     17  C   UNL     1       8.478   2.661  24.781  0.00  0.00    +0.184 C 
ATOM     18  C   UNL     1       8.478   1.132  25.023  0.00  0.00    +0.207 C 
ATOM     19  O   UNL     1       9.809   0.650  24.759  0.00  0.00    -0.361 OA
ATOM     20  C   UNL     1      10.236   0.858  23.408  0.00  0.00    +0.195 C 
BRANCH  15  21
ATOM     21  O   UNL     1      10.517   2.452  21.600  0.00  0.00    -0.387 OA
ATOM     22  H   UNL     1      10.611   1.558  21.227  0.00  0.00    +0.210 HD
ENDBRANCH  15  21
BRANCH  16  23
ATOM     23  O   UNL     1       8.903   4.393  23.098  0.00  0.00    -0.386 OA
ATOM     24  H   UNL     1       8.540   4.845  23.878  0.00  0.00    +0.210 HD
ENDBRANCH  16  23
BRANCH  17  25
ATOM     25  O   UNL     1       7.271   3.307  25.181  0.00  0.00    -0.386 OA
ATOM     26  H   UNL     1       6.897   2.805  25.926  0.00  0.00    +0.210 HD
ENDBRANCH  17  25
ENDBRANCH  14  18
ENDBRANCH  13  14
ENDBRANCH   1  13
BRANCH   5  27
ATOM     27  O   UNL     1       5.882  -4.109  25.226  0.00  0.00    -0.461 OA
BRANCH  27  28
ATOM     28  C   UNL     1       4.953  -5.050  24.871  0.00  0.00    +0.124 A 
ATOM     29  C   UNL     1       4.859  -6.132  25.753  0.00  0.00    +0.052 A 
ATOM     30  C   UNL     1       3.971  -7.183  25.507  0.00  0.00    +0.088 A 
ATOM     31  C   UNL     1       3.158  -7.139  24.369  0.00  0.00    +0.273 A 
ATOM     32  C   UNL     1       3.249  -6.067  23.475  0.00  0.00    +0.088 A 
ATOM     33  C   UNL     1       4.150  -5.027  23.729  0.00  0.00    +0.052 A 
BRANCH  31  34
ATOM     34  N   UNL     1       2.205  -8.224  24.113  0.00  0.00    +0.080 N 
ATOM     35  O   UNL     1       1.391  -8.073  23.190  0.00  0.00    +0.041 OA
ATOM     36  O   UNL     1       2.269  -9.228  24.836  0.00  0.00    -0.576 OA
ENDBRANCH  31  34
ENDBRANCH  27  28
ENDBRANCH   5  27
TORSDOF 12
ENDMDL
MODEL 3
REMARK VINA RESULT:      -6.8      3.081      7.803
REMARK  Name = 
REMARK  12 active torsions:
REMARK  status: ('A' for Active; 'I' for Inactive)
REMARK    1  A    between atoms: O_1  and  C_2
REMARK    2  A    between atoms: C_6  and  S_8
REMARK    3  A    between atoms: S_8  and  C_9
REMARK    4  A    between atoms: C_9  and  C_10
REMARK    5  A    between atoms: C_13  and  O_15
REMARK    6  A    between atoms: O_15  and  C_16
REMARK    7  A    between atoms: C_19  and  N_22
REMARK    8  A    between atoms: C_25  and  O_27
REMARK    9  A    between atoms: C_28  and  O_30
REMARK   10  A    between atoms: C_31  and  O_33
REMARK   11  A    between atoms: C_34  and  O_36
REMARK   12  A    between atoms: C_37  and  O_39
REMARK                            x       y       z     vdW  Elec       q    Type
REMARK                         _______ _______ _______ _____ _____    ______ ____
ROOT
ATOM      1  C   UNL     1       7.380  -4.168  22.489  0.00  0.00    +0.163 C 
ATOM      2  C   UNL     1       6.153  -3.361  22.016  0.00  0.00    +0.175 C 
ATOM      3  C   UNL     1       5.079  -3.247  23.109  0.00  0.00    +0.180 C 
ATOM      4  C   UNL     1       4.723  -4.623  23.691  0.00  0.00    +0.214 C 
ATOM      5  C   UNL     1       6.002  -5.405  24.089  0.00  0.00    +0.339 C 
ATOM      6  O   UNL     1       6.977  -5.443  23.043  0.00  0.00    -0.333 OA
ENDROOT
BRANCH   2   7
ATOM      7  O   UNL     1       5.630  -4.026  20.851  0.00  0.00    -0.387 OA
ATOM      8  H   UNL     1       4.784  -3.612  20.615  0.00  0.00    +0.210 HD
ENDBRANCH   2   7
BRANCH   3   9
ATOM      9  O   UNL     1       5.477  -2.304  24.111  0.00  0.00    -0.386 OA
ATOM     10  H   UNL     1       6.446  -2.333  24.230  0.00  0.00    +0.210 HD
ENDBRANCH   3   9
BRANCH   4  11
ATOM     11  O   UNL     1       3.909  -5.324  22.738  0.00  0.00    -0.383 OA
ATOM     12  H   UNL     1       3.812  -6.251  23.017  0.00  0.00    +0.210 HD
ENDBRANCH   4  11
BRANCH   1  13
ATOM     13  C   UNL     1       8.341  -3.416  23.437  0.00  0.00    +0.106 C 
BRANCH  13  14
ATOM     14  S   UNL     1       9.105  -1.957  22.659  0.00  0.00    -0.124 S 
BRANCH  14  18
ATOM     15  C   UNL     1       9.690   1.902  22.704  0.00  0.00    +0.171 C 
ATOM     16  C   UNL     1       8.387   1.348  22.100  0.00  0.00    +0.177 C 
ATOM     17  C   UNL     1       7.633   0.547  23.171  0.00  0.00    +0.184 C 
ATOM     18  C   UNL     1       8.536  -0.572  23.745  0.00  0.00    +0.207 C 
ATOM     19  O   UNL     1       9.678   0.060  24.353  0.00  0.00    -0.361 OA
ATOM     20  C   UNL     1      10.478   0.808  23.430  0.00  0.00    +0.195 C 
BRANCH  15  21
ATOM     21  O   UNL     1      10.512   2.526  21.716  0.00  0.00    -0.387 OA
ATOM     22  H   UNL     1      11.444   2.379  21.956  0.00  0.00    +0.210 HD
ENDBRANCH  15  21
BRANCH  16  23
ATOM     23  O   UNL     1       7.581   2.430  21.602  0.00  0.00    -0.386 OA
ATOM     24  H   UNL     1       6.918   2.067  20.991  0.00  0.00    +0.210 HD
ENDBRANCH  16  23
BRANCH  17  25
ATOM     25  O   UNL     1       6.370   0.082  22.699  0.00  0.00    -0.386 OA
ATOM     26  H   UNL     1       6.130   0.611  21.919  0.00  0.00    +0.210 HD
ENDBRANCH  17  25
ENDBRANCH  14  18
ENDBRANCH  13  14
ENDBRANCH   1  13
BRANCH   5  27
ATOM     27  O   UNL     1       6.506  -4.863  25.315  0.00  0.00    -0.461 OA
BRANCH  27  28
ATOM     28  C   UNL     1       5.805  -5.107  26.465  0.00  0.00    +0.124 A 
ATOM     29  C   UNL     1       5.330  -6.418  26.586  0.00  0.00    +0.052 A 
ATOM     30  C   UNL     1       4.575  -6.809  27.696  0.00  0.00    +0.088 A 
ATOM     31  C   UNL     1       4.308  -5.875  28.703  0.00  0.00    +0.273 A 
ATOM     32  C   UNL     1       4.769  -4.559  28.590  0.00  0.00    +0.088 A 
ATOM     33  C   UNL     1       5.514  -4.179  27.468  0.00  0.00    +0.052 A 
BRANCH  31  34
ATOM     34  N   UNL     1       3.537  -6.278  29.885  0.00  0.00    +0.080 N 
ATOM     35  O   UNL     1       2.635  -5.522  30.272  0.00  0.00    +0.041 OA
ATOM     36  O   UNL     1       3.836  -7.353  30.426  0.00  0.00    -0.576 OA
ENDBRANCH  31  34
ENDBRANCH  27  28
ENDBRANCH   5  27
TORSDOF 12
ENDMDL
MODEL 4
REMARK VINA RESULT:      -6.8      2.249      4.195
REMARK  Name = 
REMARK  12 active torsions:
REMARK  status: ('A' for Active; 'I' for Inactive)
REMARK    1  A    between atoms: O_1  and  C_2
REMARK    2  A    between atoms: C_6  and  S_8
REMARK    3  A    between atoms: S_8  and  C_9
REMARK    4  A    between atoms: C_9  and  C_10
REMARK    5  A    between atoms: C_13  and  O_15
REMARK    6  A    between atoms: O_15  and  C_16
REMARK    7  A    between atoms: C_19  and  N_22
REMARK    8  A    between atoms: C_25  and  O_27
REMARK    9  A    between atoms: C_28  and  O_30
REMARK   10  A    between atoms: C_31  and  O_33
REMARK   11  A    between atoms: C_34  and  O_36
REMARK   12  A    between atoms: C_37  and  O_39
REMARK                            x       y       z     vdW  Elec       q    Type
REMARK                         _______ _______ _______ _____ _____    ______ ____
ROOT
ATOM      1  C   UNL     1       6.499  -5.343  25.347  0.00  0.00    +0.163 C 
ATOM      2  C   UNL     1       7.459  -4.948  26.488  0.00  0.00    +0.175 C 
ATOM      3  C   UNL     1       8.224  -3.652  26.177  0.00  0.00    +0.180 C 
ATOM      4  C   UNL     1       8.899  -3.716  24.798  0.00  0.00    +0.214 C 
ATOM      5  C   UNL     1       7.895  -4.178  23.711  0.00  0.00    +0.339 C 
ATOM      6  O   UNL     1       7.190  -5.367  24.075  0.00  0.00    -0.333 OA
ENDROOT
BRANCH   2   7
ATOM      7  O   UNL     1       8.370  -6.047  26.678  0.00  0.00    -0.387 OA
ATOM      8  H   UNL     1       8.497  -6.492  25.824  0.00  0.00    +0.210 HD
ENDBRANCH   2   7
BRANCH   3   9
ATOM      9  O   UNL     1       7.369  -2.513  26.326  0.00  0.00    -0.386 OA
ATOM     10  H   UNL     1       6.809  -2.410  25.532  0.00  0.00    +0.210 HD
ENDBRANCH   3   9
BRANCH   4  11
ATOM     11  O   UNL     1      10.054  -4.564  24.896  0.00  0.00    -0.383 OA
ATOM     12  H   UNL     1      10.813  -4.041  25.203  0.00  0.00    +0.210 HD
ENDBRANCH   4  11
BRANCH   1  13
ATOM     13  C   UNL     1       5.192  -4.522  25.268  0.00  0.00    +0.106 C 
BRANCH  13  14
ATOM     14  S   UNL     1       4.077  -5.088  23.945  0.00  0.00    -0.124 S 
BRANCH  14  18
ATOM     15  C   UNL     1       1.353  -7.839  23.443  0.00  0.00    +0.171 C 
ATOM     16  C   UNL     1       2.501  -8.093  24.437  0.00  0.00    +0.177 C 
ATOM     17  C   UNL     1       2.482  -7.004  25.521  0.00  0.00    +0.184 C 
ATOM     18  C   UNL     1       2.564  -5.599  24.877  0.00  0.00    +0.207 C 
ATOM     19  O   UNL     1       1.407  -5.439  24.035  0.00  0.00    -0.361 OA
ATOM     20  C   UNL     1       1.343  -6.385  22.962  0.00  0.00    +0.195 C 
BRANCH  15  21
ATOM     21  O   UNL     1       1.411  -8.726  22.326  0.00  0.00    -0.387 OA
ATOM     22  H   UNL     1       0.536  -9.139  22.217  0.00  0.00    +0.210 HD
ENDBRANCH  15  21
BRANCH  16  23
ATOM     23  O   UNL     1       2.364  -9.401  25.018  0.00  0.00    -0.386 OA
ATOM     24  H   UNL     1       2.313  -9.307  25.984  0.00  0.00    +0.210 HD
ENDBRANCH  16  23
BRANCH  17  25
ATOM     25  O   UNL     1       3.468  -7.235  26.525  0.00  0.00    -0.386 OA
ATOM     26  H   UNL     1       4.339  -7.244  26.092  0.00  0.00    +0.210 HD
ENDBRANCH  17  25
ENDBRANCH  14  18
ENDBRANCH  13  14
ENDBRANCH   1  13
BRANCH   5  27
ATOM     27  O   UNL     1       7.031  -3.080  23.390  0.00  0.00    -0.461 OA
BRANCH  27  28
ATOM     28  C   UNL     1       7.605  -1.902  22.994  0.00  0.00    +0.124 A 
ATOM     29  C   UNL     1       6.955  -0.755  23.463  0.00  0.00    +0.052 A 
ATOM     30  C   UNL     1       7.412   0.520  23.119  0.00  0.00    +0.088 A 
ATOM     31  C   UNL     1       8.545   0.644  22.307  0.00  0.00    +0.273 A 
ATOM     32  C   UNL     1       9.198  -0.495  21.825  0.00  0.00    +0.088 A 
ATOM     33  C   UNL     1       8.723  -1.766  22.168  0.00  0.00    +0.052 A 
BRANCH  31  34
ATOM     34  N   UNL     1       9.050   1.977  21.959  0.00  0.00    +0.080 N 
ATOM     35  O   UNL     1      10.272   2.109  21.799  0.00  0.00    +0.041 OA
ATOM     36  O   UNL     1       8.223   2.893  21.846  0.00  0.00    -0.576 OA
ENDBRANCH  31  34
ENDBRANCH  27  28
ENDBRANCH   5  27
TORSDOF 12
ENDMDL
MODEL 5
REMARK VINA RESULT:      -6.8      3.501      8.273
REMARK  Name = 
REMARK  12 active torsions:
REMARK  status: ('A' for Active; 'I' for Inactive)
REMARK    1  A    between atoms: O_1  and  C_2
REMARK    2  A    between atoms: C_6  and  S_8
REMARK    3  A    between atoms: S_8  and  C_9
REMARK    4  A    between atoms: C_9  and  C_10
REMARK    5  A    between atoms: C_13  and  O_15
REMARK    6  A    between atoms: O_15  and  C_16
REMARK    7  A    between atoms: C_19  and  N_22
REMARK    8  A    between atoms: C_25  and  O_27
REMARK    9  A    between atoms: C_28  and  O_30
REMARK   10  A    between atoms: C_31  and  O_33
REMARK   11  A    between atoms: C_34  and  O_36
REMARK   12  A    between atoms: C_37  and  O_39
REMARK                            x       y       z     vdW  Elec       q    Type
REMARK                         _______ _______ _______ _____ _____    ______ ____
ROOT
ATOM      1  C   UNL     1       9.966  -1.213  23.412  0.00  0.00    +0.163 C 
ATOM      2  C   UNL     1       8.874  -1.196  22.323  0.00  0.00    +0.175 C 
ATOM      3  C   UNL     1       7.581  -1.884  22.788  0.00  0.00    +0.180 C 
ATOM      4  C   UNL     1       7.864  -3.283  23.355  0.00  0.00    +0.214 C 
ATOM      5  C   UNL     1       9.012  -3.238  24.397  0.00  0.00    +0.339 C 
ATOM      6  O   UNL     1      10.172  -2.554  23.917  0.00  0.00    -0.333 OA
ENDROOT
BRANCH   2   7
ATOM      7  O   UNL     1       9.418  -1.857  21.165  0.00  0.00    -0.387 OA
ATOM      8  H   UNL     1       9.937  -2.622  21.463  0.00  0.00    +0.210 HD
ENDBRANCH   2   7
BRANCH   3   9
ATOM      9  O   UNL     1       6.866  -1.046  23.704  0.00  0.00    -0.386 OA
ATOM     10  H   UNL     1       5.911  -1.069  23.501  0.00  0.00    +0.210 HD
ENDBRANCH   3   9
BRANCH   4  11
ATOM     11  O   UNL     1       8.133  -4.172  22.260  0.00  0.00    -0.383 OA
ATOM     12  H   UNL     1       8.673  -4.918  22.575  0.00  0.00    +0.210 HD
ENDBRANCH   4  11
BRANCH   1  13
ATOM     13  C   UNL     1       9.771  -0.197  24.560  0.00  0.00    +0.106 C 
BRANCH  13  14
ATOM     14  S   UNL     1       9.895   1.532  24.005  0.00  0.00    -0.124 S 
BRANCH  14  18
ATOM     15  C   UNL     1       8.107   4.961  23.471  0.00  0.00    +0.171 C 
ATOM     16  C   UNL     1       7.693   3.757  22.606  0.00  0.00    +0.177 C 
ATOM     17  C   UNL     1       7.198   2.624  23.518  0.00  0.00    +0.184 C 
ATOM     18  C   UNL     1       8.285   2.255  24.557  0.00  0.00    +0.207 C 
ATOM     19  O   UNL     1       8.534   3.424  25.360  0.00  0.00    -0.361 OA
ATOM     20  C   UNL     1       9.037   4.536  24.611  0.00  0.00    +0.195 C 
BRANCH  15  21
ATOM     21  O   UNL     1       8.721   5.989  22.694  0.00  0.00    -0.387 OA
ATOM     22  H   UNL     1       8.953   6.726  23.287  0.00  0.00    +0.210 HD
ENDBRANCH  15  21
BRANCH  16  23
ATOM     23  O   UNL     1       6.671   4.152  21.675  0.00  0.00    -0.386 OA
ATOM     24  H   UNL     1       6.154   3.367  21.430  0.00  0.00    +0.210 HD
ENDBRANCH  16  23
BRANCH  17  25
ATOM     25  O   UNL     1       6.715   1.511  22.770  0.00  0.00    -0.386 OA
ATOM     26  H   UNL     1       5.997   1.098  23.280  0.00  0.00    +0.210 HD
ENDBRANCH  17  25
ENDBRANCH  14  18
ENDBRANCH  13  14
ENDBRANCH   1  13
BRANCH   5  27
ATOM     27  O   UNL     1       8.498  -2.696  25.620  0.00  0.00    -0.461 OA
BRANCH  27  28
ATOM     28  C   UNL     1       7.659  -3.476  26.369  0.00  0.00    +0.124 A 
ATOM     29  C   UNL     1       8.168  -4.742  26.680  0.00  0.00    +0.052 A 
ATOM     30  C   UNL     1       7.414  -5.658  27.419  0.00  0.00    +0.088 A 
ATOM     31  C   UNL     1       6.139  -5.292  27.863  0.00  0.00    +0.273 A 
ATOM     32  C   UNL     1       5.615  -4.034  27.552  0.00  0.00    +0.088 A 
ATOM     33  C   UNL     1       6.377  -3.130  26.802  0.00  0.00    +0.052 A 
BRANCH  31  34
ATOM     34  N   UNL     1       5.347  -6.236  28.660  0.00  0.00    +0.080 N 
ATOM     35  O   UNL     1       5.648  -7.437  28.601  0.00  0.00    +0.041 OA
ATOM     36  O   UNL     1       4.422  -5.775  29.343  0.00  0.00    -0.576 OA
ENDBRANCH  31  34
ENDBRANCH  27  28
ENDBRANCH   5  27
TORSDOF 12
ENDMDL
MODEL 6
REMARK VINA RESULT:      -6.7      3.124      7.777
REMARK  Name = 
REMARK  12 active torsions:
REMARK  status: ('A' for Active; 'I' for Inactive)
REMARK    1  A    between atoms: O_1  and  C_2
REMARK    2  A    between atoms: C_6  and  S_8
REMARK    3  A    between atoms: S_8  and  C_9
REMARK    4  A    between atoms: C_9  and  C_10
REMARK    5  A    between atoms: C_13  and  O_15
REMARK    6  A    between atoms: O_15  and  C_16
REMARK    7  A    between atoms: C_19  and  N_22
REMARK    8  A    between atoms: C_25  and  O_27
REMARK    9  A    between atoms: C_28  and  O_30
REMARK   10  A    between atoms: C_31  and  O_33
REMARK   11  A    between atoms: C_34  and  O_36
REMARK   12  A    between atoms: C_37  and  O_39
REMARK                            x       y       z     vdW  Elec       q    Type
REMARK                         _______ _______ _______ _____ _____    ______ ____
ROOT
ATOM      1  C   UNL     1       8.930  -3.045  25.578  0.00  0.00    +0.163 C 
ATOM      2  C   UNL     1       9.560  -4.452  25.506  0.00  0.00    +0.175 C 
ATOM      3  C   UNL     1       8.553  -5.513  25.036  0.00  0.00    +0.180 C 
ATOM      4  C   UNL     1       7.257  -5.460  25.859  0.00  0.00    +0.214 C 
ATOM      5  C   UNL     1       6.712  -4.011  25.943  0.00  0.00    +0.339 C 
ATOM      6  O   UNL     1       7.706  -3.067  26.350  0.00  0.00    -0.333 OA
ENDROOT
BRANCH   2   7
ATOM      7  O   UNL     1      10.057  -4.764  26.821  0.00  0.00    -0.387 OA
ATOM      8  H   UNL     1      10.441  -5.656  26.801  0.00  0.00    +0.210 HD
ENDBRANCH   2   7
BRANCH   3   9
ATOM      9  O   UNL     1       8.323  -5.400  23.626  0.00  0.00    -0.386 OA
ATOM     10  H   UNL     1       8.776  -6.126  23.155  0.00  0.00    +0.210 HD
ENDBRANCH   3   9
BRANCH   4  11
ATOM     11  O   UNL     1       7.513  -6.041  27.147  0.00  0.00    -0.383 OA
ATOM     12  H   UNL     1       8.202  -5.527  27.602  0.00  0.00    +0.210 HD
ENDBRANCH   4  11
BRANCH   1  13
ATOM     13  C   UNL     1       8.732  -2.339  24.218  0.00  0.00    +0.106 C 
BRANCH  13  14
ATOM     14  S   UNL     1       8.236  -0.596  24.391  0.00  0.00    -0.124 S 
BRANCH  14  18
ATOM     15  C   UNL     1       8.308   2.769  22.413  0.00  0.00    +0.171 C 
ATOM     16  C   UNL     1       9.487   1.789  22.269  0.00  0.00    +0.177 C 
ATOM     17  C   UNL     1       8.966   0.448  21.731  0.00  0.00    +0.184 C 
ATOM     18  C   UNL     1       7.851  -0.107  22.650  0.00  0.00    +0.207 C 
ATOM     19  O   UNL     1       6.772   0.846  22.647  0.00  0.00    -0.361 OA
ATOM     20  C   UNL     1       7.139   2.129  23.168  0.00  0.00    +0.195 C 
BRANCH  15  21
ATOM     21  O   UNL     1       8.701   3.983  23.055  0.00  0.00    -0.387 OA
ATOM     22  H   UNL     1       9.446   3.787  23.650  0.00  0.00    +0.210 HD
ENDBRANCH  15  21
BRANCH  16  23
ATOM     23  O   UNL     1      10.480   2.345  21.391  0.00  0.00    -0.386 OA
ATOM     24  H   UNL     1      10.355   1.970  20.504  0.00  0.00    +0.210 HD
ENDBRANCH  16  23
BRANCH  17  25
ATOM     25  O   UNL     1      10.025  -0.476  21.489  0.00  0.00    -0.386 OA
ATOM     26  H   UNL     1      10.094  -1.060  22.264  0.00  0.00    +0.210 HD
ENDBRANCH  17  25
ENDBRANCH  14  18
ENDBRANCH  13  14
ENDBRANCH   1  13
BRANCH   5  27
ATOM     27  O   UNL     1       6.094  -3.682  24.693  0.00  0.00    -0.461 OA
BRANCH  27  28
ATOM     28  C   UNL     1       4.853  -4.197  24.431  0.00  0.00    +0.124 A 
ATOM     29  C   UNL     1       4.830  -5.173  23.429  0.00  0.00    +0.052 A 
ATOM     30  C   UNL     1       3.629  -5.771  23.037  0.00  0.00    +0.088 A 
ATOM     31  C   UNL     1       2.439  -5.394  23.670  0.00  0.00    +0.273 A 
ATOM     32  C   UNL     1       2.448  -4.413  24.667  0.00  0.00    +0.088 A 
ATOM     33  C   UNL     1       3.656  -3.815  25.042  0.00  0.00    +0.052 A 
BRANCH  31  34
ATOM     34  N   UNL     1       1.175  -6.032  23.284  0.00  0.00    +0.080 N 
ATOM     35  O   UNL     1       0.514  -5.503  22.380  0.00  0.00    +0.041 OA
ATOM     36  O   UNL     1       0.844  -7.062  23.888  0.00  0.00    -0.576 OA
ENDBRANCH  31  34
ENDBRANCH  27  28
ENDBRANCH   5  27
TORSDOF 12
ENDMDL
MODEL 7
REMARK VINA RESULT:      -6.7      2.513      4.124
REMARK  Name = 
REMARK  12 active torsions:
REMARK  status: ('A' for Active; 'I' for Inactive)
REMARK    1  A    between atoms: O_1  and  C_2
REMARK    2  A    between atoms: C_6  and  S_8
REMARK    3  A    between atoms: S_8  and  C_9
REMARK    4  A    between atoms: C_9  and  C_10
REMARK    5  A    between atoms: C_13  and  O_15
REMARK    6  A    between atoms: O_15  and  C_16
REMARK    7  A    between atoms: C_19  and  N_22
REMARK    8  A    between atoms: C_25  and  O_27
REMARK    9  A    between atoms: C_28  and  O_30
REMARK   10  A    between atoms: C_31  and  O_33
REMARK   11  A    between atoms: C_34  and  O_36
REMARK   12  A    between atoms: C_37  and  O_39
REMARK                            x       y       z     vdW  Elec       q    Type
REMARK                         _______ _______ _______ _____ _____    ______ ____
ROOT
ATOM      1  C   UNL     1       7.040  -3.793  22.847  0.00  0.00    +0.163 C 
ATOM      2  C   UNL     1       7.671  -4.183  24.201  0.00  0.00    +0.175 C 
ATOM      3  C   UNL     1       8.382  -2.997  24.870  0.00  0.00    +0.180 C 
ATOM      4  C   UNL     1       9.365  -2.316  23.907  0.00  0.00    +0.214 C 
ATOM      5  C   UNL     1       8.686  -2.008  22.547  0.00  0.00    +0.339 C 
ATOM      6  O   UNL     1       8.011  -3.141  21.994  0.00  0.00    -0.333 OA
ENDROOT
BRANCH   2   7
ATOM      7  O   UNL     1       8.595  -5.257  23.946  0.00  0.00    -0.387 OA
ATOM      8  H   UNL     1       8.548  -5.486  23.004  0.00  0.00    +0.210 HD
ENDBRANCH   2   7
BRANCH   3   9
ATOM      9  O   UNL     1       7.427  -2.086  25.428  0.00  0.00    -0.386 OA
ATOM     10  H   UNL     1       6.613  -2.084  24.889  0.00  0.00    +0.210 HD
ENDBRANCH   3   9
BRANCH   4  11
ATOM     11  O   UNL     1      10.528  -3.149  23.779  0.00  0.00    -0.383 OA
ATOM     12  H   UNL     1      10.974  -3.213  24.641  0.00  0.00    +0.210 HD
ENDBRANCH   4  11
BRANCH   1  13
ATOM     13  C   UNL     1       5.728  -2.983  22.938  0.00  0.00    +0.106 C 
BRANCH  13  14
ATOM     14  S   UNL     1       4.520  -3.716  24.087  0.00  0.00    -0.124 S 
BRANCH  14  18
ATOM     15  C   UNL     1       3.454  -7.206  25.472  0.00  0.00    +0.171 C 
ATOM     16  C   UNL     1       2.385  -6.285  24.855  0.00  0.00    +0.177 C 
ATOM     17  C   UNL     1       2.760  -5.980  23.398  0.00  0.00    +0.184 C 
ATOM     18  C   UNL     1       4.179  -5.364  23.322  0.00  0.00    +0.207 C 
ATOM     19  O   UNL     1       5.102  -6.336  23.847  0.00  0.00    -0.361 OA
ATOM     20  C   UNL     1       4.865  -6.669  25.220  0.00  0.00    +0.195 C 
BRANCH  15  21
ATOM     21  O   UNL     1       3.245  -7.402  26.870  0.00  0.00    -0.387 OA
ATOM     22  H   UNL     1       3.193  -6.529  27.298  0.00  0.00    +0.210 HD
ENDBRANCH  15  21
BRANCH  16  23
ATOM     23  O   UNL     1       1.094  -6.914  24.935  0.00  0.00    -0.386 OA
ATOM     24  H   UNL     1       0.745  -7.020  24.034  0.00  0.00    +0.210 HD
ENDBRANCH  16  23
BRANCH  17  25
ATOM     25  O   UNL     1       1.760  -5.203  22.742  0.00  0.00    -0.386 OA
ATOM     26  H   UNL     1       0.955  -5.233  23.285  0.00  0.00    +0.210 HD
ENDBRANCH  17  25
ENDBRANCH  14  18
ENDBRANCH  13  14
ENDBRANCH   1  13
BRANCH   5  27
ATOM     27  O   UNL     1       7.837  -0.865  22.709  0.00  0.00    -0.461 OA
BRANCH  27  28
ATOM     28  C   UNL     1       8.423   0.337  23.004  0.00  0.00    +0.124 A 
ATOM     29  C   UNL     1       9.394   0.749  22.084  0.00  0.00    +0.052 A 
ATOM     30  C   UNL     1      10.095   1.945  22.268  0.00  0.00    +0.088 A 
ATOM     31  C   UNL     1       9.806   2.742  23.381  0.00  0.00    +0.273 A 
ATOM     32  C   UNL     1       8.845   2.337  24.312  0.00  0.00    +0.088 A 
ATOM     33  C   UNL     1       8.158   1.132  24.121  0.00  0.00    +0.052 A 
BRANCH  31  34
ATOM     34  N   UNL     1      10.518   4.010  23.572  0.00  0.00    +0.080 N 
ATOM     35  O   UNL     1      11.722   4.047  23.281  0.00  0.00    +0.041 OA
ATOM     36  O   UNL     1       9.872   4.971  24.015  0.00  0.00    -0.576 OA
ENDBRANCH  31  34
ENDBRANCH  27  28
ENDBRANCH   5  27
TORSDOF 12
ENDMDL
MODEL 8
REMARK VINA RESULT:      -6.7      3.981      8.394
REMARK  Name = 
REMARK  12 active torsions:
REMARK  status: ('A' for Active; 'I' for Inactive)
REMARK    1  A    between atoms: O_1  and  C_2
REMARK    2  A    between atoms: C_6  and  S_8
REMARK    3  A    between atoms: S_8  and  C_9
REMARK    4  A    between atoms: C_9  and  C_10
REMARK    5  A    between atoms: C_13  and  O_15
REMARK    6  A    between atoms: O_15  and  C_16
REMARK    7  A    between atoms: C_19  and  N_22
REMARK    8  A    between atoms: C_25  and  O_27
REMARK    9  A    between atoms: C_28  and  O_30
REMARK   10  A    between atoms: C_31  and  O_33
REMARK   11  A    between atoms: C_34  and  O_36
REMARK   12  A    between atoms: C_37  and  O_39
REMARK                            x       y       z     vdW  Elec       q    Type
REMARK                         _______ _______ _______ _____ _____    ______ ____
ROOT
ATOM      1  C   UNL     1       9.274   2.104  23.785  0.00  0.00    +0.163 C 
ATOM      2  C   UNL     1       8.979   2.191  22.273  0.00  0.00    +0.175 C 
ATOM      3  C   UNL     1       8.121   1.016  21.782  0.00  0.00    +0.180 C 
ATOM      4  C   UNL     1       8.715  -0.332  22.217  0.00  0.00    +0.214 C 
ATOM      5  C   UNL     1       9.045  -0.331  23.732  0.00  0.00    +0.339 C 
ATOM      6  O   UNL     1       9.814   0.807  24.132  0.00  0.00    -0.333 OA
ENDROOT
BRANCH   2   7
ATOM      7  O   UNL     1      10.248   2.219  21.593  0.00  0.00    -0.387 OA
ATOM      8  H   UNL     1      10.529   1.304  21.429  0.00  0.00    +0.210 HD
ENDBRANCH   2   7
BRANCH   3   9
ATOM      9  O   UNL     1       6.758   1.181  22.192  0.00  0.00    -0.386 OA
ATOM     10  H   UNL     1       6.658   0.929  23.130  0.00  0.00    +0.210 HD
ENDBRANCH   3   9
BRANCH   4  11
ATOM     11  O   UNL     1       9.857  -0.613  21.392  0.00  0.00    -0.383 OA
ATOM     12  H   UNL     1      10.049   0.160  20.834  0.00  0.00    +0.210 HD
ENDBRANCH   4  11
BRANCH   1  13
ATOM     13  C   UNL     1       8.102   2.498  24.712  0.00  0.00    +0.106 C 
BRANCH  13  14
ATOM     14  S   UNL     1       7.279   4.038  24.197  0.00  0.00    -0.124 S 
BRANCH  14  18
ATOM     15  C   UNL     1       3.669   4.964  23.033  0.00  0.00    +0.171 C 
ATOM     16  C   UNL     1       4.155   3.510  22.885  0.00  0.00    +0.177 C 
ATOM     17  C   UNL     1       4.534   2.960  24.268  0.00  0.00    +0.184 C 
ATOM     18  C   UNL     1       5.594   3.868  24.939  0.00  0.00    +0.207 C 
ATOM     19  O   UNL     1       5.008   5.173  25.101  0.00  0.00    -0.361 OA
ATOM     20  C   UNL     1       4.648   5.798  23.864  0.00  0.00    +0.195 C 
BRANCH  15  21
ATOM     21  O   UNL     1       3.449   5.583  21.766  0.00  0.00    -0.387 OA
ATOM     22  H   UNL     1       4.227   6.126  21.550  0.00  0.00    +0.210 HD
ENDBRANCH  15  21
BRANCH  16  23
ATOM     23  O   UNL     1       3.127   2.711  22.276  0.00  0.00    -0.386 OA
ATOM     24  H   UNL     1       3.527   2.180  21.567  0.00  0.00    +0.210 HD
ENDBRANCH  16  23
BRANCH  17  25
ATOM     25  O   UNL     1       4.908   1.585  24.210  0.00  0.00    -0.386 OA
ATOM     26  H   UNL     1       5.345   1.359  25.049  0.00  0.00    +0.210 HD
ENDBRANCH  17  25
ENDBRANCH  14  18
ENDBRANCH  13  14
ENDBRANCH   1  13
BRANCH   5  27
ATOM     27  O   UNL     1       7.823  -0.477  24.466  0.00  0.00    -0.461 OA
BRANCH  27  28
ATOM     28  C   UNL     1       7.504  -1.717  24.948  0.00  0.00    +0.124 A 
ATOM     29  C   UNL     1       8.297  -2.143  26.020  0.00  0.00    +0.052 A 
ATOM     30  C   UNL     1       8.104  -3.400  26.601  0.00  0.00    +0.088 A 
ATOM     31  C   UNL     1       7.093  -4.232  26.108  0.00  0.00    +0.273 A 
ATOM     32  C   UNL     1       6.300  -3.822  25.031  0.00  0.00    +0.088 A 
ATOM     33  C   UNL     1       6.512  -2.566  24.452  0.00  0.00    +0.052 A 
BRANCH  31  34
ATOM     34  N   UNL     1       6.865  -5.544  26.724  0.00  0.00    +0.080 N 
ATOM     35  O   UNL     1       6.018  -6.286  26.206  0.00  0.00    +0.041 OA
ATOM     36  O   UNL     1       7.533  -5.832  27.727  0.00  0.00    -0.576 OA
ENDBRANCH  31  34
ENDBRANCH  27  28
ENDBRANCH   5  27
TORSDOF 12
ENDMDL
MODEL 9
REMARK VINA RESULT:      -6.5      3.718      8.345
REMARK  Name = 
REMARK  12 active torsions:
REMARK  status: ('A' for Active; 'I' for Inactive)
REMARK    1  A    between atoms: O_1  and  C_2
REMARK    2  A    between atoms: C_6  and  S_8
REMARK    3  A    between atoms: S_8  and  C_9
REMARK    4  A    between atoms: C_9  and  C_10
REMARK    5  A    between atoms: C_13  and  O_15
REMARK    6  A    between atoms: O_15  and  C_16
REMARK    7  A    between atoms: C_19  and  N_22
REMARK    8  A    between atoms: C_25  and  O_27
REMARK    9  A    between atoms: C_28  and  O_30
REMARK   10  A    between atoms: C_31  and  O_33
REMARK   11  A    between atoms: C_34  and  O_36
REMARK   12  A    between atoms: C_37  and  O_39
REMARK                            x       y       z     vdW  Elec       q    Type
REMARK                         _______ _______ _______ _____ _____    ______ ____
ROOT
ATOM      1  C   UNL     1       8.627  -0.189  24.468  0.00  0.00    +0.163 C 
ATOM      2  C   UNL     1       9.695   0.497  23.590  0.00  0.00    +0.175 C 
ATOM      3  C   UNL     1       9.779  -0.125  22.188  0.00  0.00    +0.180 C 
ATOM      4  C   UNL     1       9.930  -1.652  22.260  0.00  0.00    +0.214 C 
ATOM      5  C   UNL     1       8.866  -2.271  23.204  0.00  0.00    +0.339 C 
ATOM      6  O   UNL     1       8.813  -1.625  24.479  0.00  0.00    -0.333 OA
ENDROOT
BRANCH   2   7
ATOM      7  O   UNL     1      10.953   0.377  24.280  0.00  0.00    -0.387 OA
ATOM      8  H   UNL     1      10.933  -0.431  24.818  0.00  0.00    +0.210 HD
ENDBRANCH   2   7
BRANCH   3   9
ATOM      9  O   UNL     1       8.666   0.287  21.386  0.00  0.00    -0.386 OA
ATOM     10  H   UNL     1       8.749   1.234  21.161  0.00  0.00    +0.210 HD
ENDBRANCH   3   9
BRANCH   4  11
ATOM     11  O   UNL     1      11.277  -1.958  22.652  0.00  0.00    -0.383 OA
ATOM     12  H   UNL     1      11.700  -2.495  21.960  0.00  0.00    +0.210 HD
ENDBRANCH   4  11
BRANCH   1  13
ATOM     13  C   UNL     1       7.164   0.192  24.148  0.00  0.00    +0.106 C 
BRANCH  13  14
ATOM     14  S   UNL     1       6.821   1.961  24.403  0.00  0.00    -0.124 S 
BRANCH  14  18
ATOM     15  C   UNL     1       5.765   5.392  22.868  0.00  0.00    +0.171 C 
ATOM     16  C   UNL     1       7.209   4.894  22.671  0.00  0.00    +0.177 C 
ATOM     17  C   UNL     1       7.183   3.544  21.941  0.00  0.00    +0.184 C 
ATOM     18  C   UNL     1       6.313   2.526  22.717  0.00  0.00    +0.207 C 
ATOM     19  O   UNL     1       4.974   3.052  22.771  0.00  0.00    -0.361 OA
ATOM     20  C   UNL     1       4.876   4.300  23.468  0.00  0.00    +0.195 C 
BRANCH  15  21
ATOM     21  O   UNL     1       5.713   6.567  23.678  0.00  0.00    -0.387 OA
ATOM     22  H   UNL     1       6.608   6.744  24.019  0.00  0.00    +0.210 HD
ENDBRANCH  15  21
BRANCH  16  23
ATOM     23  O   UNL     1       7.964   5.868  21.929  0.00  0.00    -0.386 OA
ATOM     24  H   UNL     1       8.587   5.399  21.349  0.00  0.00    +0.210 HD
ENDBRANCH  16  23
BRANCH  17  25
ATOM     25  O   UNL     1       8.496   3.072  21.647  0.00  0.00    -0.386 OA
ATOM     26  H   UNL     1       9.044   3.202  22.440  0.00  0.00    +0.210 HD
ENDBRANCH  17  25
ENDBRANCH  14  18
ENDBRANCH  13  14
ENDBRANCH   1  13
BRANCH   5  27
ATOM     27  O   UNL     1       7.606  -2.289  22.523  0.00  0.00    -0.461 OA
BRANCH  27  28
ATOM     28  C   UNL     1       6.786  -3.369  22.713  0.00  0.00    +0.124 A 
ATOM     29  C   UNL     1       5.496  -3.047  23.151  0.00  0.00    +0.052 A 
ATOM     30  C   UNL     1       4.555  -4.047  23.411  0.00  0.00    +0.088 A 
ATOM     31  C   UNL     1       4.911  -5.386  23.215  0.00  0.00    +0.273 A 
ATOM     32  C   UNL     1       6.199  -5.722  22.787  0.00  0.00    +0.088 A 
ATOM     33  C   UNL     1       7.134  -4.710  22.541  0.00  0.00    +0.052 A 
BRANCH  31  34
ATOM     34  N   UNL     1       3.925  -6.445  23.462  0.00  0.00    +0.080 N 
ATOM     35  O   UNL     1       2.815  -6.338  22.922  0.00  0.00    +0.041 OA
ATOM     36  O   UNL     1       4.262  -7.383  24.198  0.00  0.00    -0.576 OA
ENDBRANCH  31  34
ENDBRANCH  27  28
ENDBRANCH   5  27
TORSDOF 12
ENDMDL
