MODEL 1
REMARK VINA RESULT:      -6.6      0.000      0.000
REMARK  Name = 
REMARK  9 active torsions:
REMARK  status: ('A' for Active; 'I' for Inactive)
REMARK    1  A    between atoms: C_2  and  C_3
REMARK    2  A    between atoms: C_2  and  C_8
REMARK    3  A    between atoms: C_2  and  C_16
REMARK    4  A    between atoms: C_3  and  C_4
REMARK    5  A    between atoms: N_6  and  O_7
REMARK    6  A    between atoms: C_8  and  C_9
REMARK    7  A    between atoms: C_11  and  O_12
REMARK    8  A    between atoms: N_18  and  C_19
REMARK    9  A    between atoms: C_24  and  O_26
REMARK                            x       y       z     vdW  Elec       q    Type
REMARK                         _______ _______ _______ _____ _____    ______ ____
ROOT
ATOM      1  C   UNL     1       6.688  -3.928  23.780  0.00  0.00    +0.088 C 
ENDROOT
BRANCH   1   2
ATOM      2  C   UNL     1       6.836  -2.735  22.827  0.00  0.00    +0.217 C 
ATOM      3  N   UNL     1       7.904  -1.923  23.072  0.00  0.00    -0.306 N 
ATOM      4  H   UNL     1       8.682  -2.369  23.546  0.00  0.00    +0.149 HD
ATOM      5  O   UNL     1       6.052  -2.561  21.901  0.00  0.00    -0.275 OA
BRANCH   3   6
ATOM      6  C   UNL     1       8.267  -0.739  22.300  0.00  0.00    +0.132 C 
ATOM      7  C   UNL     1       9.821  -0.652  22.169  0.00  0.00    +0.143 C 
ATOM      8  C   UNL     1      10.313   0.038  23.461  0.00  0.00    +0.069 C 
ATOM      9  C   UNL     1       9.150   0.924  23.780  0.00  0.00    -0.040 A 
ATOM     10  C   UNL     1       9.114   1.997  24.652  0.00  0.00    +0.004 A 
ATOM     11  C   UNL     1       7.936   2.741  24.739  0.00  0.00    +0.000 A 
ATOM     12  C   UNL     1       6.821   2.407  23.956  0.00  0.00    +0.000 A 
ATOM     13  C   UNL     1       6.850   1.290  23.118  0.00  0.00    +0.006 A 
ATOM     14  C   UNL     1       8.012   0.536  23.059  0.00  0.00    -0.022 A 
BRANCH   7  15
ATOM     15  O   UNL     1      10.446  -1.921  21.974  0.00  0.00    -0.389 OA
ATOM     16  H   UNL     1      10.932  -1.906  21.128  0.00  0.00    +0.210 HD
ENDBRANCH   7  15
ENDBRANCH   3   6
ENDBRANCH   1   2
BRANCH   1  17
ATOM     17  C   UNL     1       7.836  -4.935  23.528  0.00  0.00    +0.111 C 
BRANCH  17  18
ATOM     18  C   UNL     1       9.092  -4.716  24.366  0.00  0.00    +0.236 C 
ATOM     19  N   UNL     1       9.348  -5.719  25.270  0.00  0.00    -0.197 N 
ATOM     20  H   UNL     1       9.070  -6.679  25.088  0.00  0.00    +0.182 HD
ATOM     21  O   UNL     1       9.839  -3.743  24.264  0.00  0.00    -0.274 OA
BRANCH  19  22
ATOM     22  O   UNL     1      10.550  -5.559  26.004  0.00  0.00    -0.295 OA
ATOM     23  H   UNL     1      11.116  -5.042  25.391  0.00  0.00    +0.241 HD
ENDBRANCH  19  22
ENDBRANCH  17  18
ENDBRANCH   1  17
BRANCH   1  24
ATOM     24  C   UNL     1       6.558  -3.608  25.287  0.00  0.00    +0.048 C 
BRANCH  24  25
ATOM     25  C   UNL     1       6.801  -2.224  25.849  0.00  0.00    -0.043 A 
ATOM     26  C   UNL     1       5.694  -1.355  25.933  0.00  0.00    +0.004 A 
ATOM     27  C   UNL     1       5.769  -0.153  26.640  0.00  0.00    +0.004 A 
ATOM     28  C   UNL     1       6.950   0.197  27.284  0.00  0.00    +0.045 A 
ATOM     29  C   UNL     1       8.051  -0.642  27.183  0.00  0.00    +0.117 A 
ATOM     30  C   UNL     1       7.996  -1.831  26.457  0.00  0.00    +0.049 A 
BRANCH  29  31
ATOM     31  O   UNL     1       9.184  -0.291  27.859  0.00  0.00    -0.507 OA
ATOM     32  H   UNL     1       9.901  -0.873  27.546  0.00  0.00    +0.292 HD
ENDBRANCH  29  31
ENDBRANCH  24  25
ENDBRANCH   1  24
TORSDOF 9
ENDMDL
MODEL 2
REMARK VINA RESULT:      -6.4      3.106      6.343
REMARK  Name = 
REMARK  9 active torsions:
REMARK  status: ('A' for Active; 'I' for Inactive)
REMARK    1  A    between atoms: C_2  and  C_3
REMARK    2  A    between atoms: C_2  and  C_8
REMARK    3  A    between atoms: C_2  and  C_16
REMARK    4  A    between atoms: C_3  and  C_4
REMARK    5  A    between atoms: N_6  and  O_7
REMARK    6  A    between atoms: C_8  and  C_9
REMARK    7  A    between atoms: C_11  and  O_12
REMARK    8  A    between atoms: N_18  and  C_19
REMARK    9  A    between atoms: C_24  and  O_26
REMARK                            x       y       z     vdW  Elec       q    Type
REMARK                         _______ _______ _______ _____ _____    ______ ____
ROOT
ATOM      1  C   UNL     1       9.286   2.392  23.678  0.00  0.00    +0.088 C 
ENDROOT
BRANCH   1   2
ATOM      2  C   UNL     1       8.047   1.604  24.122  0.00  0.00    +0.217 C 
ATOM      3  N   UNL     1       8.301   0.519  24.910  0.00  0.00    -0.306 N 
ATOM      4  H   UNL     1       9.163   0.567  25.442  0.00  0.00    +0.149 HD
ATOM      5  O   UNL     1       6.919   1.958  23.801  0.00  0.00    -0.275 OA
BRANCH   3   6
ATOM      6  C   UNL     1       7.295  -0.378  25.471  0.00  0.00    +0.132 C 
ATOM      7  C   UNL     1       7.877  -1.103  26.725  0.00  0.00    +0.143 C 
ATOM      8  C   UNL     1       8.661  -2.319  26.182  0.00  0.00    +0.069 C 
ATOM      9  C   UNL     1       7.880  -2.640  24.946  0.00  0.00    -0.040 A 
ATOM     10  C   UNL     1       7.918  -3.802  24.196  0.00  0.00    +0.004 A 
ATOM     11  C   UNL     1       7.041  -3.924  23.117  0.00  0.00    +0.000 A 
ATOM     12  C   UNL     1       6.143  -2.891  22.808  0.00  0.00    +0.000 A 
ATOM     13  C   UNL     1       6.149  -1.700  23.538  0.00  0.00    +0.006 A 
ATOM     14  C   UNL     1       7.044  -1.573  24.589  0.00  0.00    -0.022 A 
BRANCH   7  15
ATOM     15  O   UNL     1       8.698  -0.262  27.537  0.00  0.00    -0.389 OA
ATOM     16  H   UNL     1       9.633  -0.484  27.375  0.00  0.00    +0.210 HD
ENDBRANCH   7  15
ENDBRANCH   3   6
ENDBRANCH   1   2
BRANCH   1  17
ATOM     17  C   UNL     1       9.833   1.794  22.360  0.00  0.00    +0.111 C 
BRANCH  17  18
ATOM     18  C   UNL     1      10.096   0.291  22.386  0.00  0.00    +0.236 C 
ATOM     19  N   UNL     1       9.594  -0.387  21.301  0.00  0.00    -0.197 N 
ATOM     20  H   UNL     1       9.511   0.056  20.391  0.00  0.00    +0.182 HD
ATOM     21  O   UNL     1      10.707  -0.295  23.278  0.00  0.00    -0.274 OA
BRANCH  19  22
ATOM     22  O   UNL     1       9.894  -1.772  21.281  0.00  0.00    -0.295 OA
ATOM     23  H   UNL     1       9.059  -2.183  21.597  0.00  0.00    +0.241 HD
ENDBRANCH  19  22
ENDBRANCH  17  18
ENDBRANCH   1  17
BRANCH   1  24
ATOM     24  C   UNL     1       9.136   3.927  23.565  0.00  0.00    +0.048 C 
BRANCH  24  25
ATOM     25  C   UNL     1      10.306   4.873  23.734  0.00  0.00    -0.043 A 
ATOM     26  C   UNL     1      10.126   5.981  24.586  0.00  0.00    +0.004 A 
ATOM     27  C   UNL     1      11.205   6.774  24.983  0.00  0.00    +0.004 A 
ATOM     28  C   UNL     1      12.486   6.467  24.540  0.00  0.00    +0.045 A 
ATOM     29  C   UNL     1      12.666   5.392  23.679  0.00  0.00    +0.117 A 
ATOM     30  C   UNL     1      11.592   4.610  23.256  0.00  0.00    +0.049 A 
BRANCH  29  31
ATOM     31  O   UNL     1      13.941   5.091  23.293  0.00  0.00    -0.507 OA
ATOM     32  H   UNL     1      14.077   5.480  22.410  0.00  0.00    +0.292 HD
ENDBRANCH  29  31
ENDBRANCH  24  25
ENDBRANCH   1  24
TORSDOF 9
ENDMDL
MODEL 3
REMARK VINA RESULT:      -6.4      1.191      1.516
REMARK  Name = 
REMARK  9 active torsions:
REMARK  status: ('A' for Active; 'I' for Inactive)
REMARK    1  A    between atoms: C_2  and  C_3
REMARK    2  A    between atoms: C_2  and  C_8
REMARK    3  A    between atoms: C_2  and  C_16
REMARK    4  A    between atoms: C_3  and  C_4
REMARK    5  A    between atoms: N_6  and  O_7
REMARK    6  A    between atoms: C_8  and  C_9
REMARK    7  A    between atoms: C_11  and  O_12
REMARK    8  A    between atoms: N_18  and  C_19
REMARK    9  A    between atoms: C_24  and  O_26
REMARK                            x       y       z     vdW  Elec       q    Type
REMARK                         _______ _______ _______ _____ _____    ______ ____
ROOT
ATOM      1  C   UNL     1       6.732  -3.574  24.260  0.00  0.00    +0.088 C 
ENDROOT
BRANCH   1   2
ATOM      2  C   UNL     1       6.831  -2.440  23.233  0.00  0.00    +0.217 C 
ATOM      3  N   UNL     1       7.982  -1.709  23.284  0.00  0.00    -0.306 N 
ATOM      4  H   UNL     1       8.784  -2.197  23.667  0.00  0.00    +0.149 HD
ATOM      5  O   UNL     1       5.938  -2.241  22.418  0.00  0.00    -0.275 OA
BRANCH   3   6
ATOM      6  C   UNL     1       8.319  -0.593  22.405  0.00  0.00    +0.132 C 
ATOM      7  C   UNL     1       9.864  -0.551  22.177  0.00  0.00    +0.143 C 
ATOM      8  C   UNL     1      10.446   0.220  23.383  0.00  0.00    +0.069 C 
ATOM      9  C   UNL     1       9.321   1.153  23.704  0.00  0.00    -0.040 A 
ATOM     10  C   UNL     1       9.358   2.287  24.495  0.00  0.00    +0.004 A 
ATOM     11  C   UNL     1       8.202   3.062  24.597  0.00  0.00    +0.000 A 
ATOM     12  C   UNL     1       7.035   2.697  23.908  0.00  0.00    +0.000 A 
ATOM     13  C   UNL     1       6.992   1.522  23.155  0.00  0.00    +0.006 A 
ATOM     14  C   UNL     1       8.134   0.740  23.082  0.00  0.00    -0.022 A 
BRANCH   7  15
ATOM     15  O   UNL     1      10.452  -1.845  22.038  0.00  0.00    -0.389 OA
ATOM     16  H   UNL     1      10.355  -2.137  21.113  0.00  0.00    +0.210 HD
ENDBRANCH   7  15
ENDBRANCH   3   6
ENDBRANCH   1   2
BRANCH   1  17
ATOM     17  C   UNL     1       7.712  -4.708  23.873  0.00  0.00    +0.111 C 
BRANCH  17  18
ATOM     18  C   UNL     1       9.095  -4.620  24.511  0.00  0.00    +0.236 C 
ATOM     19  N   UNL     1       9.400  -5.672  25.342  0.00  0.00    -0.197 N 
ATOM     20  H   UNL     1       9.016  -6.599  25.185  0.00  0.00    +0.182 HD
ATOM     21  O   UNL     1       9.898  -3.709  24.316  0.00  0.00    -0.274 OA
BRANCH  19  22
ATOM     22  O   UNL     1      10.709  -5.635  25.884  0.00  0.00    -0.295 OA
ATOM     23  H   UNL     1      10.547  -5.471  26.839  0.00  0.00    +0.241 HD
ENDBRANCH  19  22
ENDBRANCH  17  18
ENDBRANCH   1  17
BRANCH   1  24
ATOM     24  C   UNL     1       6.897  -3.189  25.749  0.00  0.00    +0.048 C 
BRANCH  24  25
ATOM     25  C   UNL     1       6.524  -1.822  26.281  0.00  0.00    -0.043 A 
ATOM     26  C   UNL     1       7.571  -0.998  26.741  0.00  0.00    +0.004 A 
ATOM     27  C   UNL     1       7.357   0.351  27.033  0.00  0.00    +0.004 A 
ATOM     28  C   UNL     1       6.093   0.902  26.861  0.00  0.00    +0.045 A 
ATOM     29  C   UNL     1       5.052   0.090  26.433  0.00  0.00    +0.117 A 
ATOM     30  C   UNL     1       5.248  -1.265  26.164  0.00  0.00    +0.049 A 
BRANCH  29  31
ATOM     31  O   UNL     1       3.831   0.668  26.234  0.00  0.00    -0.507 OA
ATOM     32  H   UNL     1       3.602   0.549  25.295  0.00  0.00    +0.292 HD
ENDBRANCH  29  31
ENDBRANCH  24  25
ENDBRANCH   1  24
TORSDOF 9
ENDMDL
MODEL 4
REMARK VINA RESULT:      -6.3      2.910      4.754
REMARK  Name = 
REMARK  9 active torsions:
REMARK  status: ('A' for Active; 'I' for Inactive)
REMARK    1  A    between atoms: C_2  and  C_3
REMARK    2  A    between atoms: C_2  and  C_8
REMARK    3  A    between atoms: C_2  and  C_16
REMARK    4  A    between atoms: C_3  and  C_4
REMARK    5  A    between atoms: N_6  and  O_7
REMARK    6  A    between atoms: C_8  and  C_9
REMARK    7  A    between atoms: C_11  and  O_12
REMARK    8  A    between atoms: N_18  and  C_19
REMARK    9  A    between atoms: C_24  and  O_26
REMARK                            x       y       z     vdW  Elec       q    Type
REMARK                         _______ _______ _______ _____ _____    ______ ____
ROOT
ATOM      1  C   UNL     1       7.433  -4.481  25.099  0.00  0.00    +0.088 C 
ENDROOT
BRANCH   1   2
ATOM      2  C   UNL     1       8.684  -3.641  24.812  0.00  0.00    +0.217 C 
ATOM      3  N   UNL     1       8.527  -2.294  24.963  0.00  0.00    -0.306 N 
ATOM      4  H   UNL     1       7.795  -2.017  25.607  0.00  0.00    +0.149 HD
ATOM      5  O   UNL     1       9.745  -4.169  24.497  0.00  0.00    -0.275 OA
BRANCH   3   6
ATOM      6  C   UNL     1       9.568  -1.291  24.766  0.00  0.00    +0.132 C 
ATOM      7  C   UNL     1       9.441  -0.178  25.855  0.00  0.00    +0.143 C 
ATOM      8  C   UNL     1       8.381   0.812  25.322  0.00  0.00    +0.069 C 
ATOM      9  C   UNL     1       8.585   0.690  23.845  0.00  0.00    -0.040 A 
ATOM     10  C   UNL     1       8.135   1.542  22.853  0.00  0.00    +0.004 A 
ATOM     11  C   UNL     1       8.509   1.279  21.534  0.00  0.00    +0.000 A 
ATOM     12  C   UNL     1       9.324   0.179  21.228  0.00  0.00    +0.000 A 
ATOM     13  C   UNL     1       9.729  -0.706  22.231  0.00  0.00    +0.006 A 
ATOM     14  C   UNL     1       9.329  -0.457  23.534  0.00  0.00    -0.022 A 
BRANCH   7  15
ATOM     15  O   UNL     1       9.093  -0.685  27.145  0.00  0.00    -0.389 OA
ATOM     16  H   UNL     1       9.651  -1.461  27.339  0.00  0.00    +0.210 HD
ENDBRANCH   7  15
ENDBRANCH   3   6
ENDBRANCH   1   2
BRANCH   1  17
ATOM     17  C   UNL     1       6.675  -3.882  26.308  0.00  0.00    +0.111 C 
BRANCH  17  18
ATOM     18  C   UNL     1       6.507  -4.817  27.501  0.00  0.00    +0.236 C 
ATOM     19  N   UNL     1       7.377  -5.882  27.509  0.00  0.00    -0.197 N 
ATOM     20  H   UNL     1       8.302  -5.813  27.097  0.00  0.00    +0.182 HD
ATOM     21  O   UNL     1       5.684  -4.660  28.401  0.00  0.00    -0.274 OA
BRANCH  19  22
ATOM     22  O   UNL     1       7.276  -6.718  28.649  0.00  0.00    -0.295 OA
ATOM     23  H   UNL     1       7.552  -7.596  28.304  0.00  0.00    +0.241 HD
ENDBRANCH  19  22
ENDBRANCH  17  18
ENDBRANCH   1  17
BRANCH   1  24
ATOM     24  C   UNL     1       6.470  -4.731  23.915  0.00  0.00    +0.048 C 
BRANCH  24  25
ATOM     25  C   UNL     1       5.080  -5.299  24.104  0.00  0.00    -0.043 A 
ATOM     26  C   UNL     1       4.008  -4.598  23.514  0.00  0.00    +0.004 A 
ATOM     27  C   UNL     1       2.730  -5.157  23.438  0.00  0.00    +0.004 A 
ATOM     28  C   UNL     1       2.504  -6.433  23.942  0.00  0.00    +0.045 A 
ATOM     29  C   UNL     1       3.549  -7.117  24.547  0.00  0.00    +0.117 A 
ATOM     30  C   UNL     1       4.823  -6.557  24.653  0.00  0.00    +0.049 A 
BRANCH  29  31
ATOM     31  O   UNL     1       3.308  -8.384  24.997  0.00  0.00    -0.507 OA
ATOM     32  H   UNL     1       3.780  -8.486  25.844  0.00  0.00    +0.292 HD
ENDBRANCH  29  31
ENDBRANCH  24  25
ENDBRANCH   1  24
TORSDOF 9
ENDMDL
MODEL 5
REMARK VINA RESULT:      -6.2      2.326      4.607
REMARK  Name = 
REMARK  9 active torsions:
REMARK  status: ('A' for Active; 'I' for Inactive)
REMARK    1  A    between atoms: C_2  and  C_3
REMARK    2  A    between atoms: C_2  and  C_8
REMARK    3  A    between atoms: C_2  and  C_16
REMARK    4  A    between atoms: C_3  and  C_4
REMARK    5  A    between atoms: N_6  and  O_7
REMARK    6  A    between atoms: C_8  and  C_9
REMARK    7  A    between atoms: C_11  and  O_12
REMARK    8  A    between atoms: N_18  and  C_19
REMARK    9  A    between atoms: C_24  and  O_26
REMARK                            x       y       z     vdW  Elec       q    Type
REMARK                         _______ _______ _______ _____ _____    ______ ____
ROOT
ATOM      1  C   UNL     1       8.305  -3.037  26.245  0.00  0.00    +0.088 C 
ENDROOT
BRANCH   1   2
ATOM      2  C   UNL     1       8.389  -1.506  26.296  0.00  0.00    +0.217 C 
ATOM      3  N   UNL     1       7.643  -0.851  25.361  0.00  0.00    -0.306 N 
ATOM      4  H   UNL     1       6.836  -1.363  25.021  0.00  0.00    +0.149 HD
ATOM      5  O   UNL     1       9.066  -0.935  27.144  0.00  0.00    -0.275 OA
BRANCH   3   6
ATOM      6  C   UNL     1       7.543   0.597  25.215  0.00  0.00    +0.132 C 
ATOM      7  C   UNL     1       6.244   0.959  24.428  0.00  0.00    +0.143 C 
ATOM      8  C   UNL     1       6.610   0.832  22.932  0.00  0.00    +0.069 C 
ATOM      9  C   UNL     1       8.061   1.196  22.955  0.00  0.00    -0.040 A 
ATOM     10  C   UNL     1       8.865   1.546  21.885  0.00  0.00    +0.004 A 
ATOM     11  C   UNL     1      10.182   1.929  22.143  0.00  0.00    +0.000 A 
ATOM     12  C   UNL     1      10.672   1.960  23.458  0.00  0.00    +0.000 A 
ATOM     13  C   UNL     1       9.868   1.553  24.526  0.00  0.00    +0.006 A 
ATOM     14  C   UNL     1       8.571   1.145  24.259  0.00  0.00    -0.022 A 
BRANCH   7  15
ATOM     15  O   UNL     1       5.125   0.141  24.773  0.00  0.00    -0.389 OA
ATOM     16  H   UNL     1       5.115   0.013  25.739  0.00  0.00    +0.210 HD
ENDBRANCH   7  15
ENDBRANCH   3   6
ENDBRANCH   1   2
BRANCH   1  17
ATOM     17  C   UNL     1       6.899  -3.492  26.706  0.00  0.00    +0.111 C 
BRANCH  17  18
ATOM     18  C   UNL     1       6.787  -4.960  27.105  0.00  0.00    +0.236 C 
ATOM     19  N   UNL     1       5.584  -5.541  26.782  0.00  0.00    -0.197 N 
ATOM     20  H   UNL     1       5.047  -5.234  25.977  0.00  0.00    +0.182 HD
ATOM     21  O   UNL     1       7.677  -5.603  27.660  0.00  0.00    -0.274 OA
BRANCH  19  22
ATOM     22  O   UNL     1       5.495  -6.923  27.085  0.00  0.00    -0.295 OA
ATOM     23  H   UNL     1       6.124  -7.329  26.449  0.00  0.00    +0.241 HD
ENDBRANCH  19  22
ENDBRANCH  17  18
ENDBRANCH   1  17
BRANCH   1  24
ATOM     24  C   UNL     1       8.693  -3.717  24.912  0.00  0.00    +0.048 C 
BRANCH  24  25
ATOM     25  C   UNL     1       7.674  -4.059  23.847  0.00  0.00    -0.043 A 
ATOM     26  C   UNL     1       7.206  -3.005  23.036  0.00  0.00    +0.004 A 
ATOM     27  C   UNL     1       6.447  -3.254  21.890  0.00  0.00    +0.004 A 
ATOM     28  C   UNL     1       6.151  -4.564  21.530  0.00  0.00    +0.045 A 
ATOM     29  C   UNL     1       6.586  -5.604  22.339  0.00  0.00    +0.117 A 
ATOM     30  C   UNL     1       7.322  -5.365  23.500  0.00  0.00    +0.049 A 
BRANCH  29  31
ATOM     31  O   UNL     1       6.314  -6.881  21.939  0.00  0.00    -0.507 OA
ATOM     32  H   UNL     1       5.392  -7.073  22.188  0.00  0.00    +0.292 HD
ENDBRANCH  29  31
ENDBRANCH  24  25
ENDBRANCH   1  24
TORSDOF 9
ENDMDL
MODEL 6
REMARK VINA RESULT:      -6.1      1.969      2.924
REMARK  Name = 
REMARK  9 active torsions:
REMARK  status: ('A' for Active; 'I' for Inactive)
REMARK    1  A    between atoms: C_2  and  C_3
REMARK    2  A    between atoms: C_2  and  C_8
REMARK    3  A    between atoms: C_2  and  C_16
REMARK    4  A    between atoms: C_3  and  C_4
REMARK    5  A    between atoms: N_6  and  O_7
REMARK    6  A    between atoms: C_8  and  C_9
REMARK    7  A    between atoms: C_11  and  O_12
REMARK    8  A    between atoms: N_18  and  C_19
REMARK    9  A    between atoms: C_24  and  O_26
REMARK                            x       y       z     vdW  Elec       q    Type
REMARK                         _______ _______ _______ _____ _____    ______ ____
ROOT
ATOM      1  C   UNL     1       6.603  -4.050  23.870  0.00  0.00    +0.088 C 
ENDROOT
BRANCH   1   2
ATOM      2  C   UNL     1       6.691  -2.852  22.915  0.00  0.00    +0.217 C 
ATOM      3  N   UNL     1       7.677  -1.953  23.200  0.00  0.00    -0.306 N 
ATOM      4  H   UNL     1       8.469  -2.331  23.709  0.00  0.00    +0.149 HD
ATOM      5  O   UNL     1       5.935  -2.747  21.957  0.00  0.00    -0.275 OA
BRANCH   3   6
ATOM      6  C   UNL     1       7.972  -0.746  22.436  0.00  0.00    +0.132 C 
ATOM      7  C   UNL     1       9.495  -0.702  22.088  0.00  0.00    +0.143 C 
ATOM      8  C   UNL     1      10.191  -0.092  23.324  0.00  0.00    +0.069 C 
ATOM      9  C   UNL     1       9.120   0.815  23.845  0.00  0.00    -0.040 A 
ATOM     10  C   UNL     1       9.251   1.845  24.759  0.00  0.00    +0.004 A 
ATOM     11  C   UNL     1       8.127   2.621  25.046  0.00  0.00    +0.000 A 
ATOM     12  C   UNL     1       6.899   2.362  24.418  0.00  0.00    +0.000 A 
ATOM     13  C   UNL     1       6.765   1.286  23.536  0.00  0.00    +0.006 A 
ATOM     14  C   UNL     1       7.877   0.499  23.279  0.00  0.00    -0.022 A 
BRANCH   7  15
ATOM     15  O   UNL     1      10.036  -1.980  21.750  0.00  0.00    -0.389 OA
ATOM     16  H   UNL     1      10.767  -1.855  21.117  0.00  0.00    +0.210 HD
ENDBRANCH   7  15
ENDBRANCH   3   6
ENDBRANCH   1   2
BRANCH   1  17
ATOM     17  C   UNL     1       7.788  -5.010  23.604  0.00  0.00    +0.111 C 
BRANCH  17  18
ATOM     18  C   UNL     1       9.048  -4.731  24.417  0.00  0.00    +0.236 C 
ATOM     19  N   UNL     1       9.383  -5.732  25.297  0.00  0.00    -0.197 N 
ATOM     20  H   UNL     1       9.156  -6.704  25.106  0.00  0.00    +0.182 HD
ATOM     21  O   UNL     1       9.735  -3.716  24.315  0.00  0.00    -0.274 OA
BRANCH  19  22
ATOM     22  O   UNL     1      10.590  -5.514  26.007  0.00  0.00    -0.295 OA
ATOM     23  H   UNL     1      10.324  -5.652  26.943  0.00  0.00    +0.241 HD
ENDBRANCH  19  22
ENDBRANCH  17  18
ENDBRANCH   1  17
BRANCH   1  24
ATOM     24  C   UNL     1       6.477  -3.736  25.379  0.00  0.00    +0.048 C 
BRANCH  24  25
ATOM     25  C   UNL     1       5.601  -4.548  26.307  0.00  0.00    -0.043 A 
ATOM     26  C   UNL     1       4.210  -4.320  26.251  0.00  0.00    +0.004 A 
ATOM     27  C   UNL     1       3.309  -5.170  26.895  0.00  0.00    +0.004 A 
ATOM     28  C   UNL     1       3.782  -6.271  27.599  0.00  0.00    +0.045 A 
ATOM     29  C   UNL     1       5.151  -6.487  27.681  0.00  0.00    +0.117 A 
ATOM     30  C   UNL     1       6.061  -5.628  27.064  0.00  0.00    +0.049 A 
BRANCH  29  31
ATOM     31  O   UNL     1       5.583  -7.597  28.346  0.00  0.00    -0.507 OA
ATOM     32  H   UNL     1       5.572  -8.338  27.713  0.00  0.00    +0.292 HD
ENDBRANCH  29  31
ENDBRANCH  24  25
ENDBRANCH   1  24
TORSDOF 9
ENDMDL
MODEL 7
REMARK VINA RESULT:      -6.1      2.751      6.285
REMARK  Name = 
REMARK  9 active torsions:
REMARK  status: ('A' for Active; 'I' for Inactive)
REMARK    1  A    between atoms: C_2  and  C_3
REMARK    2  A    between atoms: C_2  and  C_8
REMARK    3  A    between atoms: C_2  and  C_16
REMARK    4  A    between atoms: C_3  and  C_4
REMARK    5  A    between atoms: N_6  and  O_7
REMARK    6  A    between atoms: C_8  and  C_9
REMARK    7  A    between atoms: C_11  and  O_12
REMARK    8  A    between atoms: N_18  and  C_19
REMARK    9  A    between atoms: C_24  and  O_26
REMARK                            x       y       z     vdW  Elec       q    Type
REMARK                         _______ _______ _______ _____ _____    ______ ____
ROOT
ATOM      1  C   UNL     1       8.537  -2.849  24.554  0.00  0.00    +0.088 C 
ENDROOT
BRANCH   1   2
ATOM      2  C   UNL     1       8.001  -4.260  24.280  0.00  0.00    +0.217 C 
ATOM      3  N   UNL     1       6.641  -4.369  24.250  0.00  0.00    -0.306 N 
ATOM      4  H   UNL     1       6.148  -3.518  24.005  0.00  0.00    +0.149 HD
ATOM      5  O   UNL     1       8.760  -5.201  24.078  0.00  0.00    -0.275 OA
BRANCH   3   6
ATOM      6  C   UNL     1       5.893  -5.596  23.994  0.00  0.00    +0.132 C 
ATOM      7  C   UNL     1       4.901  -5.369  22.808  0.00  0.00    +0.143 C 
ATOM      8  C   UNL     1       3.641  -4.727  23.431  0.00  0.00    +0.069 C 
ATOM      9  C   UNL     1       3.653  -5.331  24.801  0.00  0.00    -0.040 A 
ATOM     10  C   UNL     1       2.620  -5.369  25.720  0.00  0.00    +0.004 A 
ATOM     11  C   UNL     1       2.824  -6.059  26.917  0.00  0.00    +0.000 A 
ATOM     12  C   UNL     1       4.046  -6.699  27.173  0.00  0.00    +0.000 A 
ATOM     13  C   UNL     1       5.100  -6.609  26.261  0.00  0.00    +0.006 A 
ATOM     14  C   UNL     1       4.902  -5.897  25.088  0.00  0.00    -0.022 A 
BRANCH   7  15
ATOM     15  O   UNL     1       5.444  -4.564  21.761  0.00  0.00    -0.389 OA
ATOM     16  H   UNL     1       6.230  -4.096  22.098  0.00  0.00    +0.210 HD
ENDBRANCH   7  15
ENDBRANCH   3   6
ENDBRANCH   1   2
BRANCH   1  17
ATOM     17  C   UNL     1       8.676  -2.638  26.081  0.00  0.00    +0.111 C 
BRANCH  17  18
ATOM     18  C   UNL     1       7.899  -1.454  26.648  0.00  0.00    +0.236 C 
ATOM     19  N   UNL     1       8.687  -0.487  27.224  0.00  0.00    -0.197 N 
ATOM     20  H   UNL     1       9.633  -0.311  26.898  0.00  0.00    +0.182 HD
ATOM     21  O   UNL     1       6.675  -1.337  26.605  0.00  0.00    -0.274 OA
BRANCH  19  22
ATOM     22  O   UNL     1       7.980   0.649  27.692  0.00  0.00    -0.295 OA
ATOM     23  H   UNL     1       7.904   0.480  28.657  0.00  0.00    +0.241 HD
ENDBRANCH  19  22
ENDBRANCH  17  18
ENDBRANCH   1  17
BRANCH   1  24
ATOM     24  C   UNL     1       9.836  -2.438  23.821  0.00  0.00    +0.048 C 
BRANCH  24  25
ATOM     25  C   UNL     1      10.000  -1.090  23.154  0.00  0.00    -0.043 A 
ATOM     26  C   UNL     1       9.437  -0.929  21.872  0.00  0.00    +0.004 A 
ATOM     27  C   UNL     1       9.336   0.331  21.277  0.00  0.00    +0.004 A 
ATOM     28  C   UNL     1       9.790   1.454  21.959  0.00  0.00    +0.045 A 
ATOM     29  C   UNL     1      10.369   1.299  23.211  0.00  0.00    +0.117 A 
ATOM     30  C   UNL     1      10.499   0.042  23.802  0.00  0.00    +0.049 A 
BRANCH  29  31
ATOM     31  O   UNL     1      10.769   2.424  23.873  0.00  0.00    -0.507 OA
ATOM     32  H   UNL     1      11.556   2.188  24.397  0.00  0.00    +0.292 HD
ENDBRANCH  29  31
ENDBRANCH  24  25
ENDBRANCH   1  24
TORSDOF 9
ENDMDL
MODEL 8
REMARK VINA RESULT:      -6.1      2.435      5.943
REMARK  Name = 
REMARK  9 active torsions:
REMARK  status: ('A' for Active; 'I' for Inactive)
REMARK    1  A    between atoms: C_2  and  C_3
REMARK    2  A    between atoms: C_2  and  C_8
REMARK    3  A    between atoms: C_2  and  C_16
REMARK    4  A    between atoms: C_3  and  C_4
REMARK    5  A    between atoms: N_6  and  O_7
REMARK    6  A    between atoms: C_8  and  C_9
REMARK    7  A    between atoms: C_11  and  O_12
REMARK    8  A    between atoms: N_18  and  C_19
REMARK    9  A    between atoms: C_24  and  O_26
REMARK                            x       y       z     vdW  Elec       q    Type
REMARK                         _______ _______ _______ _____ _____    ______ ____
ROOT
ATOM      1  C   UNL     1       7.758   0.041  22.721  0.00  0.00    +0.088 C 
ENDROOT
BRANCH   1   2
ATOM      2  C   UNL     1       8.331  -1.382  22.705  0.00  0.00    +0.217 C 
ATOM      3  N   UNL     1       7.402  -2.382  22.680  0.00  0.00    -0.306 N 
ATOM      4  H   UNL     1       6.507  -2.126  22.276  0.00  0.00    +0.149 HD
ATOM      5  O   UNL     1       9.540  -1.581  22.689  0.00  0.00    -0.275 OA
BRANCH   3   6
ATOM      6  C   UNL     1       7.694  -3.811  22.644  0.00  0.00    +0.132 C 
ATOM      7  C   UNL     1       6.417  -4.599  22.208  0.00  0.00    +0.143 C 
ATOM      8  C   UNL     1       5.586  -4.798  23.495  0.00  0.00    +0.069 C 
ATOM      9  C   UNL     1       6.664  -4.869  24.531  0.00  0.00    -0.040 A 
ATOM     10  C   UNL     1       6.563  -5.330  25.831  0.00  0.00    +0.004 A 
ATOM     11  C   UNL     1       7.722  -5.383  26.607  0.00  0.00    +0.000 A 
ATOM     12  C   UNL     1       8.957  -4.981  26.075  0.00  0.00    +0.000 A 
ATOM     13  C   UNL     1       9.039  -4.467  24.779  0.00  0.00    +0.006 A 
ATOM     14  C   UNL     1       7.879  -4.389  24.023  0.00  0.00    -0.022 A 
BRANCH   7  15
ATOM     15  O   UNL     1       5.666  -3.940  21.187  0.00  0.00    -0.389 OA
ATOM     16  H   UNL     1       5.781  -4.425  20.349  0.00  0.00    +0.210 HD
ENDBRANCH   7  15
ENDBRANCH   3   6
ENDBRANCH   1   2
BRANCH   1  17
ATOM     17  C   UNL     1       7.041   0.293  24.069  0.00  0.00    +0.111 C 
BRANCH  17  18
ATOM     18  C   UNL     1       7.675  -0.383  25.281  0.00  0.00    +0.236 C 
ATOM     19  N   UNL     1       8.726   0.312  25.828  0.00  0.00    -0.197 N 
ATOM     20  H   UNL     1       8.772   1.326  25.783  0.00  0.00    +0.182 HD
ATOM     21  O   UNL     1       7.299  -1.452  25.760  0.00  0.00    -0.274 OA
BRANCH  19  22
ATOM     22  O   UNL     1       9.277  -0.273  26.996  0.00  0.00    -0.295 OA
ATOM     23  H   UNL     1       9.751  -1.059  26.647  0.00  0.00    +0.241 HD
ENDBRANCH  19  22
ENDBRANCH  17  18
ENDBRANCH   1  17
BRANCH   1  24
ATOM     24  C   UNL     1       8.736   1.193  22.394  0.00  0.00    +0.048 C 
BRANCH  24  25
ATOM     25  C   UNL     1       8.475   2.624  22.814  0.00  0.00    -0.043 A 
ATOM     26  C   UNL     1       9.379   3.206  23.726  0.00  0.00    +0.004 A 
ATOM     27  C   UNL     1       9.356   4.576  23.995  0.00  0.00    +0.004 A 
ATOM     28  C   UNL     1       8.435   5.391  23.347  0.00  0.00    +0.045 A 
ATOM     29  C   UNL     1       7.526   4.820  22.467  0.00  0.00    +0.117 A 
ATOM     30  C   UNL     1       7.522   3.449  22.212  0.00  0.00    +0.049 A 
BRANCH  29  31
ATOM     31  O   UNL     1       6.659   5.651  21.817  0.00  0.00    -0.507 OA
ATOM     32  H   UNL     1       6.315   5.165  21.045  0.00  0.00    +0.292 HD
ENDBRANCH  29  31
ENDBRANCH  24  25
ENDBRANCH   1  24
TORSDOF 9
ENDMDL
MODEL 9
REMARK VINA RESULT:      -6.1      2.334      4.119
REMARK  Name = 
REMARK  9 active torsions:
REMARK  status: ('A' for Active; 'I' for Inactive)
REMARK    1  A    between atoms: C_2  and  C_3
REMARK    2  A    between atoms: C_2  and  C_8
REMARK    3  A    between atoms: C_2  and  C_16
REMARK    4  A    between atoms: C_3  and  C_4
REMARK    5  A    between atoms: N_6  and  O_7
REMARK    6  A    between atoms: C_8  and  C_9
REMARK    7  A    between atoms: C_11  and  O_12
REMARK    8  A    between atoms: N_18  and  C_19
REMARK    9  A    between atoms: C_24  and  O_26
REMARK                            x       y       z     vdW  Elec       q    Type
REMARK                         _______ _______ _______ _____ _____    ______ ____
ROOT
ATOM      1  C   UNL     1       8.913  -2.819  23.453  0.00  0.00    +0.088 C 
ENDROOT
BRANCH   1   2
ATOM      2  C   UNL     1       9.643  -1.603  22.869  0.00  0.00    +0.217 C 
ATOM      3  N   UNL     1       9.041  -0.400  23.095  0.00  0.00    -0.306 N 
ATOM      4  H   UNL     1       8.451  -0.364  23.919  0.00  0.00    +0.149 HD
ATOM      5  O   UNL     1      10.704  -1.728  22.267  0.00  0.00    -0.275 OA
BRANCH   3   6
ATOM      6  C   UNL     1       9.546   0.898  22.658  0.00  0.00    +0.132 C 
ATOM      7  C   UNL     1      10.466   1.505  23.764  0.00  0.00    +0.143 C 
ATOM      8  C   UNL     1       9.518   2.207  24.761  0.00  0.00    +0.069 C 
ATOM      9  C   UNL     1       8.403   2.629  23.856  0.00  0.00    -0.040 A 
ATOM     10  C   UNL     1       7.405   3.552  24.111  0.00  0.00    +0.004 A 
ATOM     11  C   UNL     1       6.505   3.854  23.088  0.00  0.00    +0.000 A 
ATOM     12  C   UNL     1       6.616   3.237  21.833  0.00  0.00    +0.000 A 
ATOM     13  C   UNL     1       7.595   2.267  21.602  0.00  0.00    +0.006 A 
ATOM     14  C   UNL     1       8.467   1.949  22.632  0.00  0.00    -0.022 A 
BRANCH   7  15
ATOM     15  O   UNL     1      11.292   0.535  24.410  0.00  0.00    -0.389 OA
ATOM     16  H   UNL     1      11.138   0.581  25.372  0.00  0.00    +0.210 HD
ENDBRANCH   7  15
ENDBRANCH   3   6
ENDBRANCH   1   2
BRANCH   1  17
ATOM     17  C   UNL     1       9.476  -3.132  24.860  0.00  0.00    +0.111 C 
BRANCH  17  18
ATOM     18  C   UNL     1       9.211  -4.546  25.369  0.00  0.00    +0.236 C 
ATOM     19  N   UNL     1       8.592  -4.596  26.595  0.00  0.00    -0.197 N 
ATOM     20  H   UNL     1       7.956  -3.865  26.898  0.00  0.00    +0.182 HD
ATOM     21  O   UNL     1       9.504  -5.573  24.760  0.00  0.00    -0.274 OA
BRANCH  19  22
ATOM     22  O   UNL     1       8.279  -5.903  27.045  0.00  0.00    -0.295 OA
ATOM     23  H   UNL     1       8.773  -5.970  27.892  0.00  0.00    +0.241 HD
ENDBRANCH  19  22
ENDBRANCH  17  18
ENDBRANCH   1  17
BRANCH   1  24
ATOM     24  C   UNL     1       7.368  -2.764  23.478  0.00  0.00    +0.048 C 
BRANCH  24  25
ATOM     25  C   UNL     1       6.506  -3.854  22.880  0.00  0.00    -0.043 A 
ATOM     26  C   UNL     1       7.165  -4.925  22.243  0.00  0.00    +0.004 A 
ATOM     27  C   UNL     1       6.475  -6.080  21.866  0.00  0.00    +0.004 A 
ATOM     28  C   UNL     1       5.115  -6.188  22.129  0.00  0.00    +0.045 A 
ATOM     29  C   UNL     1       4.455  -5.127  22.733  0.00  0.00    +0.117 A 
ATOM     30  C   UNL     1       5.128  -3.958  23.089  0.00  0.00    +0.049 A 
BRANCH  29  31
ATOM     31  O   UNL     1       3.127  -5.278  23.015  0.00  0.00    -0.507 OA
ATOM     32  H   UNL     1       2.627  -4.863  22.289  0.00  0.00    +0.292 HD
ENDBRANCH  29  31
ENDBRANCH  24  25
ENDBRANCH   1  24
TORSDOF 9
ENDMDL
