MODEL 1
REMARK VINA RESULT:      -7.7      0.000      0.000
REMARK  Name = 
REMARK  7 active torsions:
REMARK  status: ('A' for Active; 'I' for Inactive)
REMARK    1  A    between atoms: O_1  and  C_2
REMARK    2  A    between atoms: C_2  and  C_4
REMARK    3  A    between atoms: C_4  and  N_29
REMARK    4  A    between atoms: N_7  and  C_8
REMARK    5  A    between atoms: C_8  and  C_9
REMARK    6  A    between atoms: C_9  and  C_10
REMARK    7  A    between atoms: C_10  and  N_11
REMARK                            x       y       z     vdW  Elec       q    Type
REMARK                         _______ _______ _______ _____ _____    ______ ____
ROOT
ATOM      1  C   UNL     1       8.437  -1.488  25.505  0.00  0.00    +0.086 C 
ENDROOT
BRANCH   1   5
ATOM      2  C   UNL     1       8.465   1.319  23.215  0.00  0.00    +0.100 C 
ATOM      3  C   UNL     1       9.432   1.191  24.425  0.00  0.00    +0.047 C 
ATOM      4  C   UNL     1      10.202  -0.130  24.510  0.00  0.00    +0.086 C 
ATOM      5  N   UNL     1       9.354  -1.321  24.361  0.00  0.00    -0.302 NA
ATOM      6  C   UNL     1       8.701  -1.246  23.047  0.00  0.00    +0.086 C 
ATOM      7  C   UNL     1       7.766  -0.042  22.907  0.00  0.00    +0.047 C 
BRANCH   2   8
ATOM      8  N   UNL     1       7.421   2.406  23.358  0.00  0.00    -0.289 NA
ATOM      9  C   UNL     1       7.696   3.486  24.313  0.00  0.00    +0.085 C 
ATOM     10  C   UNL     1       7.421   3.126  25.773  0.00  0.00    +0.015 C 
ATOM     11  C   UNL     1       6.049   2.509  25.996  0.00  0.00    +0.002 C 
ATOM     12  C   UNL     1       5.528   1.620  24.868  0.00  0.00    +0.015 C 
ATOM     13  C   UNL     1       6.008   2.022  23.472  0.00  0.00    +0.085 C 
ENDBRANCH   2   8
BRANCH   2  14
ATOM     14  C   UNL     1       9.307   1.650  21.945  0.00  0.00    +0.201 C 
ATOM     15  N   UNL     1      10.398   2.334  21.937  0.00  0.00    -0.270 NA
ATOM     16  H   UNL     1      10.772   2.445  20.999  0.00  0.00    +0.190 HD
BRANCH  14  17
ATOM     17  O   UNL     1       8.810   1.208  20.780  0.00  0.00    -0.495 OA
ATOM     18  H   UNL     1       7.907   0.871  20.871  0.00  0.00    +0.293 HD
ENDBRANCH  14  17
ENDBRANCH   2  14
ENDBRANCH   1   5
BRANCH   1  19
ATOM     19  C   UNL     1       8.641  -2.768  26.320  0.00  0.00    +0.035 C 
BRANCH  19  20
ATOM     20  C   UNL     1       8.653  -4.055  25.487  0.00  0.00    +0.112 C 
BRANCH  20  21
ATOM     21  N   UNL     1       7.267  -4.526  25.217  0.00  0.00    -0.300 N 
ATOM     22  C   UNL     1       6.371  -4.591  26.306  0.00  0.00    +0.039 A 
ATOM     23  C   UNL     1       6.740  -5.391  27.411  0.00  0.00    +0.043 A 
ATOM     24  C   UNL     1       5.890  -5.583  28.501  0.00  0.00    +0.043 A 
ATOM     25  C   UNL     1       4.646  -4.976  28.534  0.00  0.00    +0.020 A 
ATOM     26  C   UNL     1       4.251  -4.195  27.453  0.00  0.00    +0.007 A 
ATOM     27 CL   UNL     1       6.372  -6.606  29.798  0.00  0.00    -0.083 Cl
ATOM     28  C   UNL     1       5.087  -3.997  26.328  0.00  0.00    -0.026 A 
ATOM     29  C   UNL     1       4.467  -3.168  25.223  0.00  0.00    +0.042 C 
ATOM     30  C   UNL     1       5.377  -2.580  24.160  0.00  0.00    +0.042 C 
ATOM     31  C   UNL     1       5.985  -3.654  23.304  0.00  0.00    -0.026 A 
ATOM     32  C   UNL     1       5.607  -3.773  21.956  0.00  0.00    +0.005 A 
ATOM     33  C   UNL     1       6.160  -4.766  21.149  0.00  0.00    +0.000 A 
ATOM     34  C   UNL     1       7.111  -5.634  21.674  0.00  0.00    +0.002 A 
ATOM     35  C   UNL     1       7.490  -5.518  23.012  0.00  0.00    +0.024 A 
ATOM     36  C   UNL     1       6.921  -4.542  23.849  0.00  0.00    +0.037 A 
ENDBRANCH  20  21
ENDBRANCH  19  20
ENDBRANCH   1  19
TORSDOF 7
ENDMDL
MODEL 2
REMARK VINA RESULT:      -7.7      3.685      7.705
REMARK  Name = 
REMARK  7 active torsions:
REMARK  status: ('A' for Active; 'I' for Inactive)
REMARK    1  A    between atoms: O_1  and  C_2
REMARK    2  A    between atoms: C_2  and  C_4
REMARK    3  A    between atoms: C_4  and  N_29
REMARK    4  A    between atoms: N_7  and  C_8
REMARK    5  A    between atoms: C_8  and  C_9
REMARK    6  A    between atoms: C_9  and  C_10
REMARK    7  A    between atoms: C_10  and  N_11
REMARK                            x       y       z     vdW  Elec       q    Type
REMARK                         _______ _______ _______ _____ _____    ______ ____
ROOT
ATOM      1  C   UNL     1       4.948  -2.527  26.701  0.00  0.00    +0.086 C 
ENDROOT
BRANCH   1   5
ATOM      2  C   UNL     1       4.022  -5.985  27.256  0.00  0.00    +0.100 C 
ATOM      3  C   UNL     1       5.306  -5.555  26.495  0.00  0.00    +0.047 C 
ATOM      4  C   UNL     1       6.199  -4.553  27.233  0.00  0.00    +0.086 C 
ATOM      5  N   UNL     1       5.471  -3.396  27.773  0.00  0.00    -0.302 NA
ATOM      6  C   UNL     1       4.460  -3.900  28.712  0.00  0.00    +0.086 C 
ATOM      7  C   UNL     1       3.407  -4.787  28.045  0.00  0.00    +0.047 C 
BRANCH   2   8
ATOM      8  N   UNL     1       2.959  -6.619  26.385  0.00  0.00    -0.289 NA
ATOM      9  C   UNL     1       3.408  -7.521  25.317  0.00  0.00    +0.085 C 
ATOM     10  C   UNL     1       3.916  -6.811  24.062  0.00  0.00    +0.015 C 
ATOM     11  C   UNL     1       2.962  -5.747  23.540  0.00  0.00    +0.002 C 
ATOM     12  C   UNL     1       2.180  -4.976  24.602  0.00  0.00    +0.015 C 
ATOM     13  C   UNL     1       1.871  -5.779  25.868  0.00  0.00    +0.085 C 
ENDBRANCH   2   8
BRANCH   2  14
ATOM     14  C   UNL     1       4.419  -7.035  28.339  0.00  0.00    +0.201 C 
ATOM     15  N   UNL     1       3.662  -7.427  29.304  0.00  0.00    -0.270 NA
ATOM     16  H   UNL     1       4.127  -8.103  29.903  0.00  0.00    +0.190 HD
BRANCH  14  17
ATOM     17  O   UNL     1       5.668  -7.519  28.256  0.00  0.00    -0.495 OA
ATOM     18  H   UNL     1       6.337  -6.824  28.340  0.00  0.00    +0.293 HD
ENDBRANCH  14  17
ENDBRANCH   2  14
ENDBRANCH   1   5
BRANCH   1  19
ATOM     19  C   UNL     1       6.013  -1.852  25.832  0.00  0.00    +0.035 C 
BRANCH  19  20
ATOM     20  C   UNL     1       5.649  -1.755  24.346  0.00  0.00    +0.112 C 
BRANCH  20  21
ATOM     21  N   UNL     1       6.820  -2.086  23.489  0.00  0.00    -0.300 N 
ATOM     22  C   UNL     1       7.903  -1.180  23.477  0.00  0.00    +0.039 A 
ATOM     23  C   UNL     1       7.635   0.155  23.099  0.00  0.00    +0.043 A 
ATOM     24  C   UNL     1       8.649   1.107  22.981  0.00  0.00    +0.043 A 
ATOM     25  C   UNL     1       9.965   0.765  23.244  0.00  0.00    +0.020 A 
ATOM     26  C   UNL     1      10.258  -0.547  23.602  0.00  0.00    +0.007 A 
ATOM     27 CL   UNL     1       8.271   2.707  22.471  0.00  0.00    -0.083 Cl
ATOM     28  C   UNL     1       9.251  -1.535  23.715  0.00  0.00    -0.026 A 
ATOM     29  C   UNL     1       9.765  -2.919  24.055  0.00  0.00    +0.042 C 
ATOM     30  C   UNL     1       8.778  -3.953  24.567  0.00  0.00    +0.042 C 
ATOM     31  C   UNL     1       7.797  -4.347  23.501  0.00  0.00    -0.026 A 
ATOM     32  C   UNL     1       7.837  -5.641  22.956  0.00  0.00    +0.005 A 
ATOM     33  C   UNL     1       6.935  -6.022  21.964  0.00  0.00    +0.000 A 
ATOM     34  C   UNL     1       5.971  -5.123  21.524  0.00  0.00    +0.002 A 
ATOM     35  C   UNL     1       5.926  -3.837  22.064  0.00  0.00    +0.024 A 
ATOM     36  C   UNL     1       6.847  -3.425  23.043  0.00  0.00    +0.037 A 
ENDBRANCH  20  21
ENDBRANCH  19  20
ENDBRANCH   1  19
TORSDOF 7
ENDMDL
MODEL 3
REMARK VINA RESULT:      -7.2      3.470      7.745
REMARK  Name = 
REMARK  7 active torsions:
REMARK  status: ('A' for Active; 'I' for Inactive)
REMARK    1  A    between atoms: O_1  and  C_2
REMARK    2  A    between atoms: C_2  and  C_4
REMARK    3  A    between atoms: C_4  and  N_29
REMARK    4  A    between atoms: N_7  and  C_8
REMARK    5  A    between atoms: C_8  and  C_9
REMARK    6  A    between atoms: C_9  and  C_10
REMARK    7  A    between atoms: C_10  and  N_11
REMARK                            x       y       z     vdW  Elec       q    Type
REMARK                         _______ _______ _______ _____ _____    ______ ____
ROOT
ATOM      1  C   UNL     1       6.616  -0.908  25.553  0.00  0.00    +0.086 C 
ENDROOT
BRANCH   1   5
ATOM      2  C   UNL     1       7.417  -4.423  25.206  0.00  0.00    +0.100 C 
ATOM      3  C   UNL     1       8.283  -3.284  24.600  0.00  0.00    +0.047 C 
ATOM      4  C   UNL     1       8.695  -2.184  25.582  0.00  0.00    +0.086 C 
ATOM      5  N   UNL     1       7.581  -1.655  26.382  0.00  0.00    -0.302 NA
ATOM      6  C   UNL     1       7.008  -2.772  27.147  0.00  0.00    +0.086 C 
ATOM      7  C   UNL     1       6.410  -3.865  26.260  0.00  0.00    +0.047 C 
BRANCH   2   8
ATOM      8  N   UNL     1       6.674  -5.258  24.185  0.00  0.00    -0.289 NA
ATOM      9  C   UNL     1       7.338  -5.501  22.898  0.00  0.00    +0.085 C 
ATOM     10  C   UNL     1       7.249  -4.338  21.911  0.00  0.00    +0.015 C 
ATOM     11  C   UNL     1       5.836  -3.806  21.727  0.00  0.00    +0.002 C 
ATOM     12  C   UNL     1       4.948  -3.836  22.968  0.00  0.00    +0.015 C 
ATOM     13  C   UNL     1       5.253  -4.979  23.939  0.00  0.00    +0.085 C 
ENDBRANCH   2   8
BRANCH   2  14
ATOM     14  C   UNL     1       8.354  -5.386  25.998  0.00  0.00    +0.201 C 
ATOM     15  N   UNL     1       9.579  -5.643  25.695  0.00  0.00    -0.270 NA
ATOM     16  H   UNL     1       9.998  -6.312  26.335  0.00  0.00    +0.190 HD
BRANCH  14  17
ATOM     17  O   UNL     1       7.800  -6.012  27.047  0.00  0.00    -0.495 OA
ATOM     18  H   UNL     1       6.953  -6.424  26.823  0.00  0.00    +0.293 HD
ENDBRANCH  14  17
ENDBRANCH   2  14
ENDBRANCH   1   5
BRANCH   1  19
ATOM     19  C   UNL     1       6.827   0.609  25.517  0.00  0.00    +0.035 C 
BRANCH  19  20
ATOM     20  C   UNL     1       6.332   1.286  24.234  0.00  0.00    +0.112 C 
BRANCH  20  21
ATOM     21  N   UNL     1       7.475   1.766  23.411  0.00  0.00    -0.300 N 
ATOM     22  C   UNL     1       7.722   3.156  23.375  0.00  0.00    +0.039 A 
ATOM     23  C   UNL     1       6.674   3.995  22.934  0.00  0.00    +0.043 A 
ATOM     24  C   UNL     1       6.843   5.373  22.789  0.00  0.00    +0.043 A 
ATOM     25  C   UNL     1       8.058   5.965  23.087  0.00  0.00    +0.020 A 
ATOM     26  C   UNL     1       9.111   5.160  23.508  0.00  0.00    +0.007 A 
ATOM     27 CL   UNL     1       5.546   6.341  22.202  0.00  0.00    -0.083 Cl
ATOM     28  C   UNL     1       8.972   3.758  23.650  0.00  0.00    -0.026 A 
ATOM     29  C   UNL     1      10.240   3.039  24.059  0.00  0.00    +0.042 C 
ATOM     30  C   UNL     1      10.129   1.625  24.602  0.00  0.00    +0.042 C 
ATOM     31  C   UNL     1       9.675   0.666  23.539  0.00  0.00    -0.026 A 
ATOM     32  C   UNL     1      10.560  -0.311  23.053  0.00  0.00    +0.005 A 
ATOM     33  C   UNL     1      10.155  -1.207  22.066  0.00  0.00    +0.000 A 
ATOM     34  C   UNL     1       8.857  -1.151  21.571  0.00  0.00    +0.002 A 
ATOM     35  C   UNL     1       7.974  -0.183  22.052  0.00  0.00    +0.024 A 
ATOM     36  C   UNL     1       8.374   0.748  23.026  0.00  0.00    +0.037 A 
ENDBRANCH  20  21
ENDBRANCH  19  20
ENDBRANCH   1  19
TORSDOF 7
ENDMDL
MODEL 4
REMARK VINA RESULT:      -7.1      2.835      7.751
REMARK  Name = 
REMARK  7 active torsions:
REMARK  status: ('A' for Active; 'I' for Inactive)
REMARK    1  A    between atoms: O_1  and  C_2
REMARK    2  A    between atoms: C_2  and  C_4
REMARK    3  A    between atoms: C_4  and  N_29
REMARK    4  A    between atoms: N_7  and  C_8
REMARK    5  A    between atoms: C_8  and  C_9
REMARK    6  A    between atoms: C_9  and  C_10
REMARK    7  A    between atoms: C_10  and  N_11
REMARK                            x       y       z     vdW  Elec       q    Type
REMARK                         _______ _______ _______ _____ _____    ______ ____
ROOT
ATOM      1  C   UNL     1       6.671  -0.105  25.262  0.00  0.00    +0.086 C 
ENDROOT
BRANCH   1   5
ATOM      2  C   UNL     1       7.116  -3.673  25.705  0.00  0.00    +0.100 C 
ATOM      3  C   UNL     1       8.287  -2.694  25.412  0.00  0.00    +0.047 C 
ATOM      4  C   UNL     1       8.373  -1.481  26.341  0.00  0.00    +0.086 C 
ATOM      5  N   UNL     1       7.097  -0.770  26.509  0.00  0.00    -0.302 NA
ATOM      6  C   UNL     1       6.125  -1.719  27.070  0.00  0.00    +0.086 C 
ATOM      7  C   UNL     1       5.832  -2.900  26.142  0.00  0.00    +0.047 C 
BRANCH   2   8
ATOM      8  N   UNL     1       6.781  -4.611  24.565  0.00  0.00    -0.289 NA
ATOM      9  C   UNL     1       7.714  -4.659  23.433  0.00  0.00    +0.085 C 
ATOM     10  C   UNL     1       7.563  -3.509  22.439  0.00  0.00    +0.015 C 
ATOM     11  C   UNL     1       6.129  -3.288  21.982  0.00  0.00    +0.002 C 
ATOM     12  C   UNL     1       5.049  -3.553  23.029  0.00  0.00    +0.015 C 
ATOM     13  C   UNL     1       5.407  -4.637  24.048  0.00  0.00    +0.085 C 
ENDBRANCH   2   8
BRANCH   2  14
ATOM     14  C   UNL     1       7.506  -4.554  26.931  0.00  0.00    +0.201 C 
ATOM     15  N   UNL     1       6.699  -4.931  27.860  0.00  0.00    -0.270 NA
ATOM     16  H   UNL     1       7.167  -5.485  28.572  0.00  0.00    +0.190 HD
BRANCH  14  17
ATOM     17  O   UNL     1       8.800  -4.898  27.017  0.00  0.00    -0.495 OA
ATOM     18  H   UNL     1       9.034  -5.605  26.399  0.00  0.00    +0.293 HD
ENDBRANCH  14  17
ENDBRANCH   2  14
ENDBRANCH   1   5
BRANCH   1  19
ATOM     19  C   UNL     1       6.643   1.425  25.318  0.00  0.00    +0.035 C 
BRANCH  19  20
ATOM     20  C   UNL     1       8.017   2.076  25.514  0.00  0.00    +0.112 C 
BRANCH  20  21
ATOM     21  N   UNL     1       8.592   2.507  24.211  0.00  0.00    -0.300 N 
ATOM     22  C   UNL     1       8.787   1.520  23.219  0.00  0.00    +0.039 A 
ATOM     23  C   UNL     1       9.606   0.416  23.547  0.00  0.00    +0.043 A 
ATOM     24  C   UNL     1       9.922  -0.572  22.614  0.00  0.00    +0.043 A 
ATOM     25  C   UNL     1       9.427  -0.501  21.323  0.00  0.00    +0.020 A 
ATOM     26  C   UNL     1       8.631   0.584  20.969  0.00  0.00    +0.007 A 
ATOM     27 CL   UNL     1      10.963  -1.870  23.055  0.00  0.00    -0.083 Cl
ATOM     28  C   UNL     1       8.307   1.607  21.892  0.00  0.00    -0.026 A 
ATOM     29  C   UNL     1       7.481   2.737  21.312  0.00  0.00    +0.042 C 
ATOM     30  C   UNL     1       6.765   3.676  22.267  0.00  0.00    +0.042 C 
ATOM     31  C   UNL     1       7.740   4.506  23.051  0.00  0.00    -0.026 A 
ATOM     32  C   UNL     1       7.825   5.890  22.822  0.00  0.00    +0.005 A 
ATOM     33  C   UNL     1       8.726   6.674  23.540  0.00  0.00    +0.000 A 
ATOM     34  C   UNL     1       9.534   6.088  24.508  0.00  0.00    +0.002 A 
ATOM     35  C   UNL     1       9.452   4.715  24.741  0.00  0.00    +0.024 A 
ATOM     36  C   UNL     1       8.570   3.903  24.005  0.00  0.00    +0.037 A 
ENDBRANCH  20  21
ENDBRANCH  19  20
ENDBRANCH   1  19
TORSDOF 7
ENDMDL
MODEL 5
REMARK VINA RESULT:      -7.1      2.147      4.027
REMARK  Name = 
REMARK  7 active torsions:
REMARK  status: ('A' for Active; 'I' for Inactive)
REMARK    1  A    between atoms: O_1  and  C_2
REMARK    2  A    between atoms: C_2  and  C_4
REMARK    3  A    between atoms: C_4  and  N_29
REMARK    4  A    between atoms: N_7  and  C_8
REMARK    5  A    between atoms: C_8  and  C_9
REMARK    6  A    between atoms: C_9  and  C_10
REMARK    7  A    between atoms: C_10  and  N_11
REMARK                            x       y       z     vdW  Elec       q    Type
REMARK                         _______ _______ _______ _____ _____    ______ ____
ROOT
ATOM      1  C   UNL     1       6.402  -0.022  25.897  0.00  0.00    +0.086 C 
ENDROOT
BRANCH   1   5
ATOM      2  C   UNL     1       8.477   1.957  23.685  0.00  0.00    +0.100 C 
ATOM      3  C   UNL     1       7.276   1.103  23.194  0.00  0.00    +0.047 C 
ATOM      4  C   UNL     1       5.956   1.349  23.929  0.00  0.00    +0.086 C 
ATOM      5  N   UNL     1       6.079   1.327  25.393  0.00  0.00    -0.302 NA
ATOM      6  C   UNL     1       7.030   2.378  25.780  0.00  0.00    +0.086 C 
ATOM      7  C   UNL     1       8.440   2.144  25.234  0.00  0.00    +0.047 C 
BRANCH   2   8
ATOM      8  N   UNL     1       9.834   1.430  23.268  0.00  0.00    -0.289 NA
ATOM      9  C   UNL     1      10.012   1.056  21.860  0.00  0.00    +0.085 C 
ATOM     10  C   UNL     1       9.443  -0.314  21.493  0.00  0.00    +0.015 C 
ATOM     11  C   UNL     1       9.885  -1.425  22.434  0.00  0.00    +0.002 C 
ATOM     12  C   UNL     1      10.058  -1.027  23.898  0.00  0.00    +0.015 C 
ATOM     13  C   UNL     1      10.494   0.425  24.112  0.00  0.00    +0.085 C 
ENDBRANCH   2   8
BRANCH   2  14
ATOM     14  C   UNL     1       8.337   3.392  23.090  0.00  0.00    +0.201 C 
ATOM     15  N   UNL     1       7.581   3.712  22.097  0.00  0.00    -0.270 NA
ATOM     16  H   UNL     1       7.655   4.698  21.863  0.00  0.00    +0.190 HD
BRANCH  14  17
ATOM     17  O   UNL     1       9.105   4.338  23.652  0.00  0.00    -0.495 OA
ATOM     18  H   UNL     1       9.554   4.884  22.992  0.00  0.00    +0.293 HD
ENDBRANCH  14  17
ENDBRANCH   2  14
ENDBRANCH   1   5
BRANCH   1  19
ATOM     19  C   UNL     1       5.376  -1.107  25.556  0.00  0.00    +0.035 C 
BRANCH  19  20
ATOM     20  C   UNL     1       5.336  -2.274  26.548  0.00  0.00    +0.112 C 
BRANCH  20  21
ATOM     21  N   UNL     1       5.483  -3.576  25.843  0.00  0.00    -0.300 N 
ATOM     22  C   UNL     1       4.341  -4.113  25.209  0.00  0.00    +0.039 A 
ATOM     23  C   UNL     1       3.197  -4.342  26.006  0.00  0.00    +0.043 A 
ATOM     24  C   UNL     1       2.045  -4.941  25.492  0.00  0.00    +0.043 A 
ATOM     25  C   UNL     1       1.989  -5.324  24.163  0.00  0.00    +0.020 A 
ATOM     26  C   UNL     1       3.107  -5.125  23.360  0.00  0.00    +0.007 A 
ATOM     27 CL   UNL     1       0.698  -5.238  26.521  0.00  0.00    -0.083 Cl
ATOM     28  C   UNL     1       4.292  -4.534  23.860  0.00  0.00    -0.026 A 
ATOM     29  C   UNL     1       5.425  -4.453  22.857  0.00  0.00    +0.042 C 
ATOM     30  C   UNL     1       6.586  -3.518  23.148  0.00  0.00    +0.042 C 
ATOM     31  C   UNL     1       7.383  -3.989  24.331  0.00  0.00    -0.026 A 
ATOM     32  C   UNL     1       8.691  -4.467  24.148  0.00  0.00    +0.005 A 
ATOM     33  C   UNL     1       9.443  -4.909  25.235  0.00  0.00    +0.000 A 
ATOM     34  C   UNL     1       8.904  -4.858  26.516  0.00  0.00    +0.002 A 
ATOM     35  C   UNL     1       7.606  -4.382  26.702  0.00  0.00    +0.024 A 
ATOM     36  C   UNL     1       6.821  -3.960  25.614  0.00  0.00    +0.037 A 
ENDBRANCH  20  21
ENDBRANCH  19  20
ENDBRANCH   1  19
TORSDOF 7
ENDMDL
MODEL 6
REMARK VINA RESULT:      -6.8      3.406      8.086
REMARK  Name = 
REMARK  7 active torsions:
REMARK  status: ('A' for Active; 'I' for Inactive)
REMARK    1  A    between atoms: O_1  and  C_2
REMARK    2  A    between atoms: C_2  and  C_4
REMARK    3  A    between atoms: C_4  and  N_29
REMARK    4  A    between atoms: N_7  and  C_8
REMARK    5  A    between atoms: C_8  and  C_9
REMARK    6  A    between atoms: C_9  and  C_10
REMARK    7  A    between atoms: C_10  and  N_11
REMARK                            x       y       z     vdW  Elec       q    Type
REMARK                         _______ _______ _______ _____ _____    ______ ____
ROOT
ATOM      1  C   UNL     1       7.750  -0.869  23.788  0.00  0.00    +0.086 C 
ENDROOT
BRANCH   1   5
ATOM      2  C   UNL     1       7.999  -4.292  24.946  0.00  0.00    +0.100 C 
ATOM      3  C   UNL     1       8.744  -3.757  23.692  0.00  0.00    +0.047 C 
ATOM      4  C   UNL     1       9.571  -2.487  23.916  0.00  0.00    +0.086 C 
ATOM      5  N   UNL     1       8.842  -1.420  24.615  0.00  0.00    -0.302 NA
ATOM      6  C   UNL     1       8.425  -1.942  25.924  0.00  0.00    +0.086 C 
ATOM      7  C   UNL     1       7.454  -3.120  25.821  0.00  0.00    +0.047 C 
BRANCH   2   8
ATOM      8  N   UNL     1       6.878  -5.263  24.642  0.00  0.00    -0.289 NA
ATOM      9  C   UNL     1       6.571  -5.522  23.230  0.00  0.00    +0.085 C 
ATOM     10  C   UNL     1       5.725  -4.442  22.558  0.00  0.00    +0.015 C 
ATOM     11  C   UNL     1       4.479  -4.070  23.348  0.00  0.00    +0.002 C 
ATOM     12  C   UNL     1       4.621  -4.107  24.868  0.00  0.00    +0.015 C 
ATOM     13  C   UNL     1       5.617  -5.147  25.386  0.00  0.00    +0.085 C 
ENDBRANCH   2   8
BRANCH   2  14
ATOM     14  C   UNL     1       9.027  -5.041  25.848  0.00  0.00    +0.201 C 
ATOM     15  N   UNL     1      10.129  -5.567  25.437  0.00  0.00    -0.270 NA
ATOM     16  H   UNL     1      10.639  -6.021  26.189  0.00  0.00    +0.190 HD
BRANCH  14  17
ATOM     17  O   UNL     1       8.693  -5.164  27.141  0.00  0.00    -0.495 OA
ATOM     18  H   UNL     1       9.096  -5.943  27.551  0.00  0.00    +0.293 HD
ENDBRANCH  14  17
ENDBRANCH   2  14
ENDBRANCH   1   5
BRANCH   1  19
ATOM     19  C   UNL     1       8.025   0.511  23.184  0.00  0.00    +0.035 C 
BRANCH  19  20
ATOM     20  C   UNL     1       8.900   1.420  24.054  0.00  0.00    +0.112 C 
BRANCH  20  21
ATOM     21  N   UNL     1       8.123   2.588  24.551  0.00  0.00    -0.300 N 
ATOM     22  C   UNL     1       8.465   3.865  24.053  0.00  0.00    +0.039 A 
ATOM     23  C   UNL     1       9.796   4.303  24.234  0.00  0.00    +0.043 A 
ATOM     24  C   UNL     1      10.213   5.578  23.848  0.00  0.00    +0.043 A 
ATOM     25  C   UNL     1       9.322   6.458  23.259  0.00  0.00    +0.020 A 
ATOM     26  C   UNL     1       8.001   6.058  23.084  0.00  0.00    +0.007 A 
ATOM     27 CL   UNL     1      11.836   6.075  24.136  0.00  0.00    -0.083 Cl
ATOM     28  C   UNL     1       7.548   4.777  23.479  0.00  0.00    -0.026 A 
ATOM     29  C   UNL     1       6.067   4.540  23.266  0.00  0.00    +0.042 C 
ATOM     30  C   UNL     1       5.550   3.113  23.293  0.00  0.00    +0.042 C 
ATOM     31  C   UNL     1       5.664   2.516  24.666  0.00  0.00    -0.026 A 
ATOM     32  C   UNL     1       4.504   2.236  25.407  0.00  0.00    +0.005 A 
ATOM     33  C   UNL     1       4.593   1.684  26.684  0.00  0.00    +0.000 A 
ATOM     34  C   UNL     1       5.839   1.385  27.222  0.00  0.00    +0.002 A 
ATOM     35  C   UNL     1       6.994   1.659  26.489  0.00  0.00    +0.024 A 
ATOM     36  C   UNL     1       6.925   2.244  25.212  0.00  0.00    +0.037 A 
ENDBRANCH  20  21
ENDBRANCH  19  20
ENDBRANCH   1  19
TORSDOF 7
ENDMDL
MODEL 7
REMARK VINA RESULT:      -6.7      3.130      7.559
REMARK  Name = 
REMARK  7 active torsions:
REMARK  status: ('A' for Active; 'I' for Inactive)
REMARK    1  A    between atoms: O_1  and  C_2
REMARK    2  A    between atoms: C_2  and  C_4
REMARK    3  A    between atoms: C_4  and  N_29
REMARK    4  A    between atoms: N_7  and  C_8
REMARK    5  A    between atoms: C_8  and  C_9
REMARK    6  A    between atoms: C_9  and  C_10
REMARK    7  A    between atoms: C_10  and  N_11
REMARK                            x       y       z     vdW  Elec       q    Type
REMARK                         _______ _______ _______ _____ _____    ______ ____
ROOT
ATOM      1  C   UNL     1       5.673  -1.035  25.622  0.00  0.00    +0.086 C 
ENDROOT
BRANCH   1   5
ATOM      2  C   UNL     1       7.140  -4.346  25.621  0.00  0.00    +0.100 C 
ATOM      3  C   UNL     1       7.929  -3.061  25.245  0.00  0.00    +0.047 C 
ATOM      4  C   UNL     1       7.851  -1.924  26.268  0.00  0.00    +0.086 C 
ATOM      5  N   UNL     1       6.483  -1.616  26.709  0.00  0.00    -0.302 NA
ATOM      6  C   UNL     1       5.923  -2.831  27.318  0.00  0.00    +0.086 C 
ATOM      7  C   UNL     1       5.797  -3.995  26.334  0.00  0.00    +0.047 C 
BRANCH   2   8
ATOM      8  N   UNL     1       6.871  -5.279  24.459  0.00  0.00    -0.289 NA
ATOM      9  C   UNL     1       7.746  -5.169  23.286  0.00  0.00    +0.085 C 
ATOM     10  C   UNL     1       7.404  -4.013  22.347  0.00  0.00    +0.015 C 
ATOM     11  C   UNL     1       5.933  -3.960  21.962  0.00  0.00    +0.002 C 
ATOM     12  C   UNL     1       4.947  -4.395  23.044  0.00  0.00    +0.015 C 
ATOM     13  C   UNL     1       5.487  -5.460  24.001  0.00  0.00    +0.085 C 
ENDBRANCH   2   8
BRANCH   2  14
ATOM     14  C   UNL     1       7.972  -5.144  26.671  0.00  0.00    +0.201 C 
ATOM     15  N   UNL     1       7.477  -5.887  27.599  0.00  0.00    -0.270 NA
ATOM     16  H   UNL     1       8.198  -6.300  28.184  0.00  0.00    +0.190 HD
BRANCH  14  17
ATOM     17  O   UNL     1       9.303  -4.994  26.601  0.00  0.00    -0.495 OA
ATOM     18  H   UNL     1       9.764  -5.842  26.523  0.00  0.00    +0.293 HD
ENDBRANCH  14  17
ENDBRANCH   2  14
ENDBRANCH   1   5
BRANCH   1  19
ATOM     19  C   UNL     1       5.366   0.459  25.766  0.00  0.00    +0.035 C 
BRANCH  19  20
ATOM     20  C   UNL     1       6.564   1.379  25.506  0.00  0.00    +0.112 C 
BRANCH  20  21
ATOM     21  N   UNL     1       6.581   1.842  24.092  0.00  0.00    -0.300 N 
ATOM     22  C   UNL     1       5.739   2.921  23.743  0.00  0.00    +0.039 A 
ATOM     23  C   UNL     1       4.354   2.775  23.984  0.00  0.00    +0.043 A 
ATOM     24  C   UNL     1       3.432   3.750  23.604  0.00  0.00    +0.043 A 
ATOM     25  C   UNL     1       3.856   4.910  22.980  0.00  0.00    +0.020 A 
ATOM     26  C   UNL     1       5.212   5.073  22.716  0.00  0.00    +0.007 A 
ATOM     27 CL   UNL     1       1.751   3.498  23.880  0.00  0.00    -0.083 Cl
ATOM     28  C   UNL     1       6.167   4.093  23.078  0.00  0.00    -0.026 A 
ATOM     29  C   UNL     1       7.587   4.415  22.657  0.00  0.00    +0.042 C 
ATOM     30  C   UNL     1       8.726   3.648  23.306  0.00  0.00    +0.042 C 
ATOM     31  C   UNL     1       8.709   2.201  22.905  0.00  0.00    -0.026 A 
ATOM     32  C   UNL     1       9.727   1.689  22.083  0.00  0.00    +0.005 A 
ATOM     33  C   UNL     1       9.724   0.350  21.700  0.00  0.00    +0.000 A 
ATOM     34  C   UNL     1       8.719  -0.497  22.152  0.00  0.00    +0.002 A 
ATOM     35  C   UNL     1       7.707   0.006  22.971  0.00  0.00    +0.024 A 
ATOM     36  C   UNL     1       7.676   1.362  23.342  0.00  0.00    +0.037 A 
ENDBRANCH  20  21
ENDBRANCH  19  20
ENDBRANCH   1  19
TORSDOF 7
ENDMDL
MODEL 8
REMARK VINA RESULT:      -6.7      2.377      3.570
REMARK  Name = 
REMARK  7 active torsions:
REMARK  status: ('A' for Active; 'I' for Inactive)
REMARK    1  A    between atoms: O_1  and  C_2
REMARK    2  A    between atoms: C_2  and  C_4
REMARK    3  A    between atoms: C_4  and  N_29
REMARK    4  A    between atoms: N_7  and  C_8
REMARK    5  A    between atoms: C_8  and  C_9
REMARK    6  A    between atoms: C_9  and  C_10
REMARK    7  A    between atoms: C_10  and  N_11
REMARK                            x       y       z     vdW  Elec       q    Type
REMARK                         _______ _______ _______ _____ _____    ______ ____
ROOT
ATOM      1  C   UNL     1       7.084  -0.346  22.779  0.00  0.00    +0.086 C 
ENDROOT
BRANCH   1   5
ATOM      2  C   UNL     1       9.103   2.623  23.259  0.00  0.00    +0.100 C 
ATOM      3  C   UNL     1       8.593   1.736  24.429  0.00  0.00    +0.047 C 
ATOM      4  C   UNL     1       8.901   0.242  24.297  0.00  0.00    +0.086 C 
ATOM      5  N   UNL     1       8.545  -0.324  22.989  0.00  0.00    -0.302 NA
ATOM      6  C   UNL     1       9.308   0.401  21.963  0.00  0.00    +0.086 C 
ATOM      7  C   UNL     1       8.957   1.888  21.890  0.00  0.00    +0.047 C 
BRANCH   2   8
ATOM      8  N   UNL     1       8.450   3.987  23.175  0.00  0.00    -0.289 NA
ATOM      9  C   UNL     1       8.199   4.695  24.436  0.00  0.00    +0.085 C 
ATOM     10  C   UNL     1       6.955   4.223  25.189  0.00  0.00    +0.015 C 
ATOM     11  C   UNL     1       5.709   4.156  24.319  0.00  0.00    +0.002 C 
ATOM     12  C   UNL     1       5.935   3.746  22.865  0.00  0.00    +0.015 C 
ATOM     13  C   UNL     1       7.291   4.166  22.292  0.00  0.00    +0.085 C 
ENDBRANCH   2   8
BRANCH   2  14
ATOM     14  C   UNL     1      10.634   2.853  23.445  0.00  0.00    +0.201 C 
ATOM     15  N   UNL     1      11.293   3.860  22.987  0.00  0.00    -0.270 NA
ATOM     16  H   UNL     1      12.283   3.801  23.210  0.00  0.00    +0.190 HD
BRANCH  14  17
ATOM     17  O   UNL     1      11.295   1.890  24.105  0.00  0.00    -0.495 OA
ATOM     18  H   UNL     1      11.746   2.228  24.892  0.00  0.00    +0.293 HD
ENDBRANCH  14  17
ENDBRANCH   2  14
ENDBRANCH   1   5
BRANCH   1  19
ATOM     19  C   UNL     1       6.425  -1.720  22.935  0.00  0.00    +0.035 C 
BRANCH  19  20
ATOM     20  C   UNL     1       5.911  -2.017  24.348  0.00  0.00    +0.112 C 
BRANCH  20  21
ATOM     21  N   UNL     1       5.880  -3.482  24.606  0.00  0.00    -0.300 N 
ATOM     22  C   UNL     1       4.734  -4.198  24.195  0.00  0.00    +0.039 A 
ATOM     23  C   UNL     1       3.485  -3.786  24.713  0.00  0.00    +0.043 A 
ATOM     24  C   UNL     1       2.305  -4.475  24.430  0.00  0.00    +0.043 A 
ATOM     25  C   UNL     1       2.325  -5.593  23.614  0.00  0.00    +0.020 A 
ATOM     26  C   UNL     1       3.543  -6.030  23.105  0.00  0.00    +0.007 A 
ATOM     27 CL   UNL     1       0.819  -3.957  25.126  0.00  0.00    -0.083 Cl
ATOM     28  C   UNL     1       4.757  -5.359  23.387  0.00  0.00    -0.026 A 
ATOM     29  C   UNL     1       5.989  -6.013  22.796  0.00  0.00    +0.042 C 
ATOM     30  C   UNL     1       7.269  -5.200  22.708  0.00  0.00    +0.042 C 
ATOM     31  C   UNL     1       7.822  -4.901  24.072  0.00  0.00    -0.026 A 
ATOM     32  C   UNL     1       9.025  -5.497  24.487  0.00  0.00    +0.005 A 
ATOM     33  C   UNL     1       9.549  -5.232  25.750  0.00  0.00    +0.000 A 
ATOM     34  C   UNL     1       8.891  -4.352  26.602  0.00  0.00    +0.002 A 
ATOM     35  C   UNL     1       7.697  -3.756  26.193  0.00  0.00    +0.024 A 
ATOM     36  C   UNL     1       7.136  -4.035  24.934  0.00  0.00    +0.037 A 
ENDBRANCH  20  21
ENDBRANCH  19  20
ENDBRANCH   1  19
TORSDOF 7
ENDMDL
MODEL 9
REMARK VINA RESULT:      -6.6      1.787      3.164
REMARK  Name = 
REMARK  7 active torsions:
REMARK  status: ('A' for Active; 'I' for Inactive)
REMARK    1  A    between atoms: O_1  and  C_2
REMARK    2  A    between atoms: C_2  and  C_4
REMARK    3  A    between atoms: C_4  and  N_29
REMARK    4  A    between atoms: N_7  and  C_8
REMARK    5  A    between atoms: C_8  and  C_9
REMARK    6  A    between atoms: C_9  and  C_10
REMARK    7  A    between atoms: C_10  and  N_11
REMARK                            x       y       z     vdW  Elec       q    Type
REMARK                         _______ _______ _______ _____ _____    ______ ____
ROOT
ATOM      1  C   UNL     1       6.027  -1.157  24.565  0.00  0.00    +0.086 C 
ENDROOT
BRANCH   1   5
ATOM      2  C   UNL     1       8.353   1.580  24.093  0.00  0.00    +0.100 C 
ATOM      3  C   UNL     1       7.191   1.265  23.110  0.00  0.00    +0.047 C 
ATOM      4  C   UNL     1       5.808   1.134  23.754  0.00  0.00    +0.086 C 
ATOM      5  N   UNL     1       5.782   0.252  24.930  0.00  0.00    -0.302 NA
ATOM      6  C   UNL     1       6.710   0.805  25.926  0.00  0.00    +0.086 C 
ATOM      7  C   UNL     1       8.163   0.829  25.448  0.00  0.00    +0.047 C 
BRANCH   2   8
ATOM      8  N   UNL     1       9.734   1.295  23.543  0.00  0.00    -0.289 NA
ATOM      9  C   UNL     1       9.893   1.288  22.083  0.00  0.00    +0.085 C 
ATOM     10  C   UNL     1       9.432  -0.001  21.403  0.00  0.00    +0.015 C 
ATOM     11  C   UNL     1      10.001  -1.259  22.041  0.00  0.00    +0.002 C 
ATOM     12  C   UNL     1      10.192  -1.210  23.555  0.00  0.00    +0.015 C 
ATOM     13  C   UNL     1      10.508   0.182  24.108  0.00  0.00    +0.085 C 
ENDBRANCH   2   8
BRANCH   2  14
ATOM     14  C   UNL     1       8.300   3.097  24.448  0.00  0.00    +0.201 C 
ATOM     15  N   UNL     1       8.098   4.049  23.605  0.00  0.00    -0.270 NA
ATOM     16  H   UNL     1       8.121   4.963  24.048  0.00  0.00    +0.190 HD
BRANCH  14  17
ATOM     17  O   UNL     1       8.526   3.407  25.734  0.00  0.00    -0.495 OA
ATOM     18  H   UNL     1       7.963   2.900  26.337  0.00  0.00    +0.293 HD
ENDBRANCH  14  17
ENDBRANCH   2  14
ENDBRANCH   1   5
BRANCH   1  19
ATOM     19  C   UNL     1       5.595  -2.185  25.615  0.00  0.00    +0.035 C 
BRANCH  19  20
ATOM     20  C   UNL     1       6.668  -3.222  25.964  0.00  0.00    +0.112 C 
BRANCH  20  21
ATOM     21  N   UNL     1       6.191  -4.600  25.672  0.00  0.00    -0.300 N 
ATOM     22  C   UNL     1       5.437  -5.260  26.667  0.00  0.00    +0.039 A 
ATOM     23  C   UNL     1       6.032  -5.422  27.939  0.00  0.00    +0.043 A 
ATOM     24  C   UNL     1       5.402  -6.127  28.965  0.00  0.00    +0.043 A 
ATOM     25  C   UNL     1       4.152  -6.688  28.764  0.00  0.00    +0.020 A 
ATOM     26  C   UNL     1       3.551  -6.557  27.517  0.00  0.00    +0.007 A 
ATOM     27 CL   UNL     1       6.194  -6.334  30.479  0.00  0.00    -0.083 Cl
ATOM     28  C   UNL     1       4.174  -5.860  26.455  0.00  0.00    -0.026 A 
ATOM     29  C   UNL     1       3.398  -5.873  25.154  0.00  0.00    +0.042 C 
ATOM     30  C   UNL     1       3.767  -4.865  24.080  0.00  0.00    +0.042 C 
ATOM     31  C   UNL     1       5.130  -5.142  23.515  0.00  0.00    -0.026 A 
ATOM     32  C   UNL     1       5.262  -5.591  22.191  0.00  0.00    +0.005 A 
ATOM     33  C   UNL     1       6.521  -5.854  21.653  0.00  0.00    +0.000 A 
ATOM     34  C   UNL     1       7.659  -5.651  22.425  0.00  0.00    +0.002 A 
ATOM     35  C   UNL     1       7.533  -5.203  23.740  0.00  0.00    +0.024 A 
ATOM     36  C   UNL     1       6.270  -4.961  24.310  0.00  0.00    +0.037 A 
ENDBRANCH  20  21
ENDBRANCH  19  20
ENDBRANCH   1  19
TORSDOF 7
ENDMDL
