MODEL 1
REMARK VINA RESULT:      -7.7      0.000      0.000
REMARK  Name = 
REMARK  3 active torsions:
REMARK  status: ('A' for Active; 'I' for Inactive)
REMARK    1  A    between atoms: C_1  and  N_2
REMARK    2  A    between atoms: C_10  and  C_21
REMARK    3  A    between atoms: C_12  and  C_13
REMARK                            x       y       z     vdW  Elec       q    Type
REMARK                         _______ _______ _______ _____ _____    ______ ____
ROOT
ATOM      1  C   UNL     1       6.745  -5.197  26.328  0.00  0.00    +0.138 C 
ATOM      2  N   UNL     1       7.376  -4.019  25.763  0.00  0.00    -0.273 N 
ATOM      3  C   UNL     1       8.757  -4.051  25.672  0.00  0.00    +0.237 C 
ATOM      4  O   UNL     1       9.437  -4.791  26.389  0.00  0.00    -0.274 OA
ATOM      5  C   UNL     1       9.394  -3.381  24.464  0.00  0.00    +0.208 C 
ATOM      6  N   UNL     1       8.799  -2.311  23.666  0.00  0.00    -0.243 N 
ATOM      7  C   UNL     1       7.307  -2.205  23.492  0.00  0.00    +0.235 C 
ATOM      8  O   UNL     1       6.978  -1.070  22.619  0.00  0.00    -0.464 OA
ATOM      9  C   UNL     1       8.054  -0.185  22.484  0.00  0.00    +0.103 C 
ATOM     10  C   UNL     1       9.099  -0.706  21.838  0.00  0.00    +0.108 C 
ATOM     11  C   UNL     1       8.272   0.780  23.631  0.00  0.00    +0.086 C 
ATOM     12  C   UNL     1       6.637  -1.881  24.850  0.00  0.00    +0.042 A 
ATOM     13  C   UNL     1       5.830  -0.725  25.020  0.00  0.00    +0.031 A 
ATOM     14  C   UNL     1       5.258  -0.405  26.248  0.00  0.00    +0.042 A 
ATOM     15  C   UNL     1       5.413  -1.261  27.323  0.00  0.00    +0.022 A 
ATOM     16  C   UNL     1       6.120  -2.454  27.156  0.00  0.00    +0.025 A 
ATOM     17 CL   UNL     1       4.379   1.061  26.422  0.00  0.00    -0.084 Cl
ATOM     18  C   UNL     1       9.679  -1.711  22.763  0.00  0.00    +0.246 C 
ATOM     19  O   UNL     1      10.871  -1.988  22.669  0.00  0.00    -0.270 OA
ATOM     20  C   UNL     1       6.736  -2.768  25.929  0.00  0.00    +0.045 A 
ENDROOT
BRANCH   7  21
ATOM     21  C   UNL     1       6.693  -3.479  22.829  0.00  0.00    +0.019 A 
ATOM     22  C   UNL     1       7.490  -4.437  22.173  0.00  0.00    +0.009 A 
ATOM     23  C   UNL     1       6.987  -5.701  21.845  0.00  0.00    +0.000 A 
ATOM     24  C   UNL     1       5.657  -6.014  22.102  0.00  0.00    +0.000 A 
ATOM     25  C   UNL     1       4.815  -5.044  22.633  0.00  0.00    +0.000 A 
ATOM     26  C   UNL     1       5.321  -3.785  22.972  0.00  0.00    +0.009 A 
ENDBRANCH   7  21
TORSDOF 1
ENDMDL
MODEL 2
REMARK VINA RESULT:      -7.0      1.569      2.037
REMARK  Name = 
REMARK  3 active torsions:
REMARK  status: ('A' for Active; 'I' for Inactive)
REMARK    1  A    between atoms: C_1  and  N_2
REMARK    2  A    between atoms: C_10  and  C_21
REMARK    3  A    between atoms: C_12  and  C_13
REMARK                            x       y       z     vdW  Elec       q    Type
REMARK                         _______ _______ _______ _____ _____    ______ ____
ROOT
ATOM      1  C   UNL     1       4.471  -5.249  27.349  0.00  0.00    +0.138 C 
ATOM      2  N   UNL     1       5.665  -4.518  26.964  0.00  0.00    -0.273 N 
ATOM      3  C   UNL     1       6.872  -5.143  27.227  0.00  0.00    +0.237 C 
ATOM      4  O   UNL     1       6.976  -6.017  28.092  0.00  0.00    -0.274 OA
ATOM      5  C   UNL     1       7.996  -4.944  26.220  0.00  0.00    +0.208 C 
ATOM      6  N   UNL     1       8.129  -3.819  25.298  0.00  0.00    -0.243 N 
ATOM      7  C   UNL     1       6.919  -3.110  24.751  0.00  0.00    +0.235 C 
ATOM      8  O   UNL     1       7.329  -2.047  23.823  0.00  0.00    -0.464 OA
ATOM      9  C   UNL     1       8.682  -1.723  23.967  0.00  0.00    +0.103 C 
ATOM     10  C   UNL     1       9.511  -2.705  23.607  0.00  0.00    +0.108 C 
ATOM     11  C   UNL     1       9.033  -0.820  25.132  0.00  0.00    +0.086 C 
ATOM     12  C   UNL     1       6.167  -2.385  25.894  0.00  0.00    +0.042 A 
ATOM     13  C   UNL     1       5.932  -0.985  25.854  0.00  0.00    +0.031 A 
ATOM     14  C   UNL     1       5.295  -0.319  26.897  0.00  0.00    +0.042 A 
ATOM     15  C   UNL     1       4.809  -1.035  27.975  0.00  0.00    +0.022 A 
ATOM     16  C   UNL     1       4.939  -2.426  27.993  0.00  0.00    +0.025 A 
ATOM     17 CL   UNL     1       5.133   1.390  26.843  0.00  0.00    -0.084 Cl
ATOM     18  C   UNL     1       9.364  -3.752  24.648  0.00  0.00    +0.246 C 
ATOM     19  O   UNL     1      10.300  -4.516  24.860  0.00  0.00    -0.270 OA
ATOM     20  C   UNL     1       5.618  -3.105  26.963  0.00  0.00    +0.045 A 
ENDROOT
BRANCH   7  21
ATOM     21  C   UNL     1       5.978  -4.070  23.953  0.00  0.00    +0.019 A 
ATOM     22  C   UNL     1       6.428  -5.302  23.442  0.00  0.00    +0.009 A 
ATOM     23  C   UNL     1       5.529  -6.277  22.996  0.00  0.00    +0.000 A 
ATOM     24  C   UNL     1       4.163  -6.017  22.982  0.00  0.00    +0.000 A 
ATOM     25  C   UNL     1       3.701  -4.762  23.361  0.00  0.00    +0.000 A 
ATOM     26  C   UNL     1       4.599  -3.793  23.820  0.00  0.00    +0.009 A 
ENDBRANCH   7  21
TORSDOF 1
ENDMDL
MODEL 3
REMARK VINA RESULT:      -6.8      2.551      5.001
REMARK  Name = 
REMARK  3 active torsions:
REMARK  status: ('A' for Active; 'I' for Inactive)
REMARK    1  A    between atoms: C_1  and  N_2
REMARK    2  A    between atoms: C_10  and  C_21
REMARK    3  A    between atoms: C_12  and  C_13
REMARK                            x       y       z     vdW  Elec       q    Type
REMARK                         _______ _______ _______ _____ _____    ______ ____
ROOT
ATOM      1  C   UNL     1       7.838  -3.918  22.666  0.00  0.00    +0.138 C 
ATOM      2  N   UNL     1       7.308  -2.744  23.336  0.00  0.00    -0.273 N 
ATOM      3  C   UNL     1       5.940  -2.557  23.247  0.00  0.00    +0.237 C 
ATOM      4  O   UNL     1       5.273  -3.062  22.339  0.00  0.00    -0.274 OA
ATOM      5  C   UNL     1       5.234  -1.971  24.462  0.00  0.00    +0.208 C 
ATOM      6  N   UNL     1       5.853  -1.142  25.493  0.00  0.00    -0.243 N 
ATOM      7  C   UNL     1       7.301  -1.313  25.866  0.00  0.00    +0.235 C 
ATOM      8  O   UNL     1       7.659  -0.387  26.950  0.00  0.00    -0.464 OA
ATOM      9  C   UNL     1       6.716   0.636  27.094  0.00  0.00    +0.103 C 
ATOM     10  C   UNL     1       5.521   0.210  27.511  0.00  0.00    +0.108 C 
ATOM     11  C   UNL     1       6.814   1.779  26.106  0.00  0.00    +0.086 C 
ATOM     12  C   UNL     1       8.207  -0.914  24.675  0.00  0.00    +0.042 A 
ATOM     13  C   UNL     1       9.190   0.103  24.801  0.00  0.00    +0.031 A 
ATOM     14  C   UNL     1       9.979   0.496  23.723  0.00  0.00    +0.042 A 
ATOM     15  C   UNL     1       9.863  -0.158  22.511  0.00  0.00    +0.022 A 
ATOM     16  C   UNL     1       8.972  -1.228  22.388  0.00  0.00    +0.025 A 
ATOM     17 CL   UNL     1      11.078   1.804  23.906  0.00  0.00    -0.084 Cl
ATOM     18  C   UNL     1       4.945  -0.540  26.367  0.00  0.00    +0.246 C 
ATOM     19  O   UNL     1       3.725  -0.624  26.265  0.00  0.00    -0.270 OA
ATOM     20  C   UNL     1       8.141  -1.607  23.460  0.00  0.00    +0.045 A 
ENDROOT
BRANCH   7  21
ATOM     21  C   UNL     1       7.617  -2.754  26.380  0.00  0.00    +0.019 A 
ATOM     22  C   UNL     1       6.614  -3.602  26.888  0.00  0.00    +0.009 A 
ATOM     23  C   UNL     1       6.841  -4.972  27.067  0.00  0.00    +0.000 A 
ATOM     24  C   UNL     1       8.095  -5.514  26.810  0.00  0.00    +0.000 A 
ATOM     25  C   UNL     1       9.138  -4.677  26.430  0.00  0.00    +0.000 A 
ATOM     26  C   UNL     1       8.908  -3.312  26.238  0.00  0.00    +0.009 A 
ENDBRANCH   7  21
TORSDOF 1
ENDMDL
MODEL 4
REMARK VINA RESULT:      -6.6      2.091      3.186
REMARK  Name = 
REMARK  3 active torsions:
REMARK  status: ('A' for Active; 'I' for Inactive)
REMARK    1  A    between atoms: C_1  and  N_2
REMARK    2  A    between atoms: C_10  and  C_21
REMARK    3  A    between atoms: C_12  and  C_13
REMARK                            x       y       z     vdW  Elec       q    Type
REMARK                         _______ _______ _______ _____ _____    ______ ____
ROOT
ATOM      1  C   UNL     1       5.159  -4.426  28.160  0.00  0.00    +0.138 C 
ATOM      2  N   UNL     1       5.916  -4.243  26.936  0.00  0.00    -0.273 N 
ATOM      3  C   UNL     1       7.004  -5.081  26.761  0.00  0.00    +0.237 C 
ATOM      4  O   UNL     1       7.562  -5.628  27.717  0.00  0.00    -0.274 OA
ATOM      5  C   UNL     1       7.304  -5.553  25.346  0.00  0.00    +0.208 C 
ATOM      6  N   UNL     1       6.914  -4.868  24.116  0.00  0.00    -0.243 N 
ATOM      7  C   UNL     1       5.657  -4.042  24.047  0.00  0.00    +0.235 C 
ATOM      8  O   UNL     1       5.481  -3.497  22.694  0.00  0.00    -0.464 OA
ATOM      9  C   UNL     1       6.663  -3.560  21.948  0.00  0.00    +0.103 C 
ATOM     10  C   UNL     1       7.055  -4.806  21.669  0.00  0.00    +0.108 C 
ATOM     11  C   UNL     1       7.690  -2.484  22.231  0.00  0.00    +0.086 C 
ATOM     12  C   UNL     1       5.784  -2.805  24.970  0.00  0.00    +0.042 A 
ATOM     13  C   UNL     1       5.646  -1.486  24.463  0.00  0.00    +0.031 A 
ATOM     14  C   UNL     1       5.800  -0.368  25.279  0.00  0.00    +0.042 A 
ATOM     15  C   UNL     1       6.025  -0.530  26.634  0.00  0.00    +0.022 A 
ATOM     16  C   UNL     1       6.067  -1.817  27.174  0.00  0.00    +0.025 A 
ATOM     17 CL   UNL     1       5.728   1.204  24.590  0.00  0.00    -0.084 Cl
ATOM     18  C   UNL     1       7.510  -5.379  22.960  0.00  0.00    +0.246 C 
ATOM     19  O   UNL     1       8.344  -6.278  22.951  0.00  0.00    -0.270 OA
ATOM     20  C   UNL     1       5.952  -2.955  26.353  0.00  0.00    +0.045 A 
ENDROOT
BRANCH   7  21
ATOM     21  C   UNL     1       4.377  -4.879  24.368  0.00  0.00    +0.019 A 
ATOM     22  C   UNL     1       3.136  -4.271  24.639  0.00  0.00    +0.009 A 
ATOM     23  C   UNL     1       1.947  -5.009  24.632  0.00  0.00    +0.000 A 
ATOM     24  C   UNL     1       1.977  -6.383  24.425  0.00  0.00    +0.000 A 
ATOM     25  C   UNL     1       3.200  -7.028  24.283  0.00  0.00    +0.000 A 
ATOM     26  C   UNL     1       4.387  -6.288  24.276  0.00  0.00    +0.009 A 
ENDBRANCH   7  21
TORSDOF 1
ENDMDL
MODEL 5
REMARK VINA RESULT:      -6.5      3.265      6.049
REMARK  Name = 
REMARK  3 active torsions:
REMARK  status: ('A' for Active; 'I' for Inactive)
REMARK    1  A    between atoms: C_1  and  N_2
REMARK    2  A    between atoms: C_10  and  C_21
REMARK    3  A    between atoms: C_12  and  C_13
REMARK                            x       y       z     vdW  Elec       q    Type
REMARK                         _______ _______ _______ _____ _____    ______ ____
ROOT
ATOM      1  C   UNL     1       8.484  -3.902  26.233  0.00  0.00    +0.138 C 
ATOM      2  N   UNL     1       7.216  -4.559  25.976  0.00  0.00    -0.273 N 
ATOM      3  C   UNL     1       6.708  -5.330  27.008  0.00  0.00    +0.237 C 
ATOM      4  O   UNL     1       7.436  -5.791  27.893  0.00  0.00    -0.274 OA
ATOM      5  C   UNL     1       5.198  -5.341  27.195  0.00  0.00    +0.208 C 
ATOM      6  N   UNL     1       4.206  -5.056  26.162  0.00  0.00    -0.243 N 
ATOM      7  C   UNL     1       4.502  -4.097  25.039  0.00  0.00    +0.235 C 
ATOM      8  O   UNL     1       3.329  -3.962  24.165  0.00  0.00    -0.464 OA
ATOM      9  C   UNL     1       2.408  -4.996  24.363  0.00  0.00    +0.103 C 
ATOM     10  C   UNL     1       1.829  -4.975  25.566  0.00  0.00    +0.108 C 
ATOM     11  C   UNL     1       2.732  -6.317  23.698  0.00  0.00    +0.086 C 
ATOM     12  C   UNL     1       5.621  -4.670  24.134  0.00  0.00    +0.042 A 
ATOM     13  C   UNL     1       5.413  -4.880  22.745  0.00  0.00    +0.031 A 
ATOM     14  C   UNL     1       6.399  -5.434  21.933  0.00  0.00    +0.042 A 
ATOM     15  C   UNL     1       7.642  -5.728  22.463  0.00  0.00    +0.022 A 
ATOM     16  C   UNL     1       7.903  -5.440  23.805  0.00  0.00    +0.025 A 
ATOM     17 CL   UNL     1       6.057  -5.763  20.282  0.00  0.00    -0.084 Cl
ATOM     18  C   UNL     1       2.893  -5.362  26.526  0.00  0.00    +0.246 C 
ATOM     19  O   UNL     1       2.573  -5.889  27.588  0.00  0.00    -0.270 OA
ATOM     20  C   UNL     1       6.901  -4.918  24.644  0.00  0.00    +0.045 A 
ENDROOT
BRANCH   7  21
ATOM     21  C   UNL     1       4.849  -2.664  25.556  0.00  0.00    +0.019 A 
ATOM     22  C   UNL     1       5.575  -1.745  24.775  0.00  0.00    +0.009 A 
ATOM     23  C   UNL     1       5.627  -0.387  25.111  0.00  0.00    +0.000 A 
ATOM     24  C   UNL     1       5.016   0.072  26.272  0.00  0.00    +0.000 A 
ATOM     25  C   UNL     1       4.402  -0.836  27.128  0.00  0.00    +0.000 A 
ATOM     26  C   UNL     1       4.339  -2.190  26.785  0.00  0.00    +0.009 A 
ENDBRANCH   7  21
TORSDOF 1
ENDMDL
MODEL 6
REMARK VINA RESULT:      -6.5      2.399      3.245
REMARK  Name = 
REMARK  3 active torsions:
REMARK  status: ('A' for Active; 'I' for Inactive)
REMARK    1  A    between atoms: C_1  and  N_2
REMARK    2  A    between atoms: C_10  and  C_21
REMARK    3  A    between atoms: C_12  and  C_13
REMARK                            x       y       z     vdW  Elec       q    Type
REMARK                         _______ _______ _______ _____ _____    ______ ____
ROOT
ATOM      1  C   UNL     1       4.993  -6.990  26.873  0.00  0.00    +0.138 C 
ATOM      2  N   UNL     1       5.328  -5.578  26.873  0.00  0.00    -0.273 N 
ATOM      3  C   UNL     1       6.503  -5.230  27.517  0.00  0.00    +0.237 C 
ATOM      4  O   UNL     1       7.005  -5.949  28.387  0.00  0.00    -0.274 OA
ATOM      5  C   UNL     1       7.321  -4.097  26.915  0.00  0.00    +0.208 C 
ATOM      6  N   UNL     1       6.805  -3.028  26.063  0.00  0.00    -0.243 N 
ATOM      7  C   UNL     1       5.632  -3.258  25.147  0.00  0.00    +0.235 C 
ATOM      8  O   UNL     1       5.342  -2.040  24.379  0.00  0.00    -0.464 OA
ATOM      9  C   UNL     1       5.951  -0.912  24.938  0.00  0.00    +0.103 C 
ATOM     10  C   UNL     1       7.285  -0.937  24.877  0.00  0.00    +0.108 C 
ATOM     11  C   UNL     1       5.256  -0.302  26.138  0.00  0.00    +0.086 C 
ATOM     12  C   UNL     1       4.354  -3.528  25.980  0.00  0.00    +0.042 A 
ATOM     13  C   UNL     1       3.196  -2.717  25.842  0.00  0.00    +0.031 A 
ATOM     14  C   UNL     1       2.059  -2.927  26.617  0.00  0.00    +0.042 A 
ATOM     15  C   UNL     1       2.014  -3.992  27.498  0.00  0.00    +0.022 A 
ATOM     16  C   UNL     1       3.103  -4.863  27.582  0.00  0.00    +0.025 A 
ATOM     17 CL   UNL     1       0.727  -1.850  26.483  0.00  0.00    -0.084 Cl
ATOM     18  C   UNL     1       7.708  -1.987  25.837  0.00  0.00    +0.246 C 
ATOM     19  O   UNL     1       8.820  -1.912  26.348  0.00  0.00    -0.270 OA
ATOM     20  C   UNL     1       4.273  -4.636  26.832  0.00  0.00    +0.045 A 
ENDROOT
BRANCH   7  21
ATOM     21  C   UNL     1       5.901  -4.395  24.110  0.00  0.00    +0.019 A 
ATOM     22  C   UNL     1       4.858  -5.021  23.401  0.00  0.00    +0.009 A 
ATOM     23  C   UNL     1       5.115  -5.815  22.277  0.00  0.00    +0.000 A 
ATOM     24  C   UNL     1       6.424  -6.059  21.877  0.00  0.00    +0.000 A 
ATOM     25  C   UNL     1       7.477  -5.559  22.635  0.00  0.00    +0.000 A 
ATOM     26  C   UNL     1       7.219  -4.755  23.749  0.00  0.00    +0.009 A 
ENDBRANCH   7  21
TORSDOF 1
ENDMDL
MODEL 7
REMARK VINA RESULT:      -6.4      2.307      2.990
REMARK  Name = 
REMARK  3 active torsions:
REMARK  status: ('A' for Active; 'I' for Inactive)
REMARK    1  A    between atoms: C_1  and  N_2
REMARK    2  A    between atoms: C_10  and  C_21
REMARK    3  A    between atoms: C_12  and  C_13
REMARK                            x       y       z     vdW  Elec       q    Type
REMARK                         _______ _______ _______ _____ _____    ______ ____
ROOT
ATOM      1  C   UNL     1       6.481  -1.737  26.790  0.00  0.00    +0.138 C 
ATOM      2  N   UNL     1       7.160  -0.696  26.041  0.00  0.00    -0.273 N 
ATOM      3  C   UNL     1       8.483  -0.465  26.379  0.00  0.00    +0.237 C 
ATOM      4  O   UNL     1       8.934  -0.778  27.485  0.00  0.00    -0.274 OA
ATOM      5  C   UNL     1       9.439  -0.099  25.253  0.00  0.00    +0.208 C 
ATOM      6  N   UNL     1       9.067   0.511  23.980  0.00  0.00    -0.243 N 
ATOM      7  C   UNL     1       7.727   0.241  23.348  0.00  0.00    +0.235 C 
ATOM      8  O   UNL     1       7.622   0.942  22.060  0.00  0.00    -0.464 OA
ATOM      9  C   UNL     1       8.592   1.942  21.930  0.00  0.00    +0.103 C 
ATOM     10  C   UNL     1       9.840   1.474  21.861  0.00  0.00    +0.108 C 
ATOM     11  C   UNL     1       8.308   3.246  22.646  0.00  0.00    +0.086 C 
ATOM     12  C   UNL     1       6.597   0.833  24.226  0.00  0.00    +0.042 A 
ATOM     13  C   UNL     1       5.681   1.787  23.709  0.00  0.00    +0.031 A 
ATOM     14  C   UNL     1       4.689   2.355  24.504  0.00  0.00    +0.042 A 
ATOM     15  C   UNL     1       4.535   1.940  25.814  0.00  0.00    +0.022 A 
ATOM     16  C   UNL     1       5.361   0.932  26.318  0.00  0.00    +0.025 A 
ATOM     17 CL   UNL     1       3.676   3.582  23.855  0.00  0.00    -0.084 Cl
ATOM     18  C   UNL     1      10.149   0.961  23.220  0.00  0.00    +0.246 C 
ATOM     19  O   UNL     1      11.318   0.925  23.591  0.00  0.00    -0.270 OA
ATOM     20  C   UNL     1       6.393   0.380  25.535  0.00  0.00    +0.045 A 
ENDROOT
BRANCH   7  21
ATOM     21  C   UNL     1       7.501  -1.277  23.056  0.00  0.00    +0.019 A 
ATOM     22  C   UNL     1       8.559  -2.206  23.073  0.00  0.00    +0.009 A 
ATOM     23  C   UNL     1       8.318  -3.584  23.106  0.00  0.00    +0.000 A 
ATOM     24  C   UNL     1       7.016  -4.068  23.051  0.00  0.00    +0.000 A 
ATOM     25  C   UNL     1       5.959  -3.177  22.904  0.00  0.00    +0.000 A 
ATOM     26  C   UNL     1       6.200  -1.800  22.885  0.00  0.00    +0.009 A 
ENDBRANCH   7  21
TORSDOF 1
ENDMDL
MODEL 8
REMARK VINA RESULT:      -6.4      5.404      8.411
REMARK  Name = 
REMARK  3 active torsions:
REMARK  status: ('A' for Active; 'I' for Inactive)
REMARK    1  A    between atoms: C_1  and  N_2
REMARK    2  A    between atoms: C_10  and  C_21
REMARK    3  A    between atoms: C_12  and  C_13
REMARK                            x       y       z     vdW  Elec       q    Type
REMARK                         _______ _______ _______ _____ _____    ______ ____
ROOT
ATOM      1  C   UNL     1       7.515   7.107  25.967  0.00  0.00    +0.138 C 
ATOM      2  N   UNL     1       8.052   5.772  25.779  0.00  0.00    -0.273 N 
ATOM      3  C   UNL     1       7.674   4.826  26.717  0.00  0.00    +0.237 C 
ATOM      4  O   UNL     1       7.290   5.147  27.845  0.00  0.00    -0.274 OA
ATOM      5  C   UNL     1       7.453   3.403  26.224  0.00  0.00    +0.208 C 
ATOM      6  N   UNL     1       8.048   2.810  25.030  0.00  0.00    -0.243 N 
ATOM      7  C   UNL     1       8.373   3.647  23.821  0.00  0.00    +0.235 C 
ATOM      8  O   UNL     1       8.923   2.803  22.752  0.00  0.00    -0.464 OA
ATOM      9  C   UNL     1       9.345   1.559  23.233  0.00  0.00    +0.103 C 
ATOM     10  C   UNL     1       8.348   0.789  23.674  0.00  0.00    +0.108 C 
ATOM     11  C   UNL     1      10.691   1.532  23.926  0.00  0.00    +0.086 C 
ATOM     12  C   UNL     1       9.497   4.657  24.162  0.00  0.00    +0.042 A 
ATOM     13  C   UNL     1      10.715   4.681  23.433  0.00  0.00    +0.031 A 
ATOM     14  C   UNL     1      11.747   5.557  23.760  0.00  0.00    +0.042 A 
ATOM     15  C   UNL     1      11.570   6.481  24.774  0.00  0.00    +0.022 A 
ATOM     16  C   UNL     1      10.344   6.542  25.442  0.00  0.00    +0.025 A 
ATOM     17 CL   UNL     1      13.238   5.471  22.912  0.00  0.00    -0.084 Cl
ATOM     18  C   UNL     1       7.876   1.427  24.928  0.00  0.00    +0.246 C 
ATOM     19  O   UNL     1       7.337   0.732  25.784  0.00  0.00    -0.270 OA
ATOM     20  C   UNL     1       9.309   5.635  25.146  0.00  0.00    +0.045 A 
ENDROOT
BRANCH   7  21
ATOM     21  C   UNL     1       7.112   4.358  23.234  0.00  0.00    +0.019 A 
ATOM     22  C   UNL     1       5.806   3.904  23.502  0.00  0.00    +0.009 A 
ATOM     23  C   UNL     1       4.688   4.699  23.226  0.00  0.00    +0.000 A 
ATOM     24  C   UNL     1       4.842   5.937  22.612  0.00  0.00    +0.000 A 
ATOM     25  C   UNL     1       6.109   6.354  22.221  0.00  0.00    +0.000 A 
ATOM     26  C   UNL     1       7.227   5.565  22.508  0.00  0.00    +0.009 A 
ENDBRANCH   7  21
TORSDOF 1
ENDMDL
MODEL 9
REMARK VINA RESULT:      -6.3      2.804      5.901
REMARK  Name = 
REMARK  3 active torsions:
REMARK  status: ('A' for Active; 'I' for Inactive)
REMARK    1  A    between atoms: C_1  and  N_2
REMARK    2  A    between atoms: C_10  and  C_21
REMARK    3  A    between atoms: C_12  and  C_13
REMARK                            x       y       z     vdW  Elec       q    Type
REMARK                         _______ _______ _______ _____ _____    ______ ____
ROOT
ATOM      1  C   UNL     1      10.009   0.613  22.417  0.00  0.00    +0.138 C 
ATOM      2  N   UNL     1       9.214   0.130  23.532  0.00  0.00    -0.273 N 
ATOM      3  C   UNL     1       9.786   0.253  24.787  0.00  0.00    +0.237 C 
ATOM      4  O   UNL     1      11.008   0.346  24.938  0.00  0.00    -0.274 OA
ATOM      5  C   UNL     1       8.858   0.579  25.948  0.00  0.00    +0.208 C 
ATOM      6  N   UNL     1       7.426   0.297  26.004  0.00  0.00    -0.243 N 
ATOM      7  C   UNL     1       6.583   0.292  24.756  0.00  0.00    +0.235 C 
ATOM      8  O   UNL     1       5.179   0.020  25.094  0.00  0.00    -0.464 OA
ATOM      9  C   UNL     1       5.045  -0.519  26.378  0.00  0.00    +0.103 C 
ATOM     10  C   UNL     1       5.379   0.330  27.353  0.00  0.00    +0.108 C 
ATOM     11  C   UNL     1       5.349  -1.996  26.518  0.00  0.00    +0.086 C 
ATOM     12  C   UNL     1       7.012  -0.873  23.831  0.00  0.00    +0.042 A 
ATOM     13  C   UNL     1       6.088  -1.870  23.420  0.00  0.00    +0.031 A 
ATOM     14  C   UNL     1       6.476  -2.944  22.623  0.00  0.00    +0.042 A 
ATOM     15  C   UNL     1       7.774  -3.019  22.153  0.00  0.00    +0.022 A 
ATOM     16  C   UNL     1       8.677  -1.999  22.463  0.00  0.00    +0.025 A 
ATOM     17 CL   UNL     1       5.340  -4.176  22.244  0.00  0.00    -0.084 Cl
ATOM     18  C   UNL     1       6.853   0.478  27.265  0.00  0.00    +0.246 C 
ATOM     19  O   UNL     1       7.482   0.780  28.274  0.00  0.00    -0.270 OA
ATOM     20  C   UNL     1       8.307  -0.931  23.301  0.00  0.00    +0.045 A 
ENDROOT
BRANCH   7  21
ATOM     21  C   UNL     1       6.612   1.666  24.013  0.00  0.00    +0.019 A 
ATOM     22  C   UNL     1       6.947   2.864  24.671  0.00  0.00    +0.009 A 
ATOM     23  C   UNL     1       7.258   4.026  23.955  0.00  0.00    +0.000 A 
ATOM     24  C   UNL     1       7.173   4.038  22.568  0.00  0.00    +0.000 A 
ATOM     25  C   UNL     1       6.720   2.906  21.900  0.00  0.00    +0.000 A 
ATOM     26  C   UNL     1       6.423   1.741  22.615  0.00  0.00    +0.009 A 
ENDBRANCH   7  21
TORSDOF 1
ENDMDL
