MODEL 1
REMARK VINA RESULT:      -8.8      0.000      0.000
REMARK  Name = 
REMARK  3 active torsions:
REMARK  status: ('A' for Active; 'I' for Inactive)
REMARK    1  A    between atoms: C_7  and  C_24
REMARK    2  A    between atoms: C_11  and  N_12
REMARK    3  A    between atoms: N_12  and  C_13
REMARK                            x       y       z     vdW  Elec       q    Type
REMARK                         _______ _______ _______ _____ _____    ______ ____
ROOT
ATOM      1  O   UNL     1       9.440  -4.636  26.906  0.00  0.00    -0.270 OA
ATOM      2  C   UNL     1       8.316  -4.987  26.600  0.00  0.00    +0.250 C 
ATOM      3  C   UNL     1       7.596  -4.700  25.321  0.00  0.00    +0.060 C 
ATOM      4  C   UNL     1       8.001  -4.015  24.250  0.00  0.00    +0.085 C 
ATOM      5  C   UNL     1       6.281  -5.322  25.411  0.00  0.00    +0.010 A 
ATOM      6  C   UNL     1       6.216  -5.937  26.655  0.00  0.00    +0.042 A 
ATOM      7  C   UNL     1       5.086  -6.620  27.052  0.00  0.00    +0.024 A 
ATOM      8  C   UNL     1       4.002  -6.670  26.153  0.00  0.00    +0.013 A 
ATOM      9  C   UNL     1       4.057  -6.047  24.883  0.00  0.00    +0.020 A 
ATOM     10  C   UNL     1       5.224  -5.366  24.521  0.00  0.00    +0.022 A 
ATOM     11  N   UNL     1       7.412  -5.740  27.350  0.00  0.00    -0.281 N 
ATOM     12  H   UNL     1       7.622  -6.084  28.274  0.00  0.00    +0.155 HD
ENDROOT
BRANCH   9  13
ATOM     13  C   UNL     1       2.944  -6.092  23.947  0.00  0.00    +0.155 A 
ATOM     14  O   UNL     1       2.581  -7.334  23.480  0.00  0.00    -0.442 OA
ATOM     15  C   UNL     1       1.540  -7.092  22.642  0.00  0.00    +0.308 A 
ATOM     16  N   UNL     1       1.204  -5.829  22.528  0.00  0.00    -0.224 NA
ATOM     17  C   UNL     1       2.092  -5.184  23.355  0.00  0.00    +0.160 A 
ENDBRANCH   9  13
BRANCH   4  18
ATOM     18  N   UNL     1       9.172  -3.367  23.977  0.00  0.00    -0.320 N 
ATOM     19  H   UNL     1      10.022  -3.875  24.217  0.00  0.00    +0.152 HD
BRANCH  18  20
ATOM     20  C   UNL     1       9.317  -2.086  23.413  0.00  0.00    +0.031 A 
ATOM     21  C   UNL     1       9.269  -1.834  22.028  0.00  0.00    +0.023 A 
ATOM     22  C   UNL     1       9.416  -0.548  21.503  0.00  0.00    +0.007 A 
ATOM     23  C   UNL     1       9.619   0.517  22.369  0.00  0.00    -0.022 A 
ATOM     24  C   UNL     1       9.781   1.928  21.907  0.00  0.00    +0.201 C 
ATOM     25  S   UNL     1      10.034   2.832  23.430  0.00  0.00    -0.023 S 
ATOM     26  C   UNL     1       9.906   1.491  24.608  0.00  0.00    +0.201 C 
ATOM     27  O   UNL     1      11.396   3.332  23.447  0.00  0.00    -0.174 OA
ATOM     28  O   UNL     1       8.907   3.726  23.626  0.00  0.00    -0.174 OA
ATOM     29  C   UNL     1       9.676   0.292  23.747  0.00  0.00    -0.020 A 
ATOM     30  C   UNL     1       9.525  -0.996  24.266  0.00  0.00    +0.028 A 
ENDBRANCH  18  20
ENDBRANCH   4  18
TORSDOF 3
ENDMDL
MODEL 2
REMARK VINA RESULT:      -8.8      2.414      4.095
REMARK  Name = 
REMARK  3 active torsions:
REMARK  status: ('A' for Active; 'I' for Inactive)
REMARK    1  A    between atoms: C_7  and  C_24
REMARK    2  A    between atoms: C_11  and  N_12
REMARK    3  A    between atoms: N_12  and  C_13
REMARK                            x       y       z     vdW  Elec       q    Type
REMARK                         _______ _______ _______ _____ _____    ______ ____
ROOT
ATOM      1  O   UNL     1       6.065  -5.053  20.738  0.00  0.00    -0.270 OA
ATOM      2  C   UNL     1       5.829  -5.359  21.891  0.00  0.00    +0.250 C 
ATOM      3  C   UNL     1       6.479  -4.814  23.123  0.00  0.00    +0.060 C 
ATOM      4  C   UNL     1       7.439  -3.895  23.244  0.00  0.00    +0.085 C 
ATOM      5  C   UNL     1       5.872  -5.479  24.269  0.00  0.00    +0.010 A 
ATOM      6  C   UNL     1       4.926  -6.361  23.762  0.00  0.00    +0.042 A 
ATOM      7  C   UNL     1       4.169  -7.152  24.600  0.00  0.00    +0.024 A 
ATOM      8  C   UNL     1       4.392  -7.034  25.987  0.00  0.00    +0.013 A 
ATOM      9  C   UNL     1       5.354  -6.140  26.515  0.00  0.00    +0.020 A 
ATOM     10  C   UNL     1       6.098  -5.356  25.627  0.00  0.00    +0.022 A 
ATOM     11  N   UNL     1       4.902  -6.287  22.367  0.00  0.00    -0.281 N 
ATOM     12  H   UNL     1       4.304  -6.824  21.757  0.00  0.00    +0.155 HD
ENDROOT
BRANCH   9  13
ATOM     13  C   UNL     1       5.592  -6.011  27.945  0.00  0.00    +0.155 A 
ATOM     14  O   UNL     1       5.980  -7.150  28.610  0.00  0.00    -0.442 OA
ATOM     15  C   UNL     1       6.131  -6.756  29.901  0.00  0.00    +0.308 A 
ATOM     16  N   UNL     1       5.880  -5.488  30.126  0.00  0.00    -0.224 NA
ATOM     17  C   UNL     1       5.535  -5.005  28.886  0.00  0.00    +0.160 A 
ENDBRANCH   9  13
BRANCH   4  18
ATOM     18  N   UNL     1       8.125  -3.172  22.311  0.00  0.00    -0.320 N 
ATOM     19  H   UNL     1       8.587  -3.717  21.584  0.00  0.00    +0.152 HD
BRANCH  18  20
ATOM     20  C   UNL     1       8.262  -1.772  22.259  0.00  0.00    +0.031 A 
ATOM     21  C   UNL     1       9.284  -1.115  21.546  0.00  0.00    +0.023 A 
ATOM     22  C   UNL     1       9.387   0.278  21.515  0.00  0.00    +0.007 A 
ATOM     23  C   UNL     1       8.459   1.042  22.208  0.00  0.00    -0.022 A 
ATOM     24  C   UNL     1       8.480   2.534  22.232  0.00  0.00    +0.201 C 
ATOM     25  S   UNL     1       7.093   2.949  23.282  0.00  0.00    -0.023 S 
ATOM     26  C   UNL     1       6.487   1.306  23.652  0.00  0.00    +0.201 C 
ATOM     27  O   UNL     1       7.603   3.537  24.507  0.00  0.00    -0.174 OA
ATOM     28  O   UNL     1       6.099   3.638  22.480  0.00  0.00    -0.174 OA
ATOM     29  C   UNL     1       7.438   0.412  22.927  0.00  0.00    -0.020 A 
ATOM     30  C   UNL     1       7.338  -0.981  22.952  0.00  0.00    +0.028 A 
ENDBRANCH  18  20
ENDBRANCH   4  18
TORSDOF 3
ENDMDL
MODEL 3
REMARK VINA RESULT:      -8.3      2.806      4.141
REMARK  Name = 
REMARK  3 active torsions:
REMARK  status: ('A' for Active; 'I' for Inactive)
REMARK    1  A    between atoms: C_7  and  C_24
REMARK    2  A    between atoms: C_11  and  N_12
REMARK    3  A    between atoms: N_12  and  C_13
REMARK                            x       y       z     vdW  Elec       q    Type
REMARK                         _______ _______ _______ _____ _____    ______ ____
ROOT
ATOM      1  O   UNL     1       8.460  -2.162  21.763  0.00  0.00    -0.270 OA
ATOM      2  C   UNL     1       7.882  -2.909  22.529  0.00  0.00    +0.250 C 
ATOM      3  C   UNL     1       8.122  -3.062  23.997  0.00  0.00    +0.060 C 
ATOM      4  C   UNL     1       8.997  -2.437  24.787  0.00  0.00    +0.085 C 
ATOM      5  C   UNL     1       7.192  -4.070  24.490  0.00  0.00    +0.010 A 
ATOM      6  C   UNL     1       6.447  -4.494  23.395  0.00  0.00    +0.042 A 
ATOM      7  C   UNL     1       5.470  -5.456  23.529  0.00  0.00    +0.024 A 
ATOM      8  C   UNL     1       5.256  -5.996  24.814  0.00  0.00    +0.013 A 
ATOM      9  C   UNL     1       6.008  -5.573  25.935  0.00  0.00    +0.020 A 
ATOM     10  C   UNL     1       6.989  -4.593  25.753  0.00  0.00    +0.022 A 
ATOM     11  N   UNL     1       6.853  -3.809  22.247  0.00  0.00    -0.281 N 
ATOM     12  H   UNL     1       6.472  -3.931  21.321  0.00  0.00    +0.155 HD
ENDROOT
BRANCH   9  13
ATOM     13  C   UNL     1       5.795  -6.124  27.266  0.00  0.00    +0.155 A 
ATOM     14  O   UNL     1       6.838  -6.005  28.156  0.00  0.00    -0.442 OA
ATOM     15  C   UNL     1       6.382  -6.588  29.294  0.00  0.00    +0.308 A 
ATOM     16  N   UNL     1       5.161  -7.066  29.221  0.00  0.00    -0.224 NA
ATOM     17  C   UNL     1       4.780  -6.774  27.932  0.00  0.00    +0.160 A 
ENDBRANCH   9  13
BRANCH   4  18
ATOM     18  N   UNL     1       9.937  -1.483  24.523  0.00  0.00    -0.320 N 
ATOM     19  H   UNL     1      10.880  -1.829  24.351  0.00  0.00    +0.152 HD
BRANCH  18  20
ATOM     20  C   UNL     1       9.737  -0.090  24.471  0.00  0.00    +0.031 A 
ATOM     21  C   UNL     1      10.544   0.785  23.718  0.00  0.00    +0.023 A 
ATOM     22  C   UNL     1      10.315   2.163  23.689  0.00  0.00    +0.007 A 
ATOM     23  C   UNL     1       9.262   2.690  24.424  0.00  0.00    -0.022 A 
ATOM     24  C   UNL     1       8.932   4.146  24.454  0.00  0.00    +0.201 C 
ATOM     25  S   UNL     1       7.533   4.227  25.564  0.00  0.00    -0.023 S 
ATOM     26  C   UNL     1       7.346   2.490  25.952  0.00  0.00    +0.201 C 
ATOM     27  O   UNL     1       7.941   4.926  26.769  0.00  0.00    -0.174 OA
ATOM     28  O   UNL     1       6.370   4.658  24.808  0.00  0.00    -0.174 OA
ATOM     29  C   UNL     1       8.450   1.841  25.183  0.00  0.00    -0.020 A 
ATOM     30  C   UNL     1       8.683   0.465  25.206  0.00  0.00    +0.028 A 
ENDBRANCH  18  20
ENDBRANCH   4  18
TORSDOF 3
ENDMDL
MODEL 4
REMARK VINA RESULT:      -8.0      3.363      9.043
REMARK  Name = 
REMARK  3 active torsions:
REMARK  status: ('A' for Active; 'I' for Inactive)
REMARK    1  A    between atoms: C_7  and  C_24
REMARK    2  A    between atoms: C_11  and  N_12
REMARK    3  A    between atoms: N_12  and  C_13
REMARK                            x       y       z     vdW  Elec       q    Type
REMARK                         _______ _______ _______ _____ _____    ______ ____
ROOT
ATOM      1  O   UNL     1       9.881  -3.040  23.723  0.00  0.00    -0.270 OA
ATOM      2  C   UNL     1       9.815  -1.827  23.673  0.00  0.00    +0.250 C 
ATOM      3  C   UNL     1       9.277  -0.906  24.722  0.00  0.00    +0.060 C 
ATOM      4  C   UNL     1       8.760  -1.189  25.919  0.00  0.00    +0.085 C 
ATOM      5  C   UNL     1       9.405   0.455  24.217  0.00  0.00    +0.010 A 
ATOM      6  C   UNL     1       9.978   0.359  22.954  0.00  0.00    +0.042 A 
ATOM      7  C   UNL     1      10.232   1.485  22.202  0.00  0.00    +0.024 A 
ATOM      8  C   UNL     1       9.889   2.734  22.757  0.00  0.00    +0.013 A 
ATOM      9  C   UNL     1       9.305   2.844  24.041  0.00  0.00    +0.020 A 
ATOM     10  C   UNL     1       9.065   1.675  24.771  0.00  0.00    +0.022 A 
ATOM     11  N   UNL     1      10.219  -0.981  22.639  0.00  0.00    -0.281 N 
ATOM     12  H   UNL     1      10.628  -1.322  21.783  0.00  0.00    +0.155 HD
ENDROOT
BRANCH   9  13
ATOM     13  C   UNL     1       8.946   4.129  24.624  0.00  0.00    +0.155 A 
ATOM     14  O   UNL     1       8.148   4.096  25.744  0.00  0.00    -0.442 OA
ATOM     15  C   UNL     1       7.970   5.401  26.074  0.00  0.00    +0.308 A 
ATOM     16  N   UNL     1       8.570   6.259  25.282  0.00  0.00    -0.224 NA
ATOM     17  C   UNL     1       9.194   5.457  24.356  0.00  0.00    +0.160 A 
ENDBRANCH   9  13
BRANCH   4  18
ATOM     18  N   UNL     1       8.554  -2.376  26.561  0.00  0.00    -0.320 N 
ATOM     19  H   UNL     1       9.158  -2.553  27.363  0.00  0.00    +0.152 HD
BRANCH  18  20
ATOM     20  C   UNL     1       7.611  -3.366  26.228  0.00  0.00    +0.031 A 
ATOM     21  C   UNL     1       7.659  -4.685  26.720  0.00  0.00    +0.023 A 
ATOM     22  C   UNL     1       6.704  -5.642  26.368  0.00  0.00    +0.007 A 
ATOM     23  C   UNL     1       5.675  -5.287  25.507  0.00  0.00    -0.022 A 
ATOM     24  C   UNL     1       4.605  -6.234  25.077  0.00  0.00    +0.201 C 
ATOM     25  S   UNL     1       3.602  -5.246  23.973  0.00  0.00    -0.023 S 
ATOM     26  C   UNL     1       4.477  -3.689  24.074  0.00  0.00    +0.201 C 
ATOM     27  O   UNL     1       3.747  -5.769  22.627  0.00  0.00    -0.174 OA
ATOM     28  O   UNL     1       2.290  -5.077  24.572  0.00  0.00    -0.174 OA
ATOM     29  C   UNL     1       5.609  -3.985  25.002  0.00  0.00    -0.020 A 
ATOM     30  C   UNL     1       6.566  -3.032  25.359  0.00  0.00    +0.028 A 
ENDBRANCH  18  20
ENDBRANCH   4  18
TORSDOF 3
ENDMDL
MODEL 5
REMARK VINA RESULT:      -7.8      2.285      3.415
REMARK  Name = 
REMARK  3 active torsions:
REMARK  status: ('A' for Active; 'I' for Inactive)
REMARK    1  A    between atoms: C_7  and  C_24
REMARK    2  A    between atoms: C_11  and  N_12
REMARK    3  A    between atoms: N_12  and  C_13
REMARK                            x       y       z     vdW  Elec       q    Type
REMARK                         _______ _______ _______ _____ _____    ______ ____
ROOT
ATOM      1  O   UNL     1       7.307  -5.381  21.730  0.00  0.00    -0.270 OA
ATOM      2  C   UNL     1       6.603  -5.647  22.685  0.00  0.00    +0.250 C 
ATOM      3  C   UNL     1       6.813  -5.234  24.106  0.00  0.00    +0.060 C 
ATOM      4  C   UNL     1       7.789  -4.500  24.645  0.00  0.00    +0.085 C 
ATOM      5  C   UNL     1       5.715  -5.786  24.890  0.00  0.00    +0.010 A 
ATOM      6  C   UNL     1       4.904  -6.483  24.002  0.00  0.00    +0.042 A 
ATOM      7  C   UNL     1       3.768  -7.131  24.436  0.00  0.00    +0.024 A 
ATOM      8  C   UNL     1       3.460  -7.063  25.810  0.00  0.00    +0.013 A 
ATOM      9  C   UNL     1       4.279  -6.356  26.723  0.00  0.00    +0.020 A 
ATOM     10  C   UNL     1       5.422  -5.712  26.239  0.00  0.00    +0.022 A 
ATOM     11  N   UNL     1       5.427  -6.398  22.709  0.00  0.00    -0.281 N 
ATOM     12  H   UNL     1       5.028  -6.816  21.882  0.00  0.00    +0.155 HD
ENDROOT
BRANCH   9  13
ATOM     13  C   UNL     1       3.972  -6.280  28.144  0.00  0.00    +0.155 A 
ATOM     14  O   UNL     1       4.781  -7.002  28.990  0.00  0.00    -0.442 OA
ATOM     15  C   UNL     1       4.283  -6.758  30.229  0.00  0.00    +0.308 A 
ATOM     16  N   UNL     1       3.244  -5.958  30.260  0.00  0.00    -0.224 NA
ATOM     17  C   UNL     1       3.038  -5.649  28.936  0.00  0.00    +0.160 A 
ENDBRANCH   9  13
BRANCH   4  18
ATOM     18  N   UNL     1       8.887  -3.906  24.092  0.00  0.00    -0.320 N 
ATOM     19  H   UNL     1       9.723  -4.486  24.041  0.00  0.00    +0.152 HD
BRANCH  18  20
ATOM     20  C   UNL     1       8.979  -2.590  23.601  0.00  0.00    +0.031 A 
ATOM     21  C   UNL     1       8.660  -2.229  22.277  0.00  0.00    +0.023 A 
ATOM     22  C   UNL     1       8.761  -0.911  21.824  0.00  0.00    +0.007 A 
ATOM     23  C   UNL     1       9.193   0.075  22.700  0.00  0.00    -0.022 A 
ATOM     24  C   UNL     1       9.329   1.510  22.314  0.00  0.00    +0.201 C 
ATOM     25  S   UNL     1       9.935   2.282  23.809  0.00  0.00    -0.023 S 
ATOM     26  C   UNL     1       9.985   0.858  24.892  0.00  0.00    +0.201 C 
ATOM     27  O   UNL     1      11.296   2.730  23.576  0.00  0.00    -0.174 OA
ATOM     28  O   UNL     1       8.921   3.198  24.299  0.00  0.00    -0.174 OA
ATOM     29  C   UNL     1       9.520  -0.260  24.017  0.00  0.00    -0.020 A 
ATOM     30  C   UNL     1       9.414  -1.579  24.465  0.00  0.00    +0.028 A 
ENDBRANCH  18  20
ENDBRANCH   4  18
TORSDOF 3
ENDMDL
MODEL 6
REMARK VINA RESULT:      -7.8      2.077      2.349
REMARK  Name = 
REMARK  3 active torsions:
REMARK  status: ('A' for Active; 'I' for Inactive)
REMARK    1  A    between atoms: C_7  and  C_24
REMARK    2  A    between atoms: C_11  and  N_12
REMARK    3  A    between atoms: N_12  and  C_13
REMARK                            x       y       z     vdW  Elec       q    Type
REMARK                         _______ _______ _______ _____ _____    ______ ____
ROOT
ATOM      1  O   UNL     1       9.992  -3.968  24.578  0.00  0.00    -0.270 OA
ATOM      2  C   UNL     1       8.998  -4.378  25.145  0.00  0.00    +0.250 C 
ATOM      3  C   UNL     1       7.590  -4.339  24.643  0.00  0.00    +0.060 C 
ATOM      4  C   UNL     1       7.108  -3.863  23.493  0.00  0.00    +0.085 C 
ATOM      5  C   UNL     1       6.744  -4.943  25.665  0.00  0.00    +0.010 A 
ATOM      6  C   UNL     1       7.584  -5.316  26.707  0.00  0.00    +0.042 A 
ATOM      7  C   UNL     1       7.085  -5.921  27.840  0.00  0.00    +0.024 A 
ATOM      8  C   UNL     1       5.694  -6.145  27.904  0.00  0.00    +0.013 A 
ATOM      9  C   UNL     1       4.830  -5.770  26.848  0.00  0.00    +0.020 A 
ATOM     10  C   UNL     1       5.379  -5.159  25.717  0.00  0.00    +0.022 A 
ATOM     11  N   UNL     1       8.905  -4.984  26.398  0.00  0.00    -0.281 N 
ATOM     12  H   UNL     1       9.708  -5.148  26.987  0.00  0.00    +0.155 HD
ENDROOT
BRANCH   9  13
ATOM     13  C   UNL     1       3.393  -5.996  26.904  0.00  0.00    +0.155 A 
ATOM     14  O   UNL     1       2.861  -6.817  25.936  0.00  0.00    -0.442 OA
ATOM     15  C   UNL     1       1.533  -6.856  26.215  0.00  0.00    +0.308 A 
ATOM     16  N   UNL     1       1.165  -6.147  27.257  0.00  0.00    -0.224 NA
ATOM     17  C   UNL     1       2.343  -5.596  27.702  0.00  0.00    +0.160 A 
ENDBRANCH   9  13
BRANCH   4  18
ATOM     18  N   UNL     1       7.723  -3.269  22.428  0.00  0.00    -0.320 N 
ATOM     19  H   UNL     1       7.867  -3.865  21.615  0.00  0.00    +0.152 HD
BRANCH  18  20
ATOM     20  C   UNL     1       8.176  -1.939  22.348  0.00  0.00    +0.031 A 
ATOM     21  C   UNL     1       9.419  -1.571  21.797  0.00  0.00    +0.023 A 
ATOM     22  C   UNL     1       9.835  -0.239  21.731  0.00  0.00    +0.007 A 
ATOM     23  C   UNL     1       9.003   0.756  22.226  0.00  0.00    -0.022 A 
ATOM     24  C   UNL     1       9.354   2.206  22.197  0.00  0.00    +0.201 C 
ATOM     25  S   UNL     1       7.946   2.985  22.977  0.00  0.00    -0.023 S 
ATOM     26  C   UNL     1       6.936   1.543  23.299  0.00  0.00    +0.201 C 
ATOM     27  O   UNL     1       8.373   3.540  24.248  0.00  0.00    -0.174 OA
ATOM     28  O   UNL     1       7.271   3.809  21.991  0.00  0.00    -0.174 OA
ATOM     29  C   UNL     1       7.766   0.414  22.782  0.00  0.00    -0.020 A 
ATOM     30  C   UNL     1       7.355  -0.919  22.842  0.00  0.00    +0.028 A 
ENDBRANCH  18  20
ENDBRANCH   4  18
TORSDOF 3
ENDMDL
MODEL 7
REMARK VINA RESULT:      -7.7      1.274      1.971
REMARK  Name = 
REMARK  3 active torsions:
REMARK  status: ('A' for Active; 'I' for Inactive)
REMARK    1  A    between atoms: C_7  and  C_24
REMARK    2  A    between atoms: C_11  and  N_12
REMARK    3  A    between atoms: N_12  and  C_13
REMARK                            x       y       z     vdW  Elec       q    Type
REMARK                         _______ _______ _______ _____ _____    ______ ____
ROOT
ATOM      1  O   UNL     1       8.413  -4.779  27.155  0.00  0.00    -0.270 OA
ATOM      2  C   UNL     1       7.358  -5.272  26.804  0.00  0.00    +0.250 C 
ATOM      3  C   UNL     1       6.783  -5.293  25.424  0.00  0.00    +0.060 C 
ATOM      4  C   UNL     1       7.275  -4.793  24.289  0.00  0.00    +0.085 C 
ATOM      5  C   UNL     1       5.505  -5.992  25.493  0.00  0.00    +0.010 A 
ATOM      6  C   UNL     1       5.325  -6.363  26.820  0.00  0.00    +0.042 A 
ATOM      7  C   UNL     1       4.198  -7.048  27.220  0.00  0.00    +0.024 A 
ATOM      8  C   UNL     1       3.236  -7.355  26.237  0.00  0.00    +0.013 A 
ATOM      9  C   UNL     1       3.409  -6.982  24.882  0.00  0.00    +0.020 A 
ATOM     10  C   UNL     1       4.569  -6.289  24.520  0.00  0.00    +0.022 A 
ATOM     11  N   UNL     1       6.415  -5.940  27.586  0.00  0.00    -0.281 N 
ATOM     12  H   UNL     1       6.530  -6.084  28.578  0.00  0.00    +0.155 HD
ENDROOT
BRANCH   9  13
ATOM     13  C   UNL     1       2.422  -7.295  23.859  0.00  0.00    +0.155 A 
ATOM     14  O   UNL     1       2.216  -6.340  22.890  0.00  0.00    -0.442 OA
ATOM     15  C   UNL     1       1.267  -6.876  22.080  0.00  0.00    +0.308 A 
ATOM     16  N   UNL     1       0.849  -8.069  22.432  0.00  0.00    -0.224 NA
ATOM     17  C   UNL     1       1.579  -8.344  23.565  0.00  0.00    +0.160 A 
ENDBRANCH   9  13
BRANCH   4  18
ATOM     18  N   UNL     1       8.429  -4.116  24.021  0.00  0.00    -0.320 N 
ATOM     19  H   UNL     1       9.227  -4.693  23.759  0.00  0.00    +0.152 HD
BRANCH  18  20
ATOM     20  C   UNL     1       8.625  -2.723  24.076  0.00  0.00    +0.031 A 
ATOM     21  C   UNL     1       8.667  -1.989  25.278  0.00  0.00    +0.023 A 
ATOM     22  C   UNL     1       8.865  -0.606  25.295  0.00  0.00    +0.007 A 
ATOM     23  C   UNL     1       9.023   0.070  24.093  0.00  0.00    -0.022 A 
ATOM     24  C   UNL     1       9.245   1.543  24.006  0.00  0.00    +0.201 C 
ATOM     25  S   UNL     1       9.346   1.840  22.246  0.00  0.00    -0.023 S 
ATOM     26  C   UNL     1       9.149   0.168  21.640  0.00  0.00    +0.201 C 
ATOM     27  O   UNL     1       8.186   2.615  21.842  0.00  0.00    -0.174 OA
ATOM     28  O   UNL     1      10.690   2.289  21.931  0.00  0.00    -0.174 OA
ATOM     29  C   UNL     1       8.980  -0.636  22.887  0.00  0.00    -0.020 A 
ATOM     30  C   UNL     1       8.785  -2.019  22.877  0.00  0.00    +0.028 A 
ENDBRANCH  18  20
ENDBRANCH   4  18
TORSDOF 3
ENDMDL
MODEL 8
REMARK VINA RESULT:      -7.7      3.323      9.194
REMARK  Name = 
REMARK  3 active torsions:
REMARK  status: ('A' for Active; 'I' for Inactive)
REMARK    1  A    between atoms: C_7  and  C_24
REMARK    2  A    between atoms: C_11  and  N_12
REMARK    3  A    between atoms: N_12  and  C_13
REMARK                            x       y       z     vdW  Elec       q    Type
REMARK                         _______ _______ _______ _____ _____    ______ ____
ROOT
ATOM      1  O   UNL     1       9.415  -3.854  23.854  0.00  0.00    -0.270 OA
ATOM      2  C   UNL     1       9.438  -2.640  23.792  0.00  0.00    +0.250 C 
ATOM      3  C   UNL     1       8.879  -1.672  24.786  0.00  0.00    +0.060 C 
ATOM      4  C   UNL     1       8.244  -1.904  25.936  0.00  0.00    +0.085 C 
ATOM      5  C   UNL     1       9.143  -0.329  24.285  0.00  0.00    +0.010 A 
ATOM      6  C   UNL     1       9.812  -0.480  23.076  0.00  0.00    +0.042 A 
ATOM      7  C   UNL     1      10.206   0.617  22.341  0.00  0.00    +0.024 A 
ATOM      8  C   UNL     1       9.904   1.894  22.857  0.00  0.00    +0.013 A 
ATOM      9  C   UNL     1       9.223   2.058  24.087  0.00  0.00    +0.020 A 
ATOM     10  C   UNL     1       8.843   0.918  24.801  0.00  0.00    +0.022 A 
ATOM     11  N   UNL     1       9.985  -1.836  22.791  0.00  0.00    -0.281 N 
ATOM     12  H   UNL     1      10.440  -2.215  21.974  0.00  0.00    +0.155 HD
ENDROOT
BRANCH   9  13
ATOM     13  C   UNL     1       8.907   3.372  24.629  0.00  0.00    +0.155 A 
ATOM     14  O   UNL     1       9.681   4.422  24.193  0.00  0.00    -0.442 OA
ATOM     15  C   UNL     1       9.183   5.505  24.842  0.00  0.00    +0.308 A 
ATOM     16  N   UNL     1       8.175   5.255  25.644  0.00  0.00    -0.224 NA
ATOM     17  C   UNL     1       7.992   3.898  25.515  0.00  0.00    +0.160 A 
ENDBRANCH   9  13
BRANCH   4  18
ATOM     18  N   UNL     1       7.904  -3.067  26.567  0.00  0.00    -0.320 N 
ATOM     19  H   UNL     1       8.623  -3.469  27.166  0.00  0.00    +0.152 HD
BRANCH  18  20
ATOM     20  C   UNL     1       6.681  -3.756  26.467  0.00  0.00    +0.031 A 
ATOM     21  C   UNL     1       5.653  -3.662  27.425  0.00  0.00    +0.023 A 
ATOM     22  C   UNL     1       4.450  -4.359  27.293  0.00  0.00    +0.007 A 
ATOM     23  C   UNL     1       4.258  -5.174  26.186  0.00  0.00    -0.022 A 
ATOM     24  C   UNL     1       3.008  -5.955  25.951  0.00  0.00    +0.201 C 
ATOM     25  S   UNL     1       3.343  -6.817  24.420  0.00  0.00    -0.023 S 
ATOM     26  C   UNL     1       4.983  -6.192  24.069  0.00  0.00    +0.201 C 
ATOM     27  O   UNL     1       3.442  -8.237  24.703  0.00  0.00    -0.174 OA
ATOM     28  O   UNL     1       2.434  -6.319  23.403  0.00  0.00    -0.174 OA
ATOM     29  C   UNL     1       5.266  -5.288  25.224  0.00  0.00    -0.020 A 
ATOM     30  C   UNL     1       6.465  -4.586  25.360  0.00  0.00    +0.028 A 
ENDBRANCH  18  20
ENDBRANCH   4  18
TORSDOF 3
ENDMDL
MODEL 9
REMARK VINA RESULT:      -7.7      3.877      8.504
REMARK  Name = 
REMARK  3 active torsions:
REMARK  status: ('A' for Active; 'I' for Inactive)
REMARK    1  A    between atoms: C_7  and  C_24
REMARK    2  A    between atoms: C_11  and  N_12
REMARK    3  A    between atoms: N_12  and  C_13
REMARK                            x       y       z     vdW  Elec       q    Type
REMARK                         _______ _______ _______ _____ _____    ______ ____
ROOT
ATOM      1  O   UNL     1      10.209  -2.969  23.746  0.00  0.00    -0.270 OA
ATOM      2  C   UNL     1       9.764  -1.837  23.762  0.00  0.00    +0.250 C 
ATOM      3  C   UNL     1       8.376  -1.406  23.411  0.00  0.00    +0.060 C 
ATOM      4  C   UNL     1       7.333  -2.136  23.010  0.00  0.00    +0.085 C 
ATOM      5  C   UNL     1       8.311   0.040  23.579  0.00  0.00    +0.010 A 
ATOM      6  C   UNL     1       9.571   0.449  24.000  0.00  0.00    +0.042 A 
ATOM      7  C   UNL     1       9.841   1.777  24.250  0.00  0.00    +0.024 A 
ATOM      8  C   UNL     1       8.796   2.704  24.060  0.00  0.00    +0.013 A 
ATOM      9  C   UNL     1       7.509   2.299  23.631  0.00  0.00    +0.020 A 
ATOM     10  C   UNL     1       7.279   0.941  23.391  0.00  0.00    +0.022 A 
ATOM     11  N   UNL     1      10.420  -0.655  24.108  0.00  0.00    -0.281 N 
ATOM     12  H   UNL     1      11.387  -0.631  24.395  0.00  0.00    +0.155 HD
ENDROOT
BRANCH   9  13
ATOM     13  C   UNL     1       6.423   3.248  23.432  0.00  0.00    +0.155 A 
ATOM     14  O   UNL     1       5.407   2.854  22.592  0.00  0.00    -0.442 OA
ATOM     15  C   UNL     1       4.545   3.903  22.585  0.00  0.00    +0.308 A 
ATOM     16  N   UNL     1       4.906   4.921  23.331  0.00  0.00    -0.224 NA
ATOM     17  C   UNL     1       6.101   4.513  23.874  0.00  0.00    +0.160 A 
ENDBRANCH   9  13
BRANCH   4  18
ATOM     18  N   UNL     1       7.194  -3.477  22.793  0.00  0.00    -0.320 N 
ATOM     19  H   UNL     1       7.652  -3.836  21.956  0.00  0.00    +0.152 HD
BRANCH  18  20
ATOM     20  C   UNL     1       6.487  -4.394  23.592  0.00  0.00    +0.031 A 
ATOM     21  C   UNL     1       5.623  -5.377  23.072  0.00  0.00    +0.023 A 
ATOM     22  C   UNL     1       4.938  -6.274  23.897  0.00  0.00    +0.007 A 
ATOM     23  C   UNL     1       5.110  -6.195  25.272  0.00  0.00    -0.022 A 
ATOM     24  C   UNL     1       4.429  -7.109  26.236  0.00  0.00    +0.201 C 
ATOM     25  S   UNL     1       4.998  -6.526  27.827  0.00  0.00    -0.023 S 
ATOM     26  C   UNL     1       6.080  -5.201  27.301  0.00  0.00    +0.201 C 
ATOM     27  O   UNL     1       3.871  -5.945  28.535  0.00  0.00    -0.174 OA
ATOM     28  O   UNL     1       5.806  -7.566  28.436  0.00  0.00    -0.174 OA
ATOM     29  C   UNL     1       5.959  -5.224  25.812  0.00  0.00    -0.020 A 
ATOM     30  C   UNL     1       6.642  -4.333  24.982  0.00  0.00    +0.028 A 
ENDBRANCH  18  20
ENDBRANCH   4  18
TORSDOF 3
ENDMDL
