MODEL 1
REMARK VINA RESULT:      -4.8      0.000      0.000
REMARK  Name = 
REMARK  12 active torsions:
REMARK  status: ('A' for Active; 'I' for Inactive)
REMARK    1  A    between atoms: N_1  and  C_2
REMARK    2  A    between atoms: C_2  and  C_4
REMARK    3  A    between atoms: C_2  and  C_14
REMARK    4  A    between atoms: C_4  and  C_5
REMARK    5  A    between atoms: C_5  and  S_6
REMARK    6  A    between atoms: S_6  and  C_7
REMARK    7  A    between atoms: C_7  and  C_8
REMARK    8  A    between atoms: C_8  and  C_9
REMARK    9  A    between atoms: C_9  and  C_10
REMARK   10  A    between atoms: C_10  and  C_11
REMARK   11  A    between atoms: C_11  and  O_12
REMARK   12  A    between atoms: C_14  and  O_15
REMARK                            x       y       z     vdW  Elec       q    Type
REMARK                         _______ _______ _______ _____ _____    ______ ____
ROOT
ATOM      1  C   UNK     1       8.592  -2.291  25.249  0.00  0.00    +0.071 C 
ENDROOT
BRANCH   1   2
ATOM      2  C   UNK     1       8.524  -3.289  26.408  0.00  0.00    +0.040 C 
BRANCH   2   3
ATOM      3  C   UNK     1       8.080  -4.696  25.989  0.00  0.00    +0.161 C 
BRANCH   3   4
ATOM      4  N   UNK     1       8.123  -5.604  27.184  0.00  0.00    -0.318 NA
ATOM      5  H   UNK     1       8.324  -5.037  28.017  0.00  0.00    +0.119 HD
ATOM      6  H   UNK     1       7.168  -5.941  27.349  0.00  0.00    +0.119 HD
ENDBRANCH   3   4
BRANCH   3   7
ATOM      7  C   UNK     1       8.982  -5.305  24.898  0.00  0.00    +0.322 C 
ATOM      8  O   UNK     1       8.642  -5.549  23.752  0.00  0.00    -0.249 OA
BRANCH   7   9
ATOM      9  O   UNK     1      10.226  -5.570  25.375  0.00  0.00    -0.480 OA
ATOM     10  H   UNK     1      10.103  -5.765  26.338  0.00  0.00    +0.295 HD
ENDBRANCH   7   9
ENDBRANCH   3   7
ENDBRANCH   2   3
ENDBRANCH   1   2
BRANCH   1  11
ATOM     11  S   UNK     1       6.934  -2.146  24.506  0.00  0.00    -0.161 S 
BRANCH  11  12
ATOM     12  C   UNK     1       7.392  -2.289  22.746  0.00  0.00    +0.069 C 
BRANCH  12  13
ATOM     13  C   UNK     1       8.909  -2.150  22.626  0.00  0.00    +0.011 C 
BRANCH  13  14
ATOM     14  C   UNK     1       9.313  -1.128  21.561  0.00  0.00    +0.012 C 
BRANCH  14  15
ATOM     15  C   UNK     1       9.966   0.092  22.211  0.00  0.00    +0.120 C 
BRANCH  15  16
ATOM     16  C   UNK     1       9.371   1.392  21.722  0.00  0.00    +0.305 C 
ATOM     17  O   UNK     1       8.198   1.569  21.436  0.00  0.00    -0.251 OA
BRANCH  16  18
ATOM     18  O   UNK     1      10.296   2.375  21.633  0.00  0.00    -0.481 OA
ATOM     19  H   UNK     1      10.772   2.393  20.782  0.00  0.00    +0.295 HD
ENDBRANCH  16  18
ENDBRANCH  15  16
ENDBRANCH  14  15
ENDBRANCH  13  14
ENDBRANCH  12  13
ENDBRANCH  11  12
ENDBRANCH   1  11
TORSDOF 12
ENDMDL
MODEL 2
REMARK VINA RESULT:      -4.7      2.098      2.534
REMARK  Name = 
REMARK  12 active torsions:
REMARK  status: ('A' for Active; 'I' for Inactive)
REMARK    1  A    between atoms: N_1  and  C_2
REMARK    2  A    between atoms: C_2  and  C_4
REMARK    3  A    between atoms: C_2  and  C_14
REMARK    4  A    between atoms: C_4  and  C_5
REMARK    5  A    between atoms: C_5  and  S_6
REMARK    6  A    between atoms: S_6  and  C_7
REMARK    7  A    between atoms: C_7  and  C_8
REMARK    8  A    between atoms: C_8  and  C_9
REMARK    9  A    between atoms: C_9  and  C_10
REMARK   10  A    between atoms: C_10  and  C_11
REMARK   11  A    between atoms: C_11  and  O_12
REMARK   12  A    between atoms: C_14  and  O_15
REMARK                            x       y       z     vdW  Elec       q    Type
REMARK                         _______ _______ _______ _____ _____    ______ ____
ROOT
ATOM      1  C   UNK     1       8.070  -3.021  23.596  0.00  0.00    +0.071 C 
ENDROOT
BRANCH   1   2
ATOM      2  C   UNK     1       8.305  -4.458  24.070  0.00  0.00    +0.040 C 
BRANCH   2   3
ATOM      3  C   UNK     1       9.042  -4.555  25.411  0.00  0.00    +0.161 C 
BRANCH   3   4
ATOM      4  N   UNK     1       9.928  -5.768  25.401  0.00  0.00    -0.318 NA
ATOM      5  H   UNK     1      10.832  -5.507  24.989  0.00  0.00    +0.119 HD
ATOM      6  H   UNK     1      10.162  -5.985  26.375  0.00  0.00    +0.119 HD
ENDBRANCH   3   4
BRANCH   3   7
ATOM      7  C   UNK     1       8.082  -4.677  26.611  0.00  0.00    +0.322 C 
ATOM      8  O   UNK     1       7.284  -3.827  26.970  0.00  0.00    -0.249 OA
BRANCH   7   9
ATOM      9  O   UNK     1       8.248  -5.860  27.257  0.00  0.00    -0.480 OA
ATOM     10  H   UNK     1       8.494  -5.621  28.186  0.00  0.00    +0.295 HD
ENDBRANCH   7   9
ENDBRANCH   3   7
ENDBRANCH   2   3
ENDBRANCH   1   2
BRANCH   1  11
ATOM     11  S   UNK     1       9.390  -1.960  24.272  0.00  0.00    -0.161 S 
BRANCH  11  12
ATOM     12  C   UNK     1       8.360  -0.759  25.180  0.00  0.00    +0.069 C 
BRANCH  12  13
ATOM     13  C   UNK     1       8.956   0.635  24.989  0.00  0.00    +0.011 C 
BRANCH  13  14
ATOM     14  C   UNK     1      10.383   0.582  24.442  0.00  0.00    +0.012 C 
BRANCH  14  15
ATOM     15  C   UNK     1      10.590   1.664  23.381  0.00  0.00    +0.120 C 
BRANCH  15  16
ATOM     16  C   UNK     1       9.889   1.339  22.083  0.00  0.00    +0.305 C 
ATOM     17  O   UNK     1       9.876   0.246  21.542  0.00  0.00    -0.251 OA
BRANCH  16  18
ATOM     18  O   UNK     1       9.252   2.414  21.563  0.00  0.00    -0.481 OA
ATOM     19  H   UNK     1       9.273   3.200  22.140  0.00  0.00    +0.295 HD
ENDBRANCH  16  18
ENDBRANCH  15  16
ENDBRANCH  14  15
ENDBRANCH  13  14
ENDBRANCH  12  13
ENDBRANCH  11  12
ENDBRANCH   1  11
TORSDOF 12
ENDMDL
MODEL 3
REMARK VINA RESULT:      -4.7      1.802      2.094
REMARK  Name = 
REMARK  12 active torsions:
REMARK  status: ('A' for Active; 'I' for Inactive)
REMARK    1  A    between atoms: N_1  and  C_2
REMARK    2  A    between atoms: C_2  and  C_4
REMARK    3  A    between atoms: C_2  and  C_14
REMARK    4  A    between atoms: C_4  and  C_5
REMARK    5  A    between atoms: C_5  and  S_6
REMARK    6  A    between atoms: S_6  and  C_7
REMARK    7  A    between atoms: C_7  and  C_8
REMARK    8  A    between atoms: C_8  and  C_9
REMARK    9  A    between atoms: C_9  and  C_10
REMARK   10  A    between atoms: C_10  and  C_11
REMARK   11  A    between atoms: C_11  and  O_12
REMARK   12  A    between atoms: C_14  and  O_15
REMARK                            x       y       z     vdW  Elec       q    Type
REMARK                         _______ _______ _______ _____ _____    ______ ____
ROOT
ATOM      1  C   UNK     1       9.316  -3.297  24.128  0.00  0.00    +0.071 C 
ENDROOT
BRANCH   1   2
ATOM      2  C   UNK     1       8.896  -3.317  25.601  0.00  0.00    +0.040 C 
BRANCH   2   3
ATOM      3  C   UNK     1       9.082  -4.679  26.280  0.00  0.00    +0.161 C 
BRANCH   3   4
ATOM      4  N   UNK     1       9.966  -5.541  25.426  0.00  0.00    -0.318 NA
ATOM      5  H   UNK     1      10.558  -6.111  26.042  0.00  0.00    +0.119 HD
ATOM      6  H   UNK     1       9.368  -6.232  24.962  0.00  0.00    +0.119 HD
ENDBRANCH   3   4
BRANCH   3   7
ATOM      7  C   UNK     1       7.750  -5.427  26.489  0.00  0.00    +0.322 C 
ATOM      8  O   UNK     1       6.847  -5.510  25.673  0.00  0.00    -0.249 OA
BRANCH   7   9
ATOM      9  O   UNK     1       7.682  -5.978  27.729  0.00  0.00    -0.480 OA
ATOM     10  H   UNK     1       7.758  -5.218  28.360  0.00  0.00    +0.295 HD
ENDBRANCH   7   9
ENDBRANCH   3   7
ENDBRANCH   2   3
ENDBRANCH   1   2
BRANCH   1  11
ATOM     11  S   UNK     1       7.924  -2.667  23.133  0.00  0.00    -0.161 S 
BRANCH  11  12
ATOM     12  C   UNK     1       8.791  -1.341  22.230  0.00  0.00    +0.069 C 
BRANCH  12  13
ATOM     13  C   UNK     1      10.254  -1.327  22.673  0.00  0.00    +0.011 C 
BRANCH  13  14
ATOM     14  C   UNK     1      10.592  -0.093  23.512  0.00  0.00    +0.012 C 
BRANCH  14  15
ATOM     15  C   UNK     1       9.479   0.949  23.401  0.00  0.00    +0.120 C 
BRANCH  15  16
ATOM     16  C   UNK     1       9.980   2.273  22.874  0.00  0.00    +0.305 C 
ATOM     17  O   UNK     1      10.180   3.271  23.546  0.00  0.00    -0.251 OA
BRANCH  16  18
ATOM     18  O   UNK     1      10.196   2.242  21.538  0.00  0.00    -0.481 OA
ATOM     19  H   UNK     1      10.656   3.030  21.195  0.00  0.00    +0.295 HD
ENDBRANCH  16  18
ENDBRANCH  15  16
ENDBRANCH  14  15
ENDBRANCH  13  14
ENDBRANCH  12  13
ENDBRANCH  11  12
ENDBRANCH   1  11
TORSDOF 12
ENDMDL
MODEL 4
REMARK VINA RESULT:      -4.6      1.880      1.972
REMARK  Name = 
REMARK  12 active torsions:
REMARK  status: ('A' for Active; 'I' for Inactive)
REMARK    1  A    between atoms: N_1  and  C_2
REMARK    2  A    between atoms: C_2  and  C_4
REMARK    3  A    between atoms: C_2  and  C_14
REMARK    4  A    between atoms: C_4  and  C_5
REMARK    5  A    between atoms: C_5  and  S_6
REMARK    6  A    between atoms: S_6  and  C_7
REMARK    7  A    between atoms: C_7  and  C_8
REMARK    8  A    between atoms: C_8  and  C_9
REMARK    9  A    between atoms: C_9  and  C_10
REMARK   10  A    between atoms: C_10  and  C_11
REMARK   11  A    between atoms: C_11  and  O_12
REMARK   12  A    between atoms: C_14  and  O_15
REMARK                            x       y       z     vdW  Elec       q    Type
REMARK                         _______ _______ _______ _____ _____    ______ ____
ROOT
ATOM      1  C   UNK     1       8.551  -1.869  26.176  0.00  0.00    +0.071 C 
ENDROOT
BRANCH   1   2
ATOM      2  C   UNK     1       8.382  -3.269  25.582  0.00  0.00    +0.040 C 
BRANCH   2   3
ATOM      3  C   UNK     1       8.656  -4.402  26.577  0.00  0.00    +0.161 C 
BRANCH   3   4
ATOM      4  N   UNK     1       9.864  -5.173  26.129  0.00  0.00    -0.318 NA
ATOM      5  H   UNK     1      10.014  -4.990  25.129  0.00  0.00    +0.119 HD
ATOM      6  H   UNK     1      10.684  -4.748  26.575  0.00  0.00    +0.119 HD
ENDBRANCH   3   4
BRANCH   3   7
ATOM      7  C   UNK     1       7.479  -5.391  26.695  0.00  0.00    +0.322 C 
ATOM      8  O   UNK     1       6.586  -5.531  25.876  0.00  0.00    -0.249 OA
BRANCH   7   9
ATOM      9  O   UNK     1       7.536  -6.091  27.858  0.00  0.00    -0.480 OA
ATOM     10  H   UNK     1       8.411  -5.862  28.261  0.00  0.00    +0.295 HD
ENDBRANCH   7   9
ENDBRANCH   3   7
ENDBRANCH   2   3
ENDBRANCH   1   2
BRANCH   1  11
ATOM     11  S   UNK     1       9.559  -0.868  25.033  0.00  0.00    -0.161 S 
BRANCH  11  12
ATOM     12  C   UNK     1      10.009  -2.165  23.832  0.00  0.00    +0.069 C 
BRANCH  12  13
ATOM     13  C   UNK     1      10.182  -1.517  22.459  0.00  0.00    +0.011 C 
BRANCH  13  14
ATOM     14  C   UNK     1       8.873  -0.929  21.929  0.00  0.00    +0.012 C 
BRANCH  14  15
ATOM     15  C   UNK     1       9.147   0.335  21.113  0.00  0.00    +0.120 C 
BRANCH  15  16
ATOM     16  C   UNK     1       9.246   1.569  21.978  0.00  0.00    +0.305 C 
ATOM     17  O   UNK     1       8.484   1.859  22.885  0.00  0.00    -0.251 OA
BRANCH  16  18
ATOM     18  O   UNK     1      10.301   2.347  21.639  0.00  0.00    -0.481 OA
ATOM     19  H   UNK     1      10.770   2.046  20.838  0.00  0.00    +0.295 HD
ENDBRANCH  16  18
ENDBRANCH  15  16
ENDBRANCH  14  15
ENDBRANCH  13  14
ENDBRANCH  12  13
ENDBRANCH  11  12
ENDBRANCH   1  11
TORSDOF 12
ENDMDL
MODEL 5
REMARK VINA RESULT:      -4.5      1.555      1.896
REMARK  Name = 
REMARK  12 active torsions:
REMARK  status: ('A' for Active; 'I' for Inactive)
REMARK    1  A    between atoms: N_1  and  C_2
REMARK    2  A    between atoms: C_2  and  C_4
REMARK    3  A    between atoms: C_2  and  C_14
REMARK    4  A    between atoms: C_4  and  C_5
REMARK    5  A    between atoms: C_5  and  S_6
REMARK    6  A    between atoms: S_6  and  C_7
REMARK    7  A    between atoms: C_7  and  C_8
REMARK    8  A    between atoms: C_8  and  C_9
REMARK    9  A    between atoms: C_9  and  C_10
REMARK   10  A    between atoms: C_10  and  C_11
REMARK   11  A    between atoms: C_11  and  O_12
REMARK   12  A    between atoms: C_14  and  O_15
REMARK                            x       y       z     vdW  Elec       q    Type
REMARK                         _______ _______ _______ _____ _____    ______ ____
ROOT
ATOM      1  C   UNK     1       7.200  -2.566  24.027  0.00  0.00    +0.071 C 
ENDROOT
BRANCH   1   2
ATOM      2  C   UNK     1       7.026  -4.054  24.344  0.00  0.00    +0.040 C 
BRANCH   2   3
ATOM      3  C   UNK     1       7.615  -4.471  25.697  0.00  0.00    +0.161 C 
BRANCH   3   4
ATOM      4  N   UNK     1       7.710  -3.267  26.588  0.00  0.00    -0.318 NA
ATOM      5  H   UNK     1       8.703  -3.038  26.722  0.00  0.00    +0.119 HD
ATOM      6  H   UNK     1       7.349  -2.465  26.061  0.00  0.00    +0.119 HD
ENDBRANCH   3   4
BRANCH   3   7
ATOM      7  C   UNK     1       9.026  -5.080  25.570  0.00  0.00    +0.322 C 
ATOM      8  O   UNK     1       9.487  -5.599  24.567  0.00  0.00    -0.249 OA
BRANCH   7   9
ATOM      9  O   UNK     1       9.708  -4.996  26.742  0.00  0.00    -0.480 OA
ATOM     10  H   UNK     1      10.398  -4.301  26.596  0.00  0.00    +0.295 HD
ENDBRANCH   7   9
ENDBRANCH   3   7
ENDBRANCH   2   3
ENDBRANCH   1   2
BRANCH   1  11
ATOM     11  S   UNK     1       8.324  -2.402  22.600  0.00  0.00    -0.161 S 
BRANCH  11  12
ATOM     12  C   UNK     1       9.896  -2.170  23.495  0.00  0.00    +0.069 C 
BRANCH  12  13
ATOM     13  C   UNK     1       9.724  -1.023  24.490  0.00  0.00    +0.011 C 
BRANCH  13  14
ATOM     14  C   UNK     1      10.503   0.225  24.072  0.00  0.00    +0.012 C 
BRANCH  14  15
ATOM     15  C   UNK     1       9.557   1.278  23.495  0.00  0.00    +0.120 C 
BRANCH  15  16
ATOM     16  C   UNK     1       9.673   1.397  21.994  0.00  0.00    +0.305 C 
ATOM     17  O   UNK     1       9.145   0.654  21.184  0.00  0.00    -0.251 OA
BRANCH  16  18
ATOM     18  O   UNK     1      10.444   2.447  21.623  0.00  0.00    -0.481 OA
ATOM     19  H   UNK     1      10.484   2.583  20.658  0.00  0.00    +0.295 HD
ENDBRANCH  16  18
ENDBRANCH  15  16
ENDBRANCH  14  15
ENDBRANCH  13  14
ENDBRANCH  12  13
ENDBRANCH  11  12
ENDBRANCH   1  11
TORSDOF 12
ENDMDL
MODEL 6
REMARK VINA RESULT:      -4.5      3.611      4.614
REMARK  Name = 
REMARK  12 active torsions:
REMARK  status: ('A' for Active; 'I' for Inactive)
REMARK    1  A    between atoms: N_1  and  C_2
REMARK    2  A    between atoms: C_2  and  C_4
REMARK    3  A    between atoms: C_2  and  C_14
REMARK    4  A    between atoms: C_4  and  C_5
REMARK    5  A    between atoms: C_5  and  S_6
REMARK    6  A    between atoms: S_6  and  C_7
REMARK    7  A    between atoms: C_7  and  C_8
REMARK    8  A    between atoms: C_8  and  C_9
REMARK    9  A    between atoms: C_9  and  C_10
REMARK   10  A    between atoms: C_10  and  C_11
REMARK   11  A    between atoms: C_11  and  O_12
REMARK   12  A    between atoms: C_14  and  O_15
REMARK                            x       y       z     vdW  Elec       q    Type
REMARK                         _______ _______ _______ _____ _____    ______ ____
ROOT
ATOM      1  C   UNK     1       9.404  -2.670  23.960  0.00  0.00    +0.071 C 
ENDROOT
BRANCH   1   2
ATOM      2  C   UNK     1       8.868  -4.087  24.179  0.00  0.00    +0.040 C 
BRANCH   2   3
ATOM      3  C   UNK     1       9.124  -4.635  25.588  0.00  0.00    +0.161 C 
BRANCH   3   4
ATOM      4  N   UNK     1      10.262  -5.613  25.539  0.00  0.00    -0.318 NA
ATOM      5  H   UNK     1      10.399  -5.904  24.563  0.00  0.00    +0.119 HD
ATOM      6  H   UNK     1      11.121  -5.098  25.758  0.00  0.00    +0.119 HD
ENDBRANCH   3   4
BRANCH   3   7
ATOM      7  C   UNK     1       7.898  -5.361  26.177  0.00  0.00    +0.322 C 
ATOM      8  O   UNK     1       6.815  -5.482  25.630  0.00  0.00    -0.249 OA
BRANCH   7   9
ATOM      9  O   UNK     1       8.159  -5.843  27.420  0.00  0.00    -0.480 OA
ATOM     10  H   UNK     1       8.433  -5.056  27.956  0.00  0.00    +0.295 HD
ENDBRANCH   7   9
ENDBRANCH   3   7
ENDBRANCH   2   3
ENDBRANCH   1   2
BRANCH   1  11
ATOM     11  S   UNK     1       8.525  -1.926  22.546  0.00  0.00    -0.161 S 
BRANCH  11  12
ATOM     12  C   UNK     1       7.154  -1.127  23.445  0.00  0.00    +0.069 C 
BRANCH  12  13
ATOM     13  C   UNK     1       5.965  -2.086  23.471  0.00  0.00    +0.011 C 
BRANCH  13  14
ATOM     14  C   UNK     1       5.914  -2.975  22.227  0.00  0.00    +0.012 C 
BRANCH  14  15
ATOM     15  C   UNK     1       5.446  -4.383  22.596  0.00  0.00    +0.120 C 
BRANCH  15  16
ATOM     16  C   UNK     1       6.103  -5.448  21.750  0.00  0.00    +0.305 C 
ATOM     17  O   UNK     1       7.295  -5.515  21.499  0.00  0.00    -0.251 OA
BRANCH  16  18
ATOM     18  O   UNK     1       5.211  -6.354  21.286  0.00  0.00    -0.481 OA
ATOM     19  H   UNK     1       4.282  -6.122  21.470  0.00  0.00    +0.295 HD
ENDBRANCH  16  18
ENDBRANCH  15  16
ENDBRANCH  14  15
ENDBRANCH  13  14
ENDBRANCH  12  13
ENDBRANCH  11  12
ENDBRANCH   1  11
TORSDOF 12
ENDMDL
MODEL 7
REMARK VINA RESULT:      -4.4      2.635      3.312
REMARK  Name = 
REMARK  12 active torsions:
REMARK  status: ('A' for Active; 'I' for Inactive)
REMARK    1  A    between atoms: N_1  and  C_2
REMARK    2  A    between atoms: C_2  and  C_4
REMARK    3  A    between atoms: C_2  and  C_14
REMARK    4  A    between atoms: C_4  and  C_5
REMARK    5  A    between atoms: C_5  and  S_6
REMARK    6  A    between atoms: S_6  and  C_7
REMARK    7  A    between atoms: C_7  and  C_8
REMARK    8  A    between atoms: C_8  and  C_9
REMARK    9  A    between atoms: C_9  and  C_10
REMARK   10  A    between atoms: C_10  and  C_11
REMARK   11  A    between atoms: C_11  and  O_12
REMARK   12  A    between atoms: C_14  and  O_15
REMARK                            x       y       z     vdW  Elec       q    Type
REMARK                         _______ _______ _______ _____ _____    ______ ____
ROOT
ATOM      1  C   UNK     1       8.900  -3.881  24.549  0.00  0.00    +0.071 C 
ENDROOT
BRANCH   1   2
ATOM      2  C   UNK     1       7.454  -3.978  24.056  0.00  0.00    +0.040 C 
BRANCH   2   3
ATOM      3  C   UNK     1       7.301  -3.778  22.543  0.00  0.00    +0.161 C 
BRANCH   3   4
ATOM      4  N   UNK     1       6.245  -2.742  22.286  0.00  0.00    -0.318 NA
ATOM      5  H   UNK     1       6.371  -2.378  21.334  0.00  0.00    +0.119 HD
ATOM      6  H   UNK     1       5.343  -3.227  22.238  0.00  0.00    +0.119 HD
ENDBRANCH   3   4
BRANCH   3   7
ATOM      7  C   UNK     1       6.887  -5.069  21.810  0.00  0.00    +0.322 C 
ATOM      8  O   UNK     1       7.390  -6.169  21.973  0.00  0.00    -0.249 OA
BRANCH   7   9
ATOM      9  O   UNK     1       5.891  -4.834  20.918  0.00  0.00    -0.480 OA
ATOM     10  H   UNK     1       6.147  -5.330  20.099  0.00  0.00    +0.295 HD
ENDBRANCH   7   9
ENDBRANCH   3   7
ENDBRANCH   2   3
ENDBRANCH   1   2
BRANCH   1  11
ATOM     11  S   UNK     1       9.660  -2.384  23.838  0.00  0.00    -0.161 S 
BRANCH  11  12
ATOM     12  C   UNK     1       8.786  -1.120  24.821  0.00  0.00    +0.069 C 
BRANCH  12  13
ATOM     13  C   UNK     1       9.781  -0.023  25.197  0.00  0.00    +0.011 C 
BRANCH  13  14
ATOM     14  C   UNK     1      10.757   0.285  24.060  0.00  0.00    +0.012 C 
BRANCH  14  15
ATOM     15  C   UNK     1      10.356   1.576  23.346  0.00  0.00    +0.120 C 
BRANCH  15  16
ATOM     16  C   UNK     1       9.712   1.316  22.005  0.00  0.00    +0.305 C 
ATOM     17  O   UNK     1       9.684   0.240  21.431  0.00  0.00    -0.251 OA
BRANCH  16  18
ATOM     18  O   UNK     1       9.146   2.430  21.485  0.00  0.00    -0.481 OA
ATOM     19  H   UNK     1       9.664   3.243  21.639  0.00  0.00    +0.295 HD
ENDBRANCH  16  18
ENDBRANCH  15  16
ENDBRANCH  14  15
ENDBRANCH  13  14
ENDBRANCH  12  13
ENDBRANCH  11  12
ENDBRANCH   1  11
TORSDOF 12
ENDMDL
MODEL 8
REMARK VINA RESULT:      -4.4      3.412      6.577
REMARK  Name = 
REMARK  12 active torsions:
REMARK  status: ('A' for Active; 'I' for Inactive)
REMARK    1  A    between atoms: N_1  and  C_2
REMARK    2  A    between atoms: C_2  and  C_4
REMARK    3  A    between atoms: C_2  and  C_14
REMARK    4  A    between atoms: C_4  and  C_5
REMARK    5  A    between atoms: C_5  and  S_6
REMARK    6  A    between atoms: S_6  and  C_7
REMARK    7  A    between atoms: C_7  and  C_8
REMARK    8  A    between atoms: C_8  and  C_9
REMARK    9  A    between atoms: C_9  and  C_10
REMARK   10  A    between atoms: C_10  and  C_11
REMARK   11  A    between atoms: C_11  and  O_12
REMARK   12  A    between atoms: C_14  and  O_15
REMARK                            x       y       z     vdW  Elec       q    Type
REMARK                         _______ _______ _______ _____ _____    ______ ____
ROOT
ATOM      1  C   UNK     1      10.091  -0.362  24.476  0.00  0.00    +0.071 C 
ENDROOT
BRANCH   1   2
ATOM      2  C   UNK     1      10.846   0.905  24.066  0.00  0.00    +0.040 C 
BRANCH   2   3
ATOM      3  C   UNK     1       9.977   2.168  24.053  0.00  0.00    +0.161 C 
BRANCH   3   4
ATOM      4  N   UNK     1       8.894   2.033  25.084  0.00  0.00    -0.318 NA
ATOM      5  H   UNK     1       8.154   2.713  24.870  0.00  0.00    +0.119 HD
ATOM      6  H   UNK     1       8.436   1.127  24.933  0.00  0.00    +0.119 HD
ENDBRANCH   3   4
BRANCH   3   7
ATOM      7  C   UNK     1       9.305   2.415  22.688  0.00  0.00    +0.322 C 
ATOM      8  O   UNK     1       8.166   2.818  22.520  0.00  0.00    -0.249 OA
BRANCH   7   9
ATOM      9  O   UNK     1      10.139   2.101  21.663  0.00  0.00    -0.480 OA
ATOM     10  H   UNK     1      10.024   1.128  21.517  0.00  0.00    +0.295 HD
ENDBRANCH   7   9
ENDBRANCH   3   7
ENDBRANCH   2   3
ENDBRANCH   1   2
BRANCH   1  11
ATOM     11  S   UNK     1       9.976  -1.467  23.031  0.00  0.00    -0.161 S 
BRANCH  11  12
ATOM     12  C   UNK     1       9.146  -2.888  23.818  0.00  0.00    +0.069 C 
BRANCH  12  13
ATOM     13  C   UNK     1       7.988  -3.331  22.924  0.00  0.00    +0.011 C 
BRANCH  13  14
ATOM     14  C   UNK     1       7.254  -4.548  23.491  0.00  0.00    +0.012 C 
BRANCH  14  15
ATOM     15  C   UNK     1       7.190  -5.666  22.451  0.00  0.00    +0.120 C 
BRANCH  15  16
ATOM     16  C   UNK     1       5.980  -5.550  21.555  0.00  0.00    +0.305 C 
ATOM     17  O   UNK     1       5.998  -5.590  20.336  0.00  0.00    -0.251 OA
BRANCH  16  18
ATOM     18  O   UNK     1       4.835  -5.397  22.260  0.00  0.00    -0.481 OA
ATOM     19  H   UNK     1       4.476  -6.232  22.613  0.00  0.00    +0.295 HD
ENDBRANCH  16  18
ENDBRANCH  15  16
ENDBRANCH  14  15
ENDBRANCH  13  14
ENDBRANCH  12  13
ENDBRANCH  11  12
ENDBRANCH   1  11
TORSDOF 12
ENDMDL
MODEL 9
REMARK VINA RESULT:      -4.3      2.768      3.421
REMARK  Name = 
REMARK  12 active torsions:
REMARK  status: ('A' for Active; 'I' for Inactive)
REMARK    1  A    between atoms: N_1  and  C_2
REMARK    2  A    between atoms: C_2  and  C_4
REMARK    3  A    between atoms: C_2  and  C_14
REMARK    4  A    between atoms: C_4  and  C_5
REMARK    5  A    between atoms: C_5  and  S_6
REMARK    6  A    between atoms: S_6  and  C_7
REMARK    7  A    between atoms: C_7  and  C_8
REMARK    8  A    between atoms: C_8  and  C_9
REMARK    9  A    between atoms: C_9  and  C_10
REMARK   10  A    between atoms: C_10  and  C_11
REMARK   11  A    between atoms: C_11  and  O_12
REMARK   12  A    between atoms: C_14  and  O_15
REMARK                            x       y       z     vdW  Elec       q    Type
REMARK                         _______ _______ _______ _____ _____    ______ ____
ROOT
ATOM      1  C   UNK     1       7.334  -1.214  22.893  0.00  0.00    +0.071 C 
ENDROOT
BRANCH   1   2
ATOM      2  C   UNK     1       6.500  -2.476  23.130  0.00  0.00    +0.040 C 
BRANCH   2   3
ATOM      3  C   UNK     1       6.919  -3.668  22.262  0.00  0.00    +0.161 C 
BRANCH   3   4
ATOM      4  N   UNK     1       5.822  -3.977  21.284  0.00  0.00    -0.318 NA
ATOM      5  H   UNK     1       4.919  -3.854  21.758  0.00  0.00    +0.119 HD
ATOM      6  H   UNK     1       5.824  -3.236  20.575  0.00  0.00    +0.119 HD
ENDBRANCH   3   4
BRANCH   3   7
ATOM      7  C   UNK     1       7.191  -4.941  23.088  0.00  0.00    +0.322 C 
ATOM      8  O   UNK     1       8.289  -5.325  23.457  0.00  0.00    -0.249 OA
BRANCH   7   9
ATOM      9  O   UNK     1       6.043  -5.618  23.345  0.00  0.00    -0.480 OA
ATOM     10  H   UNK     1       5.334  -4.928  23.395  0.00  0.00    +0.295 HD
ENDBRANCH   7   9
ENDBRANCH   3   7
ENDBRANCH   2   3
ENDBRANCH   1   2
BRANCH   1  11
ATOM     11  S   UNK     1       8.926  -1.698  22.149  0.00  0.00    -0.161 S 
BRANCH  11  12
ATOM     12  C   UNK     1       9.902  -1.924  23.674  0.00  0.00    +0.069 C 
BRANCH  12  13
ATOM     13  C   UNK     1       9.715  -0.690  24.556  0.00  0.00    +0.011 C 
BRANCH  13  14
ATOM     14  C   UNK     1      10.719   0.415  24.223  0.00  0.00    +0.012 C 
BRANCH  14  15
ATOM     15  C   UNK     1      10.018   1.772  24.154  0.00  0.00    +0.120 C 
BRANCH  15  16
ATOM     16  C   UNK     1      10.607   2.672  23.094  0.00  0.00    +0.305 C 
ATOM     17  O   UNK     1      11.322   3.637  23.304  0.00  0.00    -0.251 OA
BRANCH  16  18
ATOM     18  O   UNK     1      10.255   2.287  21.845  0.00  0.00    -0.481 OA
ATOM     19  H   UNK     1       9.295   2.156  21.729  0.00  0.00    +0.295 HD
ENDBRANCH  16  18
ENDBRANCH  15  16
ENDBRANCH  14  15
ENDBRANCH  13  14
ENDBRANCH  12  13
ENDBRANCH  11  12
ENDBRANCH   1  11
TORSDOF 12
ENDMDL
