MODEL 1
REMARK VINA RESULT:      -5.7      0.000      0.000
REMARK  Name = 
REMARK  18 active torsions:
REMARK  status: ('A' for Active; 'I' for Inactive)
REMARK    1  A    between atoms: C_1  and  C_2
REMARK    2  A    between atoms: C_2  and  C_3
REMARK    3  A    between atoms: C_3  and  C_5
REMARK    4  A    between atoms: C_3  and  C_6
REMARK    5  A    between atoms: C_6  and  O_8
REMARK    6  A    between atoms: O_8  and  C_9
REMARK    7  A    between atoms: C_12  and  C_14
REMARK    8  A    between atoms: C_19  and  C_21
REMARK    9  A    between atoms: C_22  and  C_24
REMARK   10  A    between atoms: C_24  and  C_25
REMARK   11  A    between atoms: C_25  and  C_26
REMARK   12  A    between atoms: C_29  and  O_31
REMARK   13  A    between atoms: N_35  and  C_36
REMARK   14  A    between atoms: C_36  and  C_37
REMARK   15  A    between atoms: C_44  and  O_45
REMARK   16  A    between atoms: O_45  and  C_46
REMARK   17  A    between atoms: C_47  and  C_48
REMARK   18  A    between atoms: C_48  and  O_49
REMARK                            x       y       z     vdW  Elec       q    Type
REMARK                         _______ _______ _______ _____ _____    ______ ____
ROOT
ATOM      1  C   UNL     1       6.856  -1.961  24.722  0.00  0.00    +0.079 C 
ATOM      2  N   UNL     1       6.834  -1.562  23.290  0.00  0.00    -0.294 N 
ATOM      3  C   UNL     1       6.525  -2.704  22.548  0.00  0.00    +0.219 C 
ATOM      4  O   UNL     1       5.412  -2.863  22.061  0.00  0.00    -0.275 OA
ATOM      5  C   UNL     1       7.523  -3.845  22.654  0.00  0.00    +0.127 C 
ATOM      6  C   UNL     1       7.827  -4.199  24.108  0.00  0.00    +0.125 C 
ATOM      7  C   UNL     1       8.050  -2.938  24.956  0.00  0.00    +0.054 C 
ENDROOT
BRANCH   6   8
ATOM      8  O   UNL     1       8.996  -5.019  24.158  0.00  0.00    -0.391 OA
ATOM      9  H   UNL     1       9.294  -5.183  23.245  0.00  0.00    +0.210 HD
ENDBRANCH   6   8
BRANCH   1  10
ATOM     10  C   UNL     1       6.749  -0.863  25.794  0.00  0.00    +0.023 C 
BRANCH  10  11
ATOM     11  C   UNL     1       5.850   0.392  25.590  0.00  0.00    +0.006 C 
BRANCH  11  22
ATOM     12  C   UNL     1       3.374   2.605  25.360  0.00  0.00    +0.185 C 
ATOM     13  C   UNL     1       4.742   2.955  26.024  0.00  0.00    +0.063 C 
ATOM     14  C   UNL     1       5.263   4.333  25.495  0.00  0.00    -0.044 C 
ATOM     15  C   UNL     1       6.562   4.779  25.977  0.00  0.00    -0.000 C 
ATOM     16  C   UNL     1       7.435   3.919  26.573  0.00  0.00    -0.023 C 
ATOM     17  C   UNL     1       7.132   2.464  26.862  0.00  0.00    +0.012 C 
ATOM     18  C   UNL     1       6.912   2.432  28.379  0.00  0.00    +0.012 C 
ATOM     19  C   UNL     1       4.647   5.068  24.549  0.00  0.00    -0.020 C 
ATOM     20  C   UNL     1       3.421   4.604  23.810  0.00  0.00    +0.012 C 
ATOM     21  C   UNL     1       3.402   5.057  22.347  0.00  0.00    +0.012 C 
ATOM     22  C   UNL     1       5.965   1.942  25.919  0.00  0.00    +0.007 C 
ATOM     23  C   UNL     1       3.342   3.071  23.890  0.00  0.00    +0.052 C 
BRANCH  12  24
ATOM     24  O   UNL     1       2.288   3.294  26.101  0.00  0.00    -0.461 OA
BRANCH  24  25
ATOM     25  C   UNL     1       2.332   3.154  27.457  0.00  0.00    +0.310 C 
ATOM     26  O   UNL     1       2.145   2.082  28.025  0.00  0.00    -0.251 OA
BRANCH  25  27
ATOM     27  C   UNL     1       2.523   4.430  28.281  0.00  0.00    +0.094 C 
ATOM     28  C   UNL     1       2.539   5.790  27.592  0.00  0.00    +0.019 C 
BRANCH  27  30
ATOM     29  C   UNL     1       4.715   5.415  29.166  0.00  0.00    +0.004 C 
ATOM     30  C   UNL     1       3.756   4.235  29.186  0.00  0.00    +0.011 C 
ENDBRANCH  27  30
ENDBRANCH  25  27
ENDBRANCH  24  25
ENDBRANCH  12  24
ENDBRANCH  11  22
ENDBRANCH  10  11
ENDBRANCH   1  10
BRANCH   2  31
ATOM     31  C   UNL     1       7.899  -0.663  22.755  0.00  0.00    +0.143 C 
BRANCH  31  32
ATOM     32  C   UNL     1       7.784   0.880  22.848  0.00  0.00    -0.030 A 
ATOM     33  C   UNL     1       8.857   1.635  23.356  0.00  0.00    +0.013 A 
ATOM     34  C   UNL     1       8.934   3.056  23.282  0.00  0.00    -0.017 A 
ATOM     35  C   UNL     1      10.100   3.674  23.751  0.00  0.00    +0.012 A 
ATOM     36  C   UNL     1      10.200   5.049  23.855  0.00  0.00    +0.046 A 
ATOM     37  C   UNL     1       9.093   5.821  23.540  0.00  0.00    +0.126 A 
ATOM     38  C   UNL     1       7.983   5.297  22.842  0.00  0.00    +0.027 A 
ATOM     39  C   UNL     1       7.877   3.845  22.742  0.00  0.00    -0.009 A 
ATOM     40  C   UNL     1       6.816   3.072  22.195  0.00  0.00    +0.009 A 
ATOM     41  C   UNL     1       6.771   1.637  22.254  0.00  0.00    +0.006 A 
BRANCH  37  42
ATOM     42  O   UNL     1       9.060   7.105  24.045  0.00  0.00    -0.495 OA
ATOM     43  C   UNL     1       9.538   7.063  25.404  0.00  0.00    +0.277 C 
ENDBRANCH  37  42
BRANCH  38  44
ATOM     44  C   UNL     1       6.984   6.348  22.386  0.00  0.00    +0.195 C 
BRANCH  44  45
ATOM     45  O   UNL     1       7.060   6.802  21.038  0.00  0.00    -0.390 OA
ATOM     46  H   UNL     1       7.830   6.352  20.644  0.00  0.00    +0.210 HD
ENDBRANCH  44  45
ENDBRANCH  38  44
ENDBRANCH  31  32
ENDBRANCH   2  31
TORSDOF 13
ENDMDL
MODEL 2
REMARK VINA RESULT:      -5.7      2.342      7.899
REMARK  Name = 
REMARK  18 active torsions:
REMARK  status: ('A' for Active; 'I' for Inactive)
REMARK    1  A    between atoms: C_1  and  C_2
REMARK    2  A    between atoms: C_2  and  C_3
REMARK    3  A    between atoms: C_3  and  C_5
REMARK    4  A    between atoms: C_3  and  C_6
REMARK    5  A    between atoms: C_6  and  O_8
REMARK    6  A    between atoms: O_8  and  C_9
REMARK    7  A    between atoms: C_12  and  C_14
REMARK    8  A    between atoms: C_19  and  C_21
REMARK    9  A    between atoms: C_22  and  C_24
REMARK   10  A    between atoms: C_24  and  C_25
REMARK   11  A    between atoms: C_25  and  C_26
REMARK   12  A    between atoms: C_29  and  O_31
REMARK   13  A    between atoms: N_35  and  C_36
REMARK   14  A    between atoms: C_36  and  C_37
REMARK   15  A    between atoms: C_44  and  O_45
REMARK   16  A    between atoms: O_45  and  C_46
REMARK   17  A    between atoms: C_47  and  C_48
REMARK   18  A    between atoms: C_48  and  O_49
REMARK                            x       y       z     vdW  Elec       q    Type
REMARK                         _______ _______ _______ _____ _____    ______ ____
ROOT
ATOM      1  C   UNL     1       5.161   2.566  27.703  0.00  0.00    +0.079 C 
ATOM      2  N   UNL     1       6.183   1.514  27.948  0.00  0.00    -0.294 N 
ATOM      3  C   UNL     1       6.654   1.692  29.251  0.00  0.00    +0.219 C 
ATOM      4  O   UNL     1       6.309   0.943  30.158  0.00  0.00    -0.275 OA
ATOM      5  C   UNL     1       7.339   3.019  29.526  0.00  0.00    +0.127 C 
ATOM      6  C   UNL     1       6.480   4.203  29.085  0.00  0.00    +0.125 C 
ATOM      7  C   UNL     1       5.862   3.960  27.700  0.00  0.00    +0.054 C 
ENDROOT
BRANCH   6   8
ATOM      8  O   UNL     1       7.287   5.381  29.046  0.00  0.00    -0.391 OA
ATOM      9  H   UNL     1       8.196   5.122  28.807  0.00  0.00    +0.210 HD
ENDBRANCH   6   8
BRANCH   1  10
ATOM     10  C   UNL     1       4.176   2.378  26.537  0.00  0.00    +0.023 C 
BRANCH  10  11
ATOM     11  C   UNL     1       4.636   2.488  25.054  0.00  0.00    +0.006 C 
BRANCH  11  22
ATOM     12  C   UNL     1       7.646   3.189  23.818  0.00  0.00    +0.185 C 
ATOM     13  C   UNL     1       6.349   3.876  23.287  0.00  0.00    +0.063 C 
ATOM     14  C   UNL     1       6.565   5.421  23.167  0.00  0.00    -0.044 C 
ATOM     15  C   UNL     1       5.426   6.218  22.737  0.00  0.00    -0.000 C 
ATOM     16  C   UNL     1       4.157   5.721  22.765  0.00  0.00    -0.023 C 
ATOM     17  C   UNL     1       3.808   4.302  23.162  0.00  0.00    +0.012 C 
ATOM     18  C   UNL     1       3.461   3.627  21.830  0.00  0.00    +0.012 C 
ATOM     19  C   UNL     1       7.689   6.065  23.542  0.00  0.00    -0.020 C 
ATOM     20  C   UNL     1       8.848   5.380  24.214  0.00  0.00    +0.012 C 
ATOM     21  C   UNL     1       9.533   6.263  25.262  0.00  0.00    +0.012 C 
ATOM     22  C   UNL     1       4.967   3.673  24.047  0.00  0.00    +0.007 C 
ATOM     23  C   UNL     1       8.350   4.079  24.863  0.00  0.00    +0.052 C 
BRANCH  12  24
ATOM     24  O   UNL     1       8.574   2.967  22.681  0.00  0.00    -0.461 OA
BRANCH  24  25
ATOM     25  C   UNL     1       9.743   2.341  23.000  0.00  0.00    +0.310 C 
ATOM     26  O   UNL     1      10.842   2.872  22.875  0.00  0.00    -0.251 OA
BRANCH  25  27
ATOM     27  C   UNL     1       9.650   0.875  23.432  0.00  0.00    +0.094 C 
ATOM     28  C   UNL     1      10.566   0.341  24.527  0.00  0.00    +0.019 C 
BRANCH  27  30
ATOM     29  C   UNL     1      10.264  -1.393  22.414  0.00  0.00    +0.004 C 
ATOM     30  C   UNL     1       9.704  -0.001  22.165  0.00  0.00    +0.011 C 
ENDBRANCH  27  30
ENDBRANCH  25  27
ENDBRANCH  24  25
ENDBRANCH  12  24
ENDBRANCH  11  22
ENDBRANCH  10  11
ENDBRANCH   1  10
BRANCH   2  31
ATOM     31  C   UNL     1       7.190   1.198  26.892  0.00  0.00    +0.143 C 
BRANCH  31  32
ATOM     32  C   UNL     1       7.369  -0.241  26.344  0.00  0.00    -0.030 A 
ATOM     33  C   UNL     1       6.853  -0.582  25.080  0.00  0.00    +0.013 A 
ATOM     34  C   UNL     1       7.151  -1.798  24.402  0.00  0.00    -0.017 A 
ATOM     35  C   UNL     1       6.637  -1.971  23.110  0.00  0.00    +0.012 A 
ATOM     36  C   UNL     1       6.750  -3.175  22.441  0.00  0.00    +0.046 A 
ATOM     37  C   UNL     1       7.335  -4.247  23.095  0.00  0.00    +0.126 A 
ATOM     38  C   UNL     1       8.079  -4.088  24.284  0.00  0.00    +0.027 A 
ATOM     39  C   UNL     1       7.951  -2.819  24.992  0.00  0.00    -0.009 A 
ATOM     40  C   UNL     1       8.501  -2.449  26.251  0.00  0.00    +0.009 A 
ATOM     41  C   UNL     1       8.212  -1.204  26.906  0.00  0.00    +0.006 A 
BRANCH  37  42
ATOM     42  O   UNL     1       7.059  -5.508  22.605  0.00  0.00    -0.495 OA
ATOM     43  C   UNL     1       5.679  -5.533  22.190  0.00  0.00    +0.277 C 
ENDBRANCH  37  42
BRANCH  38  44
ATOM     44  C   UNL     1       8.834  -5.336  24.715  0.00  0.00    +0.195 C 
BRANCH  44  45
ATOM     45  O   UNL     1      10.249  -5.246  24.852  0.00  0.00    -0.390 OA
ATOM     46  H   UNL     1      10.468  -4.299  24.794  0.00  0.00    +0.210 HD
ENDBRANCH  44  45
ENDBRANCH  38  44
ENDBRANCH  31  32
ENDBRANCH   2  31
TORSDOF 13
ENDMDL
MODEL 3
REMARK VINA RESULT:      -5.6      3.023      7.874
REMARK  Name = 
REMARK  18 active torsions:
REMARK  status: ('A' for Active; 'I' for Inactive)
REMARK    1  A    between atoms: C_1  and  C_2
REMARK    2  A    between atoms: C_2  and  C_3
REMARK    3  A    between atoms: C_3  and  C_5
REMARK    4  A    between atoms: C_3  and  C_6
REMARK    5  A    between atoms: C_6  and  O_8
REMARK    6  A    between atoms: O_8  and  C_9
REMARK    7  A    between atoms: C_12  and  C_14
REMARK    8  A    between atoms: C_19  and  C_21
REMARK    9  A    between atoms: C_22  and  C_24
REMARK   10  A    between atoms: C_24  and  C_25
REMARK   11  A    between atoms: C_25  and  C_26
REMARK   12  A    between atoms: C_29  and  O_31
REMARK   13  A    between atoms: N_35  and  C_36
REMARK   14  A    between atoms: C_36  and  C_37
REMARK   15  A    between atoms: C_44  and  O_45
REMARK   16  A    between atoms: O_45  and  C_46
REMARK   17  A    between atoms: C_47  and  C_48
REMARK   18  A    between atoms: C_48  and  O_49
REMARK                            x       y       z     vdW  Elec       q    Type
REMARK                         _______ _______ _______ _____ _____    ______ ____
ROOT
ATOM      1  C   UNL     1       8.891  -1.021  24.531  0.00  0.00    +0.079 C 
ATOM      2  N   UNL     1       9.764  -2.069  23.940  0.00  0.00    -0.294 N 
ATOM      3  C   UNL     1       9.623  -1.990  22.553  0.00  0.00    +0.219 C 
ATOM      4  O   UNL     1      10.499  -1.494  21.853  0.00  0.00    -0.275 OA
ATOM      5  C   UNL     1       8.225  -2.252  22.019  0.00  0.00    +0.127 C 
ATOM      6  C   UNL     1       7.177  -1.397  22.728  0.00  0.00    +0.125 C 
ATOM      7  C   UNL     1       7.400  -1.385  24.248  0.00  0.00    +0.054 C 
ENDROOT
BRANCH   6   8
ATOM      8  O   UNL     1       5.876  -1.914  22.443  0.00  0.00    -0.391 OA
ATOM      9  H   UNL     1       5.959  -2.578  21.734  0.00  0.00    +0.210 HD
ENDBRANCH   6   8
BRANCH   1  10
ATOM     10  C   UNL     1       9.145  -0.584  25.984  0.00  0.00    +0.023 C 
BRANCH  10  11
ATOM     11  C   UNL     1       8.053  -0.731  27.084  0.00  0.00    +0.006 C 
BRANCH  11  22
ATOM     12  C   UNL     1       6.727   2.094  25.922  0.00  0.00    +0.185 C 
ATOM     13  C   UNL     1       5.850   0.945  26.512  0.00  0.00    +0.063 C 
ATOM     14  C   UNL     1       4.797   1.529  27.511  0.00  0.00    -0.044 C 
ATOM     15  C   UNL     1       3.934   0.576  28.194  0.00  0.00    -0.000 C 
ATOM     16  C   UNL     1       4.234  -0.752  28.240  0.00  0.00    -0.023 C 
ATOM     17  C   UNL     1       5.421  -1.381  27.542  0.00  0.00    +0.012 C 
ATOM     18  C   UNL     1       4.795  -2.119  26.353  0.00  0.00    +0.012 C 
ATOM     19  C   UNL     1       4.716   2.828  27.860  0.00  0.00    -0.020 C 
ATOM     20  C   UNL     1       5.697   3.870  27.399  0.00  0.00    +0.012 C 
ATOM     21  C   UNL     1       5.981   4.933  28.466  0.00  0.00    +0.012 C 
ATOM     22  C   UNL     1       6.535  -0.287  27.249  0.00  0.00    +0.007 C 
ATOM     23  C   UNL     1       7.005   3.175  26.986  0.00  0.00    +0.052 C 
BRANCH  12  24
ATOM     24  O   UNL     1       6.003   2.718  24.786  0.00  0.00    -0.461 OA
BRANCH  24  25
ATOM     25  C   UNL     1       6.576   2.536  23.562  0.00  0.00    +0.310 C 
ATOM     26  O   UNL     1       5.940   2.194  22.570  0.00  0.00    -0.251 OA
BRANCH  25  27
ATOM     27  C   UNL     1       8.099   2.674  23.481  0.00  0.00    +0.094 C 
ATOM     28  C   UNL     1       8.752   4.041  23.647  0.00  0.00    +0.019 C 
BRANCH  27  30
ATOM     29  C   UNL     1      10.087   1.827  22.107  0.00  0.00    +0.004 C 
ATOM     30  C   UNL     1       8.575   1.966  22.197  0.00  0.00    +0.011 C 
ENDBRANCH  27  30
ENDBRANCH  25  27
ENDBRANCH  24  25
ENDBRANCH  12  24
ENDBRANCH  11  22
ENDBRANCH  10  11
ENDBRANCH   1  10
BRANCH   2  31
ATOM     31  C   UNL     1       9.801  -3.432  24.549  0.00  0.00    +0.143 C 
BRANCH  31  32
ATOM     32  C   UNL     1       8.538  -4.082  25.167  0.00  0.00    -0.030 A 
ATOM     33  C   UNL     1       7.546  -4.627  24.332  0.00  0.00    +0.013 A 
ATOM     34  C   UNL     1       6.466  -5.429  24.800  0.00  0.00    -0.017 A 
ATOM     35  C   UNL     1       5.598  -5.980  23.847  0.00  0.00    +0.012 A 
ATOM     36  C   UNL     1       4.444  -6.644  24.217  0.00  0.00    +0.046 A 
ATOM     37  C   UNL     1       4.116  -6.709  25.561  0.00  0.00    +0.126 A 
ATOM     38  C   UNL     1       5.044  -6.395  26.578  0.00  0.00    +0.027 A 
ATOM     39  C   UNL     1       6.258  -5.688  26.185  0.00  0.00    -0.009 A 
ATOM     40  C   UNL     1       7.287  -5.167  27.018  0.00  0.00    +0.009 A 
ATOM     41  C   UNL     1       8.385  -4.384  26.524  0.00  0.00    +0.006 A 
BRANCH  37  42
ATOM     42  O   UNL     1       2.799  -6.977  25.874  0.00  0.00    -0.495 OA
ATOM     43  C   UNL     1       1.989  -5.905  25.350  0.00  0.00    +0.277 C 
ENDBRANCH  37  42
BRANCH  38  44
ATOM     44  C   UNL     1       4.574  -6.754  27.979  0.00  0.00    +0.195 C 
BRANCH  44  45
ATOM     45  O   UNL     1       5.387  -7.632  28.752  0.00  0.00    -0.390 OA
ATOM     46  H   UNL     1       5.054  -8.532  28.580  0.00  0.00    +0.210 HD
ENDBRANCH  44  45
ENDBRANCH  38  44
ENDBRANCH  31  32
ENDBRANCH   2  31
TORSDOF 13
ENDMDL
MODEL 4
REMARK VINA RESULT:      -5.5      2.859      7.836
REMARK  Name = 
REMARK  18 active torsions:
REMARK  status: ('A' for Active; 'I' for Inactive)
REMARK    1  A    between atoms: C_1  and  C_2
REMARK    2  A    between atoms: C_2  and  C_3
REMARK    3  A    between atoms: C_3  and  C_5
REMARK    4  A    between atoms: C_3  and  C_6
REMARK    5  A    between atoms: C_6  and  O_8
REMARK    6  A    between atoms: O_8  and  C_9
REMARK    7  A    between atoms: C_12  and  C_14
REMARK    8  A    between atoms: C_19  and  C_21
REMARK    9  A    between atoms: C_22  and  C_24
REMARK   10  A    between atoms: C_24  and  C_25
REMARK   11  A    between atoms: C_25  and  C_26
REMARK   12  A    between atoms: C_29  and  O_31
REMARK   13  A    between atoms: N_35  and  C_36
REMARK   14  A    between atoms: C_36  and  C_37
REMARK   15  A    between atoms: C_44  and  O_45
REMARK   16  A    between atoms: O_45  and  C_46
REMARK   17  A    between atoms: C_47  and  C_48
REMARK   18  A    between atoms: C_48  and  O_49
REMARK                            x       y       z     vdW  Elec       q    Type
REMARK                         _______ _______ _______ _____ _____    ______ ____
ROOT
ATOM      1  C   UNL     1       8.550  -0.815  24.295  0.00  0.00    +0.079 C 
ATOM      2  N   UNL     1       9.513  -1.850  23.834  0.00  0.00    -0.294 N 
ATOM      3  C   UNL     1       9.366  -1.964  22.449  0.00  0.00    +0.219 C 
ATOM      4  O   UNL     1      10.193  -1.487  21.682  0.00  0.00    -0.275 OA
ATOM      5  C   UNL     1       7.997  -2.416  21.971  0.00  0.00    +0.127 C 
ATOM      6  C   UNL     1       6.877  -1.572  22.576  0.00  0.00    +0.125 C 
ATOM      7  C   UNL     1       7.098  -1.344  24.079  0.00  0.00    +0.054 C 
ENDROOT
BRANCH   6   8
ATOM      8  O   UNL     1       5.627  -2.235  22.374  0.00  0.00    -0.391 OA
ATOM      9  H   UNL     1       5.751  -2.922  21.693  0.00  0.00    +0.210 HD
ENDBRANCH   6   8
BRANCH   1  10
ATOM     10  C   UNL     1       8.764  -0.173  25.676  0.00  0.00    +0.023 C 
BRANCH  10  11
ATOM     11  C   UNL     1       7.789   0.904  26.235  0.00  0.00    +0.006 C 
BRANCH  11  22
ATOM     12  C   UNL     1       8.524   2.754  23.566  0.00  0.00    +0.185 C 
ATOM     13  C   UNL     1       7.804   3.348  24.817  0.00  0.00    +0.063 C 
ATOM     14  C   UNL     1       8.471   4.701  25.233  0.00  0.00    -0.044 C 
ATOM     15  C   UNL     1       7.949   5.359  26.422  0.00  0.00    -0.000 C 
ATOM     16  C   UNL     1       7.171   4.694  27.321  0.00  0.00    -0.023 C 
ATOM     17  C   UNL     1       6.712   3.261  27.153  0.00  0.00    +0.012 C 
ATOM     18  C   UNL     1       5.228   3.395  26.790  0.00  0.00    +0.012 C 
ATOM     19  C   UNL     1       9.557   5.231  24.636  0.00  0.00    -0.020 C 
ATOM     20  C   UNL     1      10.324   4.532  23.546  0.00  0.00    +0.012 C 
ATOM     21  C   UNL     1      11.832   4.790  23.621  0.00  0.00    +0.012 C 
ATOM     22  C   UNL     1       7.667   2.487  26.147  0.00  0.00    +0.007 C 
ATOM     23  C   UNL     1      10.042   3.023  23.627  0.00  0.00    +0.052 C 
BRANCH  12  24
ATOM     24  O   UNL     1       7.976   3.394  22.345  0.00  0.00    -0.461 OA
BRANCH  24  25
ATOM     25  C   UNL     1       6.630   3.614  22.359  0.00  0.00    +0.310 C 
ATOM     26  O   UNL     1       5.804   2.707  22.363  0.00  0.00    -0.251 OA
BRANCH  25  27
ATOM     27  C   UNL     1       6.164   5.069  22.260  0.00  0.00    +0.094 C 
ATOM     28  C   UNL     1       7.178   6.183  22.029  0.00  0.00    +0.019 C 
BRANCH  27  30
ATOM     29  C   UNL     1       5.479   6.744  24.072  0.00  0.00    +0.004 C 
ATOM     30  C   UNL     1       5.258   5.364  23.472  0.00  0.00    +0.011 C 
ENDBRANCH  27  30
ENDBRANCH  25  27
ENDBRANCH  24  25
ENDBRANCH  12  24
ENDBRANCH  11  22
ENDBRANCH  10  11
ENDBRANCH   1  10
BRANCH   2  31
ATOM     31  C   UNL     1       9.673  -3.114  24.612  0.00  0.00    +0.143 C 
BRANCH  31  32
ATOM     32  C   UNL     1       8.454  -3.855  25.217  0.00  0.00    -0.030 A 
ATOM     33  C   UNL     1       7.525  -4.489  24.371  0.00  0.00    +0.013 A 
ATOM     34  C   UNL     1       6.504  -5.370  24.830  0.00  0.00    -0.017 A 
ATOM     35  C   UNL     1       5.702  -5.999  23.869  0.00  0.00    +0.012 A 
ATOM     36  C   UNL     1       4.598  -6.750  24.227  0.00  0.00    +0.046 A 
ATOM     37  C   UNL     1       4.251  -6.826  25.567  0.00  0.00    +0.126 A 
ATOM     38  C   UNL     1       5.131  -6.427  26.596  0.00  0.00    +0.027 A 
ATOM     39  C   UNL     1       6.292  -5.629  26.215  0.00  0.00    -0.009 A 
ATOM     40  C   UNL     1       7.260  -5.016  27.060  0.00  0.00    +0.009 A 
ATOM     41  C   UNL     1       8.300  -4.153  26.574  0.00  0.00    +0.006 A 
BRANCH  37  42
ATOM     42  O   UNL     1       2.954  -7.195  25.859  0.00  0.00    -0.495 OA
ATOM     43  C   UNL     1       2.558  -8.216  24.921  0.00  0.00    +0.277 C 
ENDBRANCH  37  42
BRANCH  38  44
ATOM     44  C   UNL     1       4.666  -6.806  27.993  0.00  0.00    +0.195 C 
BRANCH  44  45
ATOM     45  O   UNL     1       5.491  -7.678  28.758  0.00  0.00    -0.390 OA
ATOM     46  H   UNL     1       5.750  -7.179  29.554  0.00  0.00    +0.210 HD
ENDBRANCH  44  45
ENDBRANCH  38  44
ENDBRANCH  31  32
ENDBRANCH   2  31
TORSDOF 13
ENDMDL
MODEL 5
REMARK VINA RESULT:      -5.5      2.863      6.866
REMARK  Name = 
REMARK  18 active torsions:
REMARK  status: ('A' for Active; 'I' for Inactive)
REMARK    1  A    between atoms: C_1  and  C_2
REMARK    2  A    between atoms: C_2  and  C_3
REMARK    3  A    between atoms: C_3  and  C_5
REMARK    4  A    between atoms: C_3  and  C_6
REMARK    5  A    between atoms: C_6  and  O_8
REMARK    6  A    between atoms: O_8  and  C_9
REMARK    7  A    between atoms: C_12  and  C_14
REMARK    8  A    between atoms: C_19  and  C_21
REMARK    9  A    between atoms: C_22  and  C_24
REMARK   10  A    between atoms: C_24  and  C_25
REMARK   11  A    between atoms: C_25  and  C_26
REMARK   12  A    between atoms: C_29  and  O_31
REMARK   13  A    between atoms: N_35  and  C_36
REMARK   14  A    between atoms: C_36  and  C_37
REMARK   15  A    between atoms: C_44  and  O_45
REMARK   16  A    between atoms: O_45  and  C_46
REMARK   17  A    between atoms: C_47  and  C_48
REMARK   18  A    between atoms: C_48  and  O_49
REMARK                            x       y       z     vdW  Elec       q    Type
REMARK                         _______ _______ _______ _____ _____    ______ ____
ROOT
ATOM      1  C   UNL     1       8.788  -0.687  25.395  0.00  0.00    +0.079 C 
ATOM      2  N   UNL     1       8.488  -1.309  24.078  0.00  0.00    -0.294 N 
ATOM      3  C   UNL     1       9.712  -1.566  23.455  0.00  0.00    +0.219 C 
ATOM      4  O   UNL     1      10.164  -2.704  23.390  0.00  0.00    -0.275 OA
ATOM      5  C   UNL     1      10.568  -0.346  23.163  0.00  0.00    +0.127 C 
ATOM      6  C   UNL     1      10.754   0.527  24.402  0.00  0.00    +0.125 C 
ATOM      7  C   UNL     1       9.430   0.715  25.158  0.00  0.00    +0.054 C 
ENDROOT
BRANCH   6   8
ATOM      8  O   UNL     1      11.262   1.803  24.007  0.00  0.00    -0.391 OA
ATOM      9  H   UNL     1      12.220   1.716  23.849  0.00  0.00    +0.210 HD
ENDBRANCH   6   8
BRANCH   1  10
ATOM     10  C   UNL     1       7.689  -0.678  26.472  0.00  0.00    +0.023 C 
BRANCH  10  11
ATOM     11  C   UNL     1       6.465  -1.637  26.396  0.00  0.00    +0.006 C 
BRANCH  11  22
ATOM     12  C   UNL     1       3.978  -3.337  24.980  0.00  0.00    +0.185 C 
ATOM     13  C   UNL     1       5.186  -4.048  25.665  0.00  0.00    +0.063 C 
ATOM     14  C   UNL     1       4.679  -5.194  26.602  0.00  0.00    -0.044 C 
ATOM     15  C   UNL     1       5.684  -5.922  27.363  0.00  0.00    -0.000 C 
ATOM     16  C   UNL     1       6.945  -5.433  27.528  0.00  0.00    -0.023 C 
ATOM     17  C   UNL     1       7.451  -4.154  26.896  0.00  0.00    +0.012 C 
ATOM     18  C   UNL     1       8.374  -4.643  25.773  0.00  0.00    +0.012 C 
ATOM     19  C   UNL     1       3.380  -5.470  26.834  0.00  0.00    -0.020 C 
ATOM     20  C   UNL     1       2.249  -4.642  26.287  0.00  0.00    +0.012 C 
ATOM     21  C   UNL     1       1.067  -4.536  27.257  0.00  0.00    +0.012 C 
ATOM     22  C   UNL     1       6.236  -3.205  26.513  0.00  0.00    +0.007 C 
ATOM     23  C   UNL     1       2.778  -3.240  25.945  0.00  0.00    +0.052 C 
BRANCH  12  24
ATOM     24  O   UNL     1       3.568  -4.123  23.789  0.00  0.00    -0.461 OA
BRANCH  24  25
ATOM     25  C   UNL     1       4.546  -4.323  22.860  0.00  0.00    +0.310 C 
ATOM     26  O   UNL     1       5.085  -3.405  22.249  0.00  0.00    -0.251 OA
BRANCH  25  27
ATOM     27  C   UNL     1       4.890  -5.774  22.516  0.00  0.00    +0.094 C 
ATOM     28  C   UNL     1       5.031  -6.810  23.624  0.00  0.00    +0.019 C 
BRANCH  27  30
ATOM     29  C   UNL     1       7.437  -5.947  22.317  0.00  0.00    +0.004 C 
ATOM     30  C   UNL     1       6.118  -5.766  21.583  0.00  0.00    +0.011 C 
ENDBRANCH  27  30
ENDBRANCH  25  27
ENDBRANCH  24  25
ENDBRANCH  12  24
ENDBRANCH  11  22
ENDBRANCH  10  11
ENDBRANCH   1  10
BRANCH   2  31
ATOM     31  C   UNL     1       7.390  -0.758  23.231  0.00  0.00    +0.143 C 
BRANCH  31  32
ATOM     32  C   UNL     1       7.225   0.767  23.003  0.00  0.00    -0.030 A 
ATOM     33  C   UNL     1       6.391   1.518  23.851  0.00  0.00    +0.013 A 
ATOM     34  C   UNL     1       6.343   2.942  23.860  0.00  0.00    -0.017 A 
ATOM     35  C   UNL     1       5.529   3.564  24.817  0.00  0.00    +0.012 A 
ATOM     36  C   UNL     1       5.308   4.928  24.802  0.00  0.00    +0.046 A 
ATOM     37  C   UNL     1       5.861   5.680  23.779  0.00  0.00    +0.126 A 
ATOM     38  C   UNL     1       6.871   5.173  22.933  0.00  0.00    +0.027 A 
ATOM     39  C   UNL     1       7.097   3.732  22.945  0.00  0.00    -0.009 A 
ATOM     40  C   UNL     1       7.967   2.966  22.120  0.00  0.00    +0.009 A 
ATOM     41  C   UNL     1       8.022   1.531  22.146  0.00  0.00    +0.006 A 
BRANCH  37  42
ATOM     42  O   UNL     1       5.298   6.917  23.533  0.00  0.00    -0.495 OA
ATOM     43  C   UNL     1       3.907   6.855  23.909  0.00  0.00    +0.277 C 
ENDBRANCH  37  42
BRANCH  38  44
ATOM     44  C   UNL     1       7.512   6.220  22.034  0.00  0.00    +0.195 C 
BRANCH  44  45
ATOM     45  O   UNL     1       6.692   6.855  21.059  0.00  0.00    -0.390 OA
ATOM     46  H   UNL     1       6.376   6.148  20.468  0.00  0.00    +0.210 HD
ENDBRANCH  44  45
ENDBRANCH  38  44
ENDBRANCH  31  32
ENDBRANCH   2  31
TORSDOF 13
ENDMDL
MODEL 6
REMARK VINA RESULT:      -5.5      3.172      6.206
REMARK  Name = 
REMARK  18 active torsions:
REMARK  status: ('A' for Active; 'I' for Inactive)
REMARK    1  A    between atoms: C_1  and  C_2
REMARK    2  A    between atoms: C_2  and  C_3
REMARK    3  A    between atoms: C_3  and  C_5
REMARK    4  A    between atoms: C_3  and  C_6
REMARK    5  A    between atoms: C_6  and  O_8
REMARK    6  A    between atoms: O_8  and  C_9
REMARK    7  A    between atoms: C_12  and  C_14
REMARK    8  A    between atoms: C_19  and  C_21
REMARK    9  A    between atoms: C_22  and  C_24
REMARK   10  A    between atoms: C_24  and  C_25
REMARK   11  A    between atoms: C_25  and  C_26
REMARK   12  A    between atoms: C_29  and  O_31
REMARK   13  A    between atoms: N_35  and  C_36
REMARK   14  A    between atoms: C_36  and  C_37
REMARK   15  A    between atoms: C_44  and  O_45
REMARK   16  A    between atoms: O_45  and  C_46
REMARK   17  A    between atoms: C_47  and  C_48
REMARK   18  A    between atoms: C_48  and  O_49
REMARK                            x       y       z     vdW  Elec       q    Type
REMARK                         _______ _______ _______ _____ _____    ______ ____
ROOT
ATOM      1  C   UNL     1       7.508  -4.128  23.131  0.00  0.00    +0.079 C 
ATOM      2  N   UNL     1       8.089  -2.809  23.497  0.00  0.00    -0.294 N 
ATOM      3  C   UNL     1       9.415  -3.033  23.874  0.00  0.00    +0.219 C 
ATOM      4  O   UNL     1      10.344  -2.737  23.131  0.00  0.00    -0.275 OA
ATOM      5  C   UNL     1       9.611  -3.933  25.082  0.00  0.00    +0.127 C 
ATOM      6  C   UNL     1       8.851  -5.249  24.938  0.00  0.00    +0.125 C 
ATOM      7  C   UNL     1       7.427  -5.018  24.409  0.00  0.00    +0.054 C 
ENDROOT
BRANCH   6   8
ATOM      8  O   UNL     1       8.786  -5.897  26.210  0.00  0.00    -0.391 OA
ATOM      9  H   UNL     1       7.970  -6.429  26.241  0.00  0.00    +0.210 HD
ENDBRANCH   6   8
BRANCH   1  10
ATOM     10  C   UNL     1       6.222  -4.157  22.287  0.00  0.00    +0.023 C 
BRANCH  10  11
ATOM     11  C   UNL     1       4.812  -4.162  22.947  0.00  0.00    +0.006 C 
BRANCH  11  22
ATOM     12  C   UNL     1       4.213  -3.798  26.202  0.00  0.00    +0.185 C 
ATOM     13  C   UNL     1       3.506  -4.894  25.344  0.00  0.00    +0.063 C 
ATOM     14  C   UNL     1       3.549  -6.272  26.084  0.00  0.00    -0.044 C 
ATOM     15  C   UNL     1       2.979  -7.416  25.388  0.00  0.00    -0.000 C 
ATOM     16  C   UNL     1       2.734  -7.385  24.048  0.00  0.00    -0.023 C 
ATOM     17  C   UNL     1       2.947  -6.169  23.172  0.00  0.00    +0.012 C 
ATOM     18  C   UNL     1       1.525  -5.667  22.893  0.00  0.00    +0.012 C 
ATOM     19  C   UNL     1       4.174  -6.486  27.259  0.00  0.00    -0.020 C 
ATOM     20  C   UNL     1       4.994  -5.439  27.963  0.00  0.00    +0.012 C 
ATOM     21  C   UNL     1       6.216  -6.022  28.679  0.00  0.00    +0.012 C 
ATOM     22  C   UNL     1       3.980  -5.171  23.850  0.00  0.00    +0.007 C 
ATOM     23  C   UNL     1       5.436  -4.382  26.938  0.00  0.00    +0.052 C 
BRANCH  12  24
ATOM     24  O   UNL     1       3.253  -3.282  27.209  0.00  0.00    -0.461 OA
BRANCH  24  25
ATOM     25  C   UNL     1       2.890  -1.977  27.050  0.00  0.00    +0.310 C 
ATOM     26  O   UNL     1       1.987  -1.621  26.297  0.00  0.00    -0.251 OA
BRANCH  25  27
ATOM     27  C   UNL     1       3.734  -0.927  27.777  0.00  0.00    +0.094 C 
ATOM     28  C   UNL     1       3.061   0.114  28.664  0.00  0.00    +0.019 C 
BRANCH  27  30
ATOM     29  C   UNL     1       4.555   1.239  26.686  0.00  0.00    +0.004 C 
ATOM     30  C   UNL     1       4.678  -0.275  26.748  0.00  0.00    +0.011 C 
ENDBRANCH  27  30
ENDBRANCH  25  27
ENDBRANCH  24  25
ENDBRANCH  12  24
ENDBRANCH  11  22
ENDBRANCH  10  11
ENDBRANCH   1  10
BRANCH   2  31
ATOM     31  C   UNL     1       7.294  -1.852  24.322  0.00  0.00    +0.143 C 
BRANCH  31  32
ATOM     32  C   UNL     1       7.357  -0.323  24.082  0.00  0.00    -0.030 A 
ATOM     33  C   UNL     1       8.571   0.367  24.254  0.00  0.00    +0.013 A 
ATOM     34  C   UNL     1       8.782   1.717  23.852  0.00  0.00    -0.017 A 
ATOM     35  C   UNL     1      10.068   2.253  24.005  0.00  0.00    +0.012 A 
ATOM     36  C   UNL     1      10.325   3.592  23.782  0.00  0.00    +0.046 A 
ATOM     37  C   UNL     1       9.269   4.427  23.458  0.00  0.00    +0.126 A 
ATOM     38  C   UNL     1       8.011   3.928  23.056  0.00  0.00    +0.027 A 
ATOM     39  C   UNL     1       7.739   2.516  23.300  0.00  0.00    -0.009 A 
ATOM     40  C   UNL     1       6.528   1.799  23.092  0.00  0.00    +0.009 A 
ATOM     41  C   UNL     1       6.344   0.428  23.478  0.00  0.00    +0.006 A 
BRANCH  37  42
ATOM     42  O   UNL     1       9.453   5.780  23.660  0.00  0.00    -0.495 OA
ATOM     43  C   UNL     1      10.855   6.008  23.904  0.00  0.00    +0.277 C 
ENDBRANCH  37  42
BRANCH  38  44
ATOM     44  C   UNL     1       7.065   4.990  22.517  0.00  0.00    +0.195 C 
BRANCH  44  45
ATOM     45  O   UNL     1       7.538   5.841  21.477  0.00  0.00    -0.390 OA
ATOM     46  H   UNL     1       8.165   6.459  21.897  0.00  0.00    +0.210 HD
ENDBRANCH  44  45
ENDBRANCH  38  44
ENDBRANCH  31  32
ENDBRANCH   2  31
TORSDOF 13
ENDMDL
MODEL 7
REMARK VINA RESULT:      -5.4      3.082      5.710
REMARK  Name = 
REMARK  18 active torsions:
REMARK  status: ('A' for Active; 'I' for Inactive)
REMARK    1  A    between atoms: C_1  and  C_2
REMARK    2  A    between atoms: C_2  and  C_3
REMARK    3  A    between atoms: C_3  and  C_5
REMARK    4  A    between atoms: C_3  and  C_6
REMARK    5  A    between atoms: C_6  and  O_8
REMARK    6  A    between atoms: O_8  and  C_9
REMARK    7  A    between atoms: C_12  and  C_14
REMARK    8  A    between atoms: C_19  and  C_21
REMARK    9  A    between atoms: C_22  and  C_24
REMARK   10  A    between atoms: C_24  and  C_25
REMARK   11  A    between atoms: C_25  and  C_26
REMARK   12  A    between atoms: C_29  and  O_31
REMARK   13  A    between atoms: N_35  and  C_36
REMARK   14  A    between atoms: C_36  and  C_37
REMARK   15  A    between atoms: C_44  and  O_45
REMARK   16  A    between atoms: O_45  and  C_46
REMARK   17  A    between atoms: C_47  and  C_48
REMARK   18  A    between atoms: C_48  and  O_49
REMARK                            x       y       z     vdW  Elec       q    Type
REMARK                         _______ _______ _______ _____ _____    ______ ____
ROOT
ATOM      1  C   UNL     1       8.002  -2.660  25.475  0.00  0.00    +0.079 C 
ATOM      2  N   UNL     1       7.924  -2.527  23.996  0.00  0.00    -0.294 N 
ATOM      3  C   UNL     1       7.425  -3.733  23.499  0.00  0.00    +0.219 C 
ATOM      4  O   UNL     1       6.268  -3.826  23.106  0.00  0.00    -0.275 OA
ATOM      5  C   UNL     1       8.280  -4.959  23.770  0.00  0.00    +0.127 C 
ATOM      6  C   UNL     1       8.643  -5.082  25.248  0.00  0.00    +0.125 C 
ATOM      7  C   UNL     1       9.081  -3.730  25.832  0.00  0.00    +0.054 C 
ENDROOT
BRANCH   6   8
ATOM      8  O   UNL     1       9.703  -6.029  25.396  0.00  0.00    -0.391 OA
ATOM      9  H   UNL     1       9.541  -6.768  24.780  0.00  0.00    +0.210 HD
ENDBRANCH   6   8
BRANCH   1  10
ATOM     10  C   UNL     1       8.108  -1.383  26.325  0.00  0.00    +0.023 C 
BRANCH  10  11
ATOM     11  C   UNL     1       6.911  -0.399  26.473  0.00  0.00    +0.006 C 
BRANCH  11  22
ATOM     12  C   UNL     1       5.133  -3.123  27.181  0.00  0.00    +0.185 C 
ATOM     13  C   UNL     1       4.763  -1.717  27.750  0.00  0.00    +0.063 C 
ATOM     14  C   UNL     1       3.230  -1.452  27.581  0.00  0.00    -0.044 C 
ATOM     15  C   UNL     1       2.731  -0.155  28.013  0.00  0.00    -0.000 C 
ATOM     16  C   UNL     1       3.570   0.896  28.230  0.00  0.00    -0.023 C 
ATOM     17  C   UNL     1       5.079   0.816  28.124  0.00  0.00    +0.012 C 
ATOM     18  C   UNL     1       5.548   0.842  29.583  0.00  0.00    +0.012 C 
ATOM     19  C   UNL     1       2.375  -2.292  26.964  0.00  0.00    -0.020 C 
ATOM     20  C   UNL     1       2.811  -3.556  26.274  0.00  0.00    +0.012 C 
ATOM     21  C   UNL     1       1.992  -3.858  25.015  0.00  0.00    +0.012 C 
ATOM     22  C   UNL     1       5.506  -0.416  27.216  0.00  0.00    +0.007 C 
ATOM     23  C   UNL     1       4.302  -3.441  25.921  0.00  0.00    +0.052 C 
BRANCH  12  24
ATOM     24  O   UNL     1       4.846  -4.151  28.212  0.00  0.00    -0.461 OA
BRANCH  24  25
ATOM     25  C   UNL     1       5.625  -5.269  28.150  0.00  0.00    +0.310 C 
ATOM     26  O   UNL     1       6.846  -5.241  28.273  0.00  0.00    -0.251 OA
BRANCH  25  27
ATOM     27  C   UNL     1       4.923  -6.586  27.806  0.00  0.00    +0.094 C 
ATOM     28  C   UNL     1       4.584  -6.916  26.358  0.00  0.00    +0.019 C 
BRANCH  27  30
ATOM     29  C   UNL     1       2.374  -6.755  27.974  0.00  0.00    +0.004 C 
ATOM     30  C   UNL     1       3.695  -6.727  28.727  0.00  0.00    +0.011 C 
ENDBRANCH  27  30
ENDBRANCH  25  27
ENDBRANCH  24  25
ENDBRANCH  12  24
ENDBRANCH  11  22
ENDBRANCH  10  11
ENDBRANCH   1  10
BRANCH   2  31
ATOM     31  C   UNL     1       9.050  -1.891  23.250  0.00  0.00    +0.143 C 
BRANCH  31  32
ATOM     32  C   UNL     1       9.266  -0.357  23.256  0.00  0.00    -0.030 A 
ATOM     33  C   UNL     1       8.194   0.506  22.962  0.00  0.00    +0.013 A 
ATOM     34  C   UNL     1       8.234   1.917  23.152  0.00  0.00    -0.017 A 
ATOM     35  C   UNL     1       7.064   2.645  22.900  0.00  0.00    +0.012 A 
ATOM     36  C   UNL     1       7.054   4.027  22.913  0.00  0.00    +0.046 A 
ATOM     37  C   UNL     1       8.248   4.698  23.125  0.00  0.00    +0.126 A 
ATOM     38  C   UNL     1       9.400   4.048  23.617  0.00  0.00    +0.027 A 
ATOM     39  C   UNL     1       9.410   2.590  23.594  0.00  0.00    -0.009 A 
ATOM     40  C   UNL     1      10.475   1.707  23.926  0.00  0.00    +0.009 A 
ATOM     41  C   UNL     1      10.405   0.282  23.755  0.00  0.00    +0.006 A 
BRANCH  37  42
ATOM     42  O   UNL     1       8.308   6.016  22.717  0.00  0.00    -0.495 OA
ATOM     43  C   UNL     1       7.141   6.288  21.916  0.00  0.00    +0.277 C 
ENDBRANCH  37  42
BRANCH  38  44
ATOM     44  C   UNL     1      10.528   4.992  24.004  0.00  0.00    +0.195 C 
BRANCH  44  45
ATOM     45  O   UNL     1      11.241   5.646  22.959  0.00  0.00    -0.390 OA
ATOM     46  H   UNL     1      11.113   6.601  23.100  0.00  0.00    +0.210 HD
ENDBRANCH  44  45
ENDBRANCH  38  44
ENDBRANCH  31  32
ENDBRANCH   2  31
TORSDOF 13
ENDMDL
MODEL 8
REMARK VINA RESULT:      -5.3      3.104      7.280
REMARK  Name = 
REMARK  18 active torsions:
REMARK  status: ('A' for Active; 'I' for Inactive)
REMARK    1  A    between atoms: C_1  and  C_2
REMARK    2  A    between atoms: C_2  and  C_3
REMARK    3  A    between atoms: C_3  and  C_5
REMARK    4  A    between atoms: C_3  and  C_6
REMARK    5  A    between atoms: C_6  and  O_8
REMARK    6  A    between atoms: O_8  and  C_9
REMARK    7  A    between atoms: C_12  and  C_14
REMARK    8  A    between atoms: C_19  and  C_21
REMARK    9  A    between atoms: C_22  and  C_24
REMARK   10  A    between atoms: C_24  and  C_25
REMARK   11  A    between atoms: C_25  and  C_26
REMARK   12  A    between atoms: C_29  and  O_31
REMARK   13  A    between atoms: N_35  and  C_36
REMARK   14  A    between atoms: C_36  and  C_37
REMARK   15  A    between atoms: C_44  and  O_45
REMARK   16  A    between atoms: O_45  and  C_46
REMARK   17  A    between atoms: C_47  and  C_48
REMARK   18  A    between atoms: C_48  and  O_49
REMARK                            x       y       z     vdW  Elec       q    Type
REMARK                         _______ _______ _______ _____ _____    ______ ____
ROOT
ATOM      1  C   UNL     1       5.725  -1.231  26.594  0.00  0.00    +0.079 C 
ATOM      2  N   UNL     1       6.813  -1.518  25.622  0.00  0.00    -0.294 N 
ATOM      3  C   UNL     1       8.007  -1.577  26.344  0.00  0.00    +0.219 C 
ATOM      4  O   UNL     1       8.548  -2.649  26.590  0.00  0.00    -0.275 OA
ATOM      5  C   UNL     1       8.405  -0.297  27.060  0.00  0.00    +0.127 C 
ATOM      6  C   UNL     1       7.267   0.249  27.921  0.00  0.00    +0.125 C 
ATOM      7  C   UNL     1       5.927   0.205  27.170  0.00  0.00    +0.054 C 
ENDROOT
BRANCH   6   8
ATOM      8  O   UNL     1       7.562   1.598  28.290  0.00  0.00    -0.391 OA
ATOM      9  H   UNL     1       6.737   2.017  28.597  0.00  0.00    +0.210 HD
ENDBRANCH   6   8
BRANCH   1  10
ATOM     10  C   UNL     1       4.273  -1.521  26.180  0.00  0.00    +0.023 C 
BRANCH  10  11
ATOM     11  C   UNL     1       3.611  -2.907  26.440  0.00  0.00    +0.006 C 
BRANCH  11  22
ATOM     12  C   UNL     1       3.738  -4.606  23.580  0.00  0.00    +0.185 C 
ATOM     13  C   UNL     1       4.325  -5.173  24.911  0.00  0.00    +0.063 C 
ATOM     14  C   UNL     1       3.868  -6.657  25.113  0.00  0.00    -0.044 C 
ATOM     15  C   UNL     1       4.286  -7.316  26.342  0.00  0.00    -0.000 C 
ATOM     16  C   UNL     1       4.747  -6.607  27.411  0.00  0.00    -0.023 C 
ATOM     17  C   UNL     1       4.943  -5.105  27.415  0.00  0.00    +0.012 C 
ATOM     18  C   UNL     1       6.465  -4.937  27.338  0.00  0.00    +0.012 C 
ATOM     19  C   UNL     1       3.030  -7.315  24.289  0.00  0.00    -0.020 C 
ATOM     20  C   UNL     1       2.350  -6.669  23.112  0.00  0.00    +0.012 C 
ATOM     21  C   UNL     1       0.932  -7.200  22.880  0.00  0.00    +0.012 C 
ATOM     22  C   UNL     1       4.051  -4.427  26.289  0.00  0.00    +0.007 C 
ATOM     23  C   UNL     1       2.316  -5.148  23.332  0.00  0.00    +0.052 C 
BRANCH  12  24
ATOM     24  O   UNL     1       4.610  -5.023  22.453  0.00  0.00    -0.461 OA
BRANCH  24  25
ATOM     25  C   UNL     1       5.599  -4.143  22.128  0.00  0.00    +0.310 C 
ATOM     26  O   UNL     1       5.379  -2.981  21.799  0.00  0.00    -0.251 OA
BRANCH  25  27
ATOM     27  C   UNL     1       7.028  -4.690  22.082  0.00  0.00    +0.094 C 
ATOM     28  C   UNL     1       7.269  -6.184  21.900  0.00  0.00    +0.019 C 
BRANCH  27  30
ATOM     29  C   UNL     1       8.281  -5.211  24.254  0.00  0.00    +0.004 C 
ATOM     30  C   UNL     1       7.793  -4.133  23.299  0.00  0.00    +0.011 C 
ENDBRANCH  27  30
ENDBRANCH  25  27
ENDBRANCH  24  25
ENDBRANCH  12  24
ENDBRANCH  11  22
ENDBRANCH  10  11
ENDBRANCH   1  10
BRANCH   2  31
ATOM     31  C   UNL     1       6.841  -0.808  24.309  0.00  0.00    +0.143 C 
BRANCH  31  32
ATOM     32  C   UNL     1       7.311   0.664  24.190  0.00  0.00    -0.030 A 
ATOM     33  C   UNL     1       8.684   0.958  24.095  0.00  0.00    +0.013 A 
ATOM     34  C   UNL     1       9.200   2.245  23.768  0.00  0.00    -0.017 A 
ATOM     35  C   UNL     1      10.587   2.376  23.623  0.00  0.00    +0.012 A 
ATOM     36  C   UNL     1      11.184   3.612  23.454  0.00  0.00    +0.046 A 
ATOM     37  C   UNL     1      10.387   4.745  23.490  0.00  0.00    +0.126 A 
ATOM     38  C   UNL     1       8.980   4.680  23.392  0.00  0.00    +0.027 A 
ATOM     39  C   UNL     1       8.354   3.375  23.578  0.00  0.00    -0.009 A 
ATOM     40  C   UNL     1       6.968   3.060  23.636  0.00  0.00    +0.009 A 
ATOM     41  C   UNL     1       6.466   1.749  23.939  0.00  0.00    +0.006 A 
BRANCH  37  42
ATOM     42  O   UNL     1      11.016   5.946  23.751  0.00  0.00    -0.495 OA
ATOM     43  C   UNL     1      12.435   5.702  23.811  0.00  0.00    +0.277 C 
ENDBRANCH  37  42
BRANCH  38  44
ATOM     44  C   UNL     1       8.307   6.031  23.211  0.00  0.00    +0.195 C 
BRANCH  44  45
ATOM     45  O   UNL     1       7.900   6.405  21.899  0.00  0.00    -0.390 OA
ATOM     46  H   UNL     1       7.402   7.237  21.996  0.00  0.00    +0.210 HD
ENDBRANCH  44  45
ENDBRANCH  38  44
ENDBRANCH  31  32
ENDBRANCH   2  31
TORSDOF 13
ENDMDL
MODEL 9
REMARK VINA RESULT:      -5.2      1.686      3.318
REMARK  Name = 
REMARK  18 active torsions:
REMARK  status: ('A' for Active; 'I' for Inactive)
REMARK    1  A    between atoms: C_1  and  C_2
REMARK    2  A    between atoms: C_2  and  C_3
REMARK    3  A    between atoms: C_3  and  C_5
REMARK    4  A    between atoms: C_3  and  C_6
REMARK    5  A    between atoms: C_6  and  O_8
REMARK    6  A    between atoms: O_8  and  C_9
REMARK    7  A    between atoms: C_12  and  C_14
REMARK    8  A    between atoms: C_19  and  C_21
REMARK    9  A    between atoms: C_22  and  C_24
REMARK   10  A    between atoms: C_24  and  C_25
REMARK   11  A    between atoms: C_25  and  C_26
REMARK   12  A    between atoms: C_29  and  O_31
REMARK   13  A    between atoms: N_35  and  C_36
REMARK   14  A    between atoms: C_36  and  C_37
REMARK   15  A    between atoms: C_44  and  O_45
REMARK   16  A    between atoms: O_45  and  C_46
REMARK   17  A    between atoms: C_47  and  C_48
REMARK   18  A    between atoms: C_48  and  O_49
REMARK                            x       y       z     vdW  Elec       q    Type
REMARK                         _______ _______ _______ _____ _____    ______ ____
ROOT
ATOM      1  C   UNL     1       7.964  -2.687  25.807  0.00  0.00    +0.079 C 
ATOM      2  N   UNL     1       7.902  -2.493  24.334  0.00  0.00    -0.294 N 
ATOM      3  C   UNL     1       7.443  -3.689  23.779  0.00  0.00    +0.219 C 
ATOM      4  O   UNL     1       6.295  -3.798  23.366  0.00  0.00    -0.275 OA
ATOM      5  C   UNL     1       8.329  -4.902  24.009  0.00  0.00    +0.127 C 
ATOM      6  C   UNL     1       8.676  -5.078  25.486  0.00  0.00    +0.125 C 
ATOM      7  C   UNL     1       9.068  -3.741  26.133  0.00  0.00    +0.054 C 
ENDROOT
BRANCH   6   8
ATOM      8  O   UNL     1       9.761  -6.001  25.608  0.00  0.00    -0.391 OA
ATOM      9  H   UNL     1       9.768  -6.346  26.520  0.00  0.00    +0.210 HD
ENDBRANCH   6   8
BRANCH   1  10
ATOM     10  C   UNL     1       8.023  -1.445  26.712  0.00  0.00    +0.023 C 
BRANCH  10  11
ATOM     11  C   UNL     1       7.059  -0.239  26.507  0.00  0.00    +0.006 C 
BRANCH  11  22
ATOM     12  C   UNL     1       6.104   2.915  26.035  0.00  0.00    +0.185 C 
ATOM     13  C   UNL     1       5.395   1.977  27.061  0.00  0.00    +0.063 C 
ATOM     14  C   UNL     1       5.199   2.718  28.425  0.00  0.00    -0.044 C 
ATOM     15  C   UNL     1       4.600   1.957  29.512  0.00  0.00    -0.000 C 
ATOM     16  C   UNL     1       4.526   0.597  29.474  0.00  0.00    -0.023 C 
ATOM     17  C   UNL     1       4.976  -0.247  28.301  0.00  0.00    +0.012 C 
ATOM     18  C   UNL     1       3.662  -0.701  27.655  0.00  0.00    +0.012 C 
ATOM     19  C   UNL     1       5.647   3.962  28.688  0.00  0.00    -0.020 C 
ATOM     20  C   UNL     1       6.481   4.761  27.724  0.00  0.00    +0.012 C 
ATOM     21  C   UNL     1       7.535   5.624  28.424  0.00  0.00    +0.012 C 
ATOM     22  C   UNL     1       6.018   0.554  27.408  0.00  0.00    +0.007 C 
ATOM     23  C   UNL     1       7.158   3.798  26.735  0.00  0.00    +0.052 C 
BRANCH  12  24
ATOM     24  O   UNL     1       5.088   3.795  25.405  0.00  0.00    -0.461 OA
BRANCH  24  25
ATOM     25  C   UNL     1       3.929   3.175  25.042  0.00  0.00    +0.310 C 
ATOM     26  O   UNL     1       3.891   2.235  24.254  0.00  0.00    -0.251 OA
BRANCH  25  27
ATOM     27  C   UNL     1       2.626   3.772  25.581  0.00  0.00    +0.094 C 
ATOM     28  C   UNL     1       2.667   4.865  26.641  0.00  0.00    +0.019 C 
BRANCH  27  30
ATOM     29  C   UNL     1       1.585   2.437  27.502  0.00  0.00    +0.004 C 
ATOM     30  C   UNL     1       1.703   2.608  25.996  0.00  0.00    +0.011 C 
ENDBRANCH  27  30
ENDBRANCH  25  27
ENDBRANCH  24  25
ENDBRANCH  12  24
ENDBRANCH  11  22
ENDBRANCH  10  11
ENDBRANCH   1  10
BRANCH   2  31
ATOM     31  C   UNL     1       9.019  -1.794  23.631  0.00  0.00    +0.143 C 
BRANCH  31  32
ATOM     32  C   UNL     1       9.067  -0.250  23.516  0.00  0.00    -0.030 A 
ATOM     33  C   UNL     1       8.005   0.444  22.907  0.00  0.00    +0.013 A 
ATOM     34  C   UNL     1       7.855   1.860  22.947  0.00  0.00    -0.017 A 
ATOM     35  C   UNL     1       6.703   2.413  22.372  0.00  0.00    +0.012 A 
ATOM     36  C   UNL     1       6.548   3.779  22.232  0.00  0.00    +0.046 A 
ATOM     37  C   UNL     1       7.587   4.610  22.620  0.00  0.00    +0.126 A 
ATOM     38  C   UNL     1       8.660   4.152  23.416  0.00  0.00    +0.027 A 
ATOM     39  C   UNL     1       8.825   2.709  23.554  0.00  0.00    -0.009 A 
ATOM     40  C   UNL     1       9.874   1.997  24.201  0.00  0.00    +0.009 A 
ATOM     41  C   UNL     1       9.992   0.566  24.175  0.00  0.00    +0.006 A 
BRANCH  37  42
ATOM     42  O   UNL     1       7.600   5.886  22.094  0.00  0.00    -0.495 OA
ATOM     43  C   UNL     1       6.365   6.533  22.461  0.00  0.00    +0.277 C 
ENDBRANCH  37  42
BRANCH  38  44
ATOM     44  C   UNL     1       9.567   5.258  23.930  0.00  0.00    +0.195 C 
BRANCH  44  45
ATOM     45  O   UNL     1      10.373   5.955  22.986  0.00  0.00    -0.390 OA
ATOM     46  H   UNL     1      10.864   6.628  23.491  0.00  0.00    +0.210 HD
ENDBRANCH  44  45
ENDBRANCH  38  44
ENDBRANCH  31  32
ENDBRANCH   2  31
TORSDOF 13
ENDMDL
