MODEL 1
REMARK VINA RESULT:      -7.2      0.000      0.000
REMARK  Name = 
REMARK  18 active torsions:
REMARK  status: ('A' for Active; 'I' for Inactive)
REMARK    1  A    between atoms: C_1  and  N_2
REMARK    2  A    between atoms: N_2  and  C_3
REMARK    3  A    between atoms: C_5  and  O_7
REMARK    4  A    between atoms: C_8  and  O_10
REMARK    5  A    between atoms: O_10  and  C_11
REMARK    6  A    between atoms: C_13  and  N_15
REMARK    7  A    between atoms: C_17  and  N_19
REMARK    8  A    between atoms: C_20  and  O_22
REMARK    9  A    between atoms: O_22  and  C_23
REMARK   10  A    between atoms: C_26  and  C_28
REMARK   11  A    between atoms: C_28  and  C_30
REMARK   12  A    between atoms: C_28  and  O_31
REMARK   13  A    between atoms: C_32  and  O_34
REMARK   14  A    between atoms: C_35  and  O_37
REMARK   15  A    between atoms: C_38  and  N_40
REMARK   16  A    between atoms: C_41  and  O_43
REMARK   17  A    between atoms: C_46  and  C_47
REMARK   18  A    between atoms: C_46  and  O_48
REMARK                            x       y       z     vdW  Elec       q    Type
REMARK                         _______ _______ _______ _____ _____    ______ ____
ROOT
ATOM      1  C   UNL     1       8.297  -1.427  23.327  0.00  0.00    +0.169 C 
ATOM      2  C   UNL     1       7.531  -0.176  23.745  0.00  0.00    +0.175 C 
ATOM      3  C   UNL     1       7.874   1.116  22.983  0.00  0.00    +0.169 C 
ATOM      4  C   UNL     1       9.411   1.241  22.738  0.00  0.00    +0.084 C 
ATOM      5  C   UNL     1      10.037  -0.066  22.225  0.00  0.00    +0.042 C 
ATOM      6  C   UNL     1       9.812  -1.217  23.211  0.00  0.00    +0.084 C 
ENDROOT
BRANCH   4   7
ATOM      7  N   UNL     1       9.733   2.275  21.742  0.00  0.00    -0.325 NA
ATOM      8  H   UNL     1       9.777   1.873  20.812  0.00  0.00    +0.119 HD
ATOM      9  H   UNL     1       9.017   3.001  21.727  0.00  0.00    +0.119 HD
ENDBRANCH   4   7
BRANCH   6  10
ATOM     10  N   UNL     1      10.525  -2.408  22.713  0.00  0.00    -0.325 NA
ATOM     11  H   UNL     1      10.999  -2.888  23.479  0.00  0.00    +0.119 HD
ATOM     12  H   UNL     1      11.266  -2.119  22.074  0.00  0.00    +0.119 HD
ENDBRANCH   6  10
BRANCH   2  13
ATOM     13  O   UNL     1       6.124  -0.459  23.567  0.00  0.00    -0.387 OA
ATOM     14  H   UNL     1       5.740  -0.561  24.466  0.00  0.00    +0.210 HD
ENDBRANCH   2  13
BRANCH   1  15
ATOM     15  O   UNL     1       7.894  -2.557  24.085  0.00  0.00    -0.341 OA
BRANCH  15  21
ATOM     16  C   UNL     1       7.490  -5.334  25.138  0.00  0.00    +0.121 C 
ATOM     17  C   UNL     1       6.945  -5.197  26.602  0.00  0.00    +0.104 C 
ATOM     18  C   UNL     1       5.640  -5.979  26.828  0.00  0.00    +0.045 C 
ATOM     19  C   UNL     1       6.751  -3.700  26.924  0.00  0.00    +0.199 C 
ATOM     20  O   UNL     1       7.814  -2.804  26.546  0.00  0.00    -0.346 OA
ATOM     21  C   UNL     1       8.486  -2.989  25.300  0.00  0.00    +0.281 C 
ATOM     22  C   UNL     1       8.807  -4.485  25.070  0.00  0.00    +0.190 C 
BRANCH  16  24
ATOM     23  C   UNL     1       6.385  -5.575  22.881  0.00  0.00    +0.101 C 
ATOM     24  N   UNL     1       6.388  -4.976  24.203  0.00  0.00    -0.311 NA
ATOM     25  H   UNL     1       5.494  -5.218  24.637  0.00  0.00    +0.122 HD
ENDBRANCH  16  24
BRANCH  17  26
ATOM     26  O   UNL     1       7.852  -5.772  27.560  0.00  0.00    -0.385 OA
ATOM     27  H   UNL     1       7.791  -6.745  27.466  0.00  0.00    +0.210 HD
ENDBRANCH  17  26
BRANCH  22  28
ATOM     28  O   UNL     1       9.750  -4.961  26.058  0.00  0.00    -0.385 OA
ATOM     29  H   UNL     1       9.247  -5.269  26.836  0.00  0.00    +0.210 HD
ENDBRANCH  22  28
ENDBRANCH  15  21
ENDBRANCH   1  15
BRANCH   3  30
ATOM     30  O   UNL     1       7.305   2.166  23.809  0.00  0.00    -0.342 OA
BRANCH  30  31
ATOM     31  C   UNL     1       7.899   2.376  25.083  0.00  0.00    +0.270 C 
ATOM     32  C   UNL     1       6.817   2.366  26.203  0.00  0.00    +0.139 C 
ATOM     33  C   UNL     1       6.097   3.719  26.331  0.00  0.00    +0.167 C 
ATOM     34  C   UNL     1       7.037   4.929  26.250  0.00  0.00    +0.176 C 
ATOM     35  C   UNL     1       8.177   4.815  25.219  0.00  0.00    +0.180 C 
ATOM     36  O   UNL     1       8.768   3.506  25.129  0.00  0.00    -0.341 OA
BRANCH  32  37
ATOM     37  N   UNL     1       7.413   1.945  27.500  0.00  0.00    -0.321 NA
ATOM     38  H   UNL     1       7.369   2.751  28.135  0.00  0.00    +0.119 HD
ATOM     39  H   UNL     1       6.831   1.229  27.932  0.00  0.00    +0.119 HD
ENDBRANCH  32  37
BRANCH  33  40
ATOM     40  O   UNL     1       5.033   3.838  25.384  0.00  0.00    -0.387 OA
ATOM     41  H   UNL     1       5.083   3.056  24.800  0.00  0.00    +0.210 HD
ENDBRANCH  33  40
BRANCH  34  42
ATOM     42  O   UNL     1       7.634   5.087  27.560  0.00  0.00    -0.387 OA
ATOM     43  H   UNL     1       7.548   4.230  28.017  0.00  0.00    +0.210 HD
ENDBRANCH  34  42
BRANCH  35  44
ATOM     44  C   UNL     1       7.922   5.404  23.810  0.00  0.00    +0.143 C 
ATOM     45  C   UNL     1       8.226   6.896  23.687  0.00  0.00    +0.040 C 
BRANCH  44  46
ATOM     46  O   UNL     1       8.836   4.763  22.896  0.00  0.00    -0.389 OA
ATOM     47  H   UNL     1       8.461   3.878  22.740  0.00  0.00    +0.210 HD
ENDBRANCH  44  46
ENDBRANCH  35  44
ENDBRANCH  30  31
ENDBRANCH   3  30
TORSDOF 15
ENDMDL
MODEL 2
REMARK VINA RESULT:      -7.1      1.831      8.066
REMARK  Name = 
REMARK  18 active torsions:
REMARK  status: ('A' for Active; 'I' for Inactive)
REMARK    1  A    between atoms: C_1  and  N_2
REMARK    2  A    between atoms: N_2  and  C_3
REMARK    3  A    between atoms: C_5  and  O_7
REMARK    4  A    between atoms: C_8  and  O_10
REMARK    5  A    between atoms: O_10  and  C_11
REMARK    6  A    between atoms: C_13  and  N_15
REMARK    7  A    between atoms: C_17  and  N_19
REMARK    8  A    between atoms: C_20  and  O_22
REMARK    9  A    between atoms: O_22  and  C_23
REMARK   10  A    between atoms: C_26  and  C_28
REMARK   11  A    between atoms: C_28  and  C_30
REMARK   12  A    between atoms: C_28  and  O_31
REMARK   13  A    between atoms: C_32  and  O_34
REMARK   14  A    between atoms: C_35  and  O_37
REMARK   15  A    between atoms: C_38  and  N_40
REMARK   16  A    between atoms: C_41  and  O_43
REMARK   17  A    between atoms: C_46  and  C_47
REMARK   18  A    between atoms: C_46  and  O_48
REMARK                            x       y       z     vdW  Elec       q    Type
REMARK                         _______ _______ _______ _____ _____    ______ ____
ROOT
ATOM      1  C   UNL     1       8.212   1.318  23.616  0.00  0.00    +0.169 C 
ATOM      2  C   UNL     1       8.024  -0.076  24.207  0.00  0.00    +0.175 C 
ATOM      3  C   UNL     1       8.947  -1.177  23.657  0.00  0.00    +0.169 C 
ATOM      4  C   UNL     1       9.123  -1.049  22.110  0.00  0.00    +0.084 C 
ATOM      5  C   UNL     1       9.405   0.394  21.663  0.00  0.00    +0.042 C 
ATOM      6  C   UNL     1       8.275   1.339  22.084  0.00  0.00    +0.084 C 
ENDROOT
BRANCH   4   7
ATOM      7  N   UNL     1      10.241  -1.865  21.609  0.00  0.00    -0.325 NA
ATOM      8  H   UNL     1      10.254  -2.771  22.065  0.00  0.00    +0.119 HD
ATOM      9  H   UNL     1      10.151  -2.030  20.607  0.00  0.00    +0.119 HD
ENDBRANCH   4   7
BRANCH   6  10
ATOM     10  N   UNL     1       8.554   2.679  21.534  0.00  0.00    -0.325 NA
ATOM     11  H   UNL     1       9.463   2.692  21.068  0.00  0.00    +0.119 HD
ATOM     12  H   UNL     1       8.631   3.351  22.297  0.00  0.00    +0.119 HD
ENDBRANCH   6  10
BRANCH   2  13
ATOM     13  O   UNL     1       8.234   0.035  25.634  0.00  0.00    -0.387 OA
ATOM     14  H   UNL     1       9.138   0.402  25.758  0.00  0.00    +0.210 HD
ENDBRANCH   2  13
BRANCH   1  15
ATOM     15  O   UNL     1       7.320   2.252  24.203  0.00  0.00    -0.341 OA
BRANCH  15  21
ATOM     16  C   UNL     1       6.081   4.935  23.697  0.00  0.00    +0.121 C 
ATOM     17  C   UNL     1       7.254   5.939  23.423  0.00  0.00    +0.104 C 
ATOM     18  C   UNL     1       7.084   6.707  22.101  0.00  0.00    +0.045 C 
ATOM     19  C   UNL     1       8.588   5.166  23.441  0.00  0.00    +0.199 C 
ATOM     20  O   UNL     1       8.786   4.222  24.513  0.00  0.00    -0.346 OA
ATOM     21  C   UNL     1       7.699   3.403  24.943  0.00  0.00    +0.281 C 
ATOM     22  C   UNL     1       6.401   4.236  25.064  0.00  0.00    +0.190 C 
BRANCH  16  24
ATOM     23  C   UNL     1       4.683   3.347  22.319  0.00  0.00    +0.101 C 
ATOM     24  N   UNL     1       5.931   4.067  22.497  0.00  0.00    -0.311 NA
ATOM     25  H   UNL     1       6.061   4.637  21.658  0.00  0.00    +0.122 HD
ENDBRANCH  16  24
BRANCH  17  26
ATOM     26  O   UNL     1       7.298   6.983  24.414  0.00  0.00    -0.385 OA
ATOM     27  H   UNL     1       8.218   7.317  24.438  0.00  0.00    +0.210 HD
ENDBRANCH  17  26
BRANCH  22  28
ATOM     28  O   UNL     1       6.532   5.232  26.106  0.00  0.00    -0.385 OA
ATOM     29  H   UNL     1       5.765   5.834  26.050  0.00  0.00    +0.210 HD
ENDBRANCH  22  28
ENDBRANCH  15  21
ENDBRANCH   1  15
BRANCH   3  30
ATOM     30  O   UNL     1       8.316  -2.408  24.095  0.00  0.00    -0.342 OA
BRANCH  30  31
ATOM     31  C   UNL     1       8.988  -3.153  25.102  0.00  0.00    +0.270 C 
ATOM     32  C   UNL     1       9.044  -4.663  24.726  0.00  0.00    +0.139 C 
ATOM     33  C   UNL     1       7.738  -5.399  25.073  0.00  0.00    +0.167 C 
ATOM     34  C   UNL     1       7.161  -5.020  26.442  0.00  0.00    +0.176 C 
ATOM     35  C   UNL     1       7.267  -3.529  26.817  0.00  0.00    +0.180 C 
ATOM     36  O   UNL     1       8.500  -2.903  26.419  0.00  0.00    -0.341 OA
BRANCH  32  37
ATOM     37  N   UNL     1      10.219  -5.317  25.363  0.00  0.00    -0.321 NA
ATOM     38  H   UNL     1      10.021  -5.395  26.368  0.00  0.00    +0.119 HD
ATOM     39  H   UNL     1      10.306  -6.275  25.029  0.00  0.00    +0.119 HD
ENDBRANCH  32  37
BRANCH  33  40
ATOM     40  O   UNL     1       6.758  -5.238  24.045  0.00  0.00    -0.387 OA
ATOM     41  H   UNL     1       7.187  -5.482  23.201  0.00  0.00    +0.210 HD
ENDBRANCH  33  40
BRANCH  34  42
ATOM     42  O   UNL     1       7.891  -5.783  27.434  0.00  0.00    -0.387 OA
ATOM     43  H   UNL     1       8.052  -6.665  27.051  0.00  0.00    +0.210 HD
ENDBRANCH  34  42
BRANCH  35  44
ATOM     44  C   UNL     1       6.056  -2.624  26.484  0.00  0.00    +0.143 C 
ATOM     45  C   UNL     1       4.729  -3.107  27.069  0.00  0.00    +0.040 C 
BRANCH  44  46
ATOM     46  O   UNL     1       6.286  -1.340  27.100  0.00  0.00    -0.389 OA
ATOM     47  H   UNL     1       5.510  -1.189  27.669  0.00  0.00    +0.210 HD
ENDBRANCH  44  46
ENDBRANCH  35  44
ENDBRANCH  30  31
ENDBRANCH   3  30
TORSDOF 15
ENDMDL
MODEL 3
REMARK VINA RESULT:      -7.1      2.401      3.694
REMARK  Name = 
REMARK  18 active torsions:
REMARK  status: ('A' for Active; 'I' for Inactive)
REMARK    1  A    between atoms: C_1  and  N_2
REMARK    2  A    between atoms: N_2  and  C_3
REMARK    3  A    between atoms: C_5  and  O_7
REMARK    4  A    between atoms: C_8  and  O_10
REMARK    5  A    between atoms: O_10  and  C_11
REMARK    6  A    between atoms: C_13  and  N_15
REMARK    7  A    between atoms: C_17  and  N_19
REMARK    8  A    between atoms: C_20  and  O_22
REMARK    9  A    between atoms: O_22  and  C_23
REMARK   10  A    between atoms: C_26  and  C_28
REMARK   11  A    between atoms: C_28  and  C_30
REMARK   12  A    between atoms: C_28  and  O_31
REMARK   13  A    between atoms: C_32  and  O_34
REMARK   14  A    between atoms: C_35  and  O_37
REMARK   15  A    between atoms: C_38  and  N_40
REMARK   16  A    between atoms: C_41  and  O_43
REMARK   17  A    between atoms: C_46  and  C_47
REMARK   18  A    between atoms: C_46  and  O_48
REMARK                            x       y       z     vdW  Elec       q    Type
REMARK                         _______ _______ _______ _____ _____    ______ ____
ROOT
ATOM      1  C   UNL     1       8.047  -0.869  23.106  0.00  0.00    +0.169 C 
ATOM      2  C   UNL     1       7.497   0.540  23.307  0.00  0.00    +0.175 C 
ATOM      3  C   UNL     1       8.237   1.669  22.567  0.00  0.00    +0.169 C 
ATOM      4  C   UNL     1       9.784   1.466  22.623  0.00  0.00    +0.084 C 
ATOM      5  C   UNL     1      10.204   0.022  22.304  0.00  0.00    +0.042 C 
ATOM      6  C   UNL     1       9.567  -0.973  23.279  0.00  0.00    +0.084 C 
ENDROOT
BRANCH   4   7
ATOM      7  N   UNL     1      10.493   2.327  21.662  0.00  0.00    -0.325 NA
ATOM      8  H   UNL     1      11.356   1.888  21.359  0.00  0.00    +0.119 HD
ATOM      9  H   UNL     1       9.924   2.488  20.830  0.00  0.00    +0.119 HD
ENDBRANCH   4   7
BRANCH   6  10
ATOM     10  N   UNL     1      10.093  -2.319  22.986  0.00  0.00    -0.325 NA
ATOM     11  H   UNL     1       9.380  -2.890  22.527  0.00  0.00    +0.119 HD
ATOM     12  H   UNL     1      10.303  -2.801  23.861  0.00  0.00    +0.119 HD
ENDBRANCH   6  10
BRANCH   2  13
ATOM     13  O   UNL     1       6.119   0.526  22.870  0.00  0.00    -0.387 OA
ATOM     14  H   UNL     1       6.038   1.209  22.169  0.00  0.00    +0.210 HD
ENDBRANCH   2  13
BRANCH   1  15
ATOM     15  O   UNL     1       7.284  -1.827  23.822  0.00  0.00    -0.341 OA
BRANCH  15  21
ATOM     16  C   UNL     1       6.549  -4.733  23.883  0.00  0.00    +0.121 C 
ATOM     17  C   UNL     1       5.981  -5.094  22.467  0.00  0.00    +0.104 C 
ATOM     18  C   UNL     1       6.693  -6.300  21.830  0.00  0.00    +0.045 C 
ATOM     19  C   UNL     1       6.082  -3.853  21.557  0.00  0.00    +0.199 C 
ATOM     20  O   UNL     1       5.662  -2.592  22.117  0.00  0.00    -0.346 OA
ATOM     21  C   UNL     1       5.984  -2.278  23.471  0.00  0.00    +0.281 C 
ATOM     22  C   UNL     1       5.729  -3.495  24.391  0.00  0.00    +0.190 C 
BRANCH  16  24
ATOM     23  C   UNL     1       8.861  -5.105  24.825  0.00  0.00    +0.101 C 
ATOM     24  N   UNL     1       8.025  -4.581  23.761  0.00  0.00    -0.311 NA
ATOM     25  H   UNL     1       8.333  -5.032  22.897  0.00  0.00    +0.122 HD
ENDBRANCH  16  24
BRANCH  17  26
ATOM     26  O   UNL     1       4.606  -5.516  22.540  0.00  0.00    -0.385 OA
ATOM     27  H   UNL     1       4.280  -5.592  21.621  0.00  0.00    +0.210 HD
ENDBRANCH  17  26
BRANCH  22  28
ATOM     28  O   UNL     1       4.320  -3.819  24.426  0.00  0.00    -0.385 OA
ATOM     29  H   UNL     1       4.155  -4.532  23.778  0.00  0.00    +0.210 HD
ENDBRANCH  22  28
ENDBRANCH  15  21
ENDBRANCH   1  15
BRANCH   3  30
ATOM     30  O   UNL     1       7.761   2.877  23.215  0.00  0.00    -0.342 OA
BRANCH  30  31
ATOM     31  C   UNL     1       7.088   3.825  22.397  0.00  0.00    +0.270 C 
ATOM     32  C   UNL     1       7.631   5.261  22.657  0.00  0.00    +0.139 C 
ATOM     33  C   UNL     1       6.998   5.907  23.901  0.00  0.00    +0.167 C 
ATOM     34  C   UNL     1       5.485   5.679  24.013  0.00  0.00    +0.176 C 
ATOM     35  C   UNL     1       4.993   4.278  23.601  0.00  0.00    +0.180 C 
ATOM     36  O   UNL     1       5.667   3.725  22.456  0.00  0.00    -0.341 OA
BRANCH  32  37
ATOM     37  N   UNL     1       7.449   6.115  21.452  0.00  0.00    -0.321 NA
ATOM     38  H   UNL     1       7.598   7.089  21.739  0.00  0.00    +0.119 HD
ATOM     39  H   UNL     1       8.183   5.917  20.774  0.00  0.00    +0.119 HD
ENDBRANCH  32  37
BRANCH  33  40
ATOM     40  O   UNL     1       7.663   5.500  25.099  0.00  0.00    -0.387 OA
ATOM     41  H   UNL     1       6.980   5.136  25.695  0.00  0.00    +0.210 HD
ENDBRANCH  33  40
BRANCH  34  42
ATOM     42  O   UNL     1       4.847   6.648  23.146  0.00  0.00    -0.387 OA
ATOM     43  H   UNL     1       5.079   7.532  23.488  0.00  0.00    +0.210 HD
ENDBRANCH  34  42
BRANCH  35  44
ATOM     44  C   UNL     1       4.849   3.218  24.721  0.00  0.00    +0.143 C 
ATOM     45  C   UNL     1       3.953   3.648  25.882  0.00  0.00    +0.040 C 
BRANCH  44  46
ATOM     46  O   UNL     1       4.190   2.067  24.152  0.00  0.00    -0.389 OA
ATOM     47  H   UNL     1       3.369   2.413  23.759  0.00  0.00    +0.210 HD
ENDBRANCH  44  46
ENDBRANCH  35  44
ENDBRANCH  30  31
ENDBRANCH   3  30
TORSDOF 15
ENDMDL
MODEL 4
REMARK VINA RESULT:      -7.1      1.665      2.679
REMARK  Name = 
REMARK  18 active torsions:
REMARK  status: ('A' for Active; 'I' for Inactive)
REMARK    1  A    between atoms: C_1  and  N_2
REMARK    2  A    between atoms: N_2  and  C_3
REMARK    3  A    between atoms: C_5  and  O_7
REMARK    4  A    between atoms: C_8  and  O_10
REMARK    5  A    between atoms: O_10  and  C_11
REMARK    6  A    between atoms: C_13  and  N_15
REMARK    7  A    between atoms: C_17  and  N_19
REMARK    8  A    between atoms: C_20  and  O_22
REMARK    9  A    between atoms: O_22  and  C_23
REMARK   10  A    between atoms: C_26  and  C_28
REMARK   11  A    between atoms: C_28  and  C_30
REMARK   12  A    between atoms: C_28  and  O_31
REMARK   13  A    between atoms: C_32  and  O_34
REMARK   14  A    between atoms: C_35  and  O_37
REMARK   15  A    between atoms: C_38  and  N_40
REMARK   16  A    between atoms: C_41  and  O_43
REMARK   17  A    between atoms: C_46  and  C_47
REMARK   18  A    between atoms: C_46  and  O_48
REMARK                            x       y       z     vdW  Elec       q    Type
REMARK                         _______ _______ _______ _____ _____    ______ ____
ROOT
ATOM      1  C   UNL     1       8.366  -1.405  23.323  0.00  0.00    +0.169 C 
ATOM      2  C   UNL     1       7.575  -0.128  23.586  0.00  0.00    +0.175 C 
ATOM      3  C   UNL     1       7.994   1.110  22.773  0.00  0.00    +0.169 C 
ATOM      4  C   UNL     1       9.548   1.215  22.660  0.00  0.00    +0.084 C 
ATOM      5  C   UNL     1      10.207  -0.124  22.294  0.00  0.00    +0.042 C 
ATOM      6  C   UNL     1       9.887  -1.206  23.330  0.00  0.00    +0.084 C 
ENDROOT
BRANCH   4   7
ATOM      7  N   UNL     1       9.966   2.180  21.630  0.00  0.00    -0.325 NA
ATOM      8  H   UNL     1      10.775   2.706  21.942  0.00  0.00    +0.119 HD
ATOM      9  H   UNL     1      10.228   1.701  20.768  0.00  0.00    +0.119 HD
ENDBRANCH   4   7
BRANCH   6  10
ATOM     10  N   UNL     1      10.633  -2.429  22.979  0.00  0.00    -0.325 NA
ATOM     11  H   UNL     1       9.989  -3.194  22.774  0.00  0.00    +0.119 HD
ATOM     12  H   UNL     1      11.176  -2.739  23.784  0.00  0.00    +0.119 HD
ENDBRANCH   6  10
BRANCH   2  13
ATOM     13  O   UNL     1       6.187  -0.420  23.301  0.00  0.00    -0.387 OA
ATOM     14  H   UNL     1       6.181  -1.072  22.565  0.00  0.00    +0.210 HD
ENDBRANCH   2  13
BRANCH   1  15
ATOM     15  O   UNL     1       7.888  -2.481  24.115  0.00  0.00    -0.341 OA
BRANCH  15  21
ATOM     16  C   UNL     1       7.469  -5.278  25.108  0.00  0.00    +0.121 C 
ATOM     17  C   UNL     1       6.924  -5.170  26.574  0.00  0.00    +0.104 C 
ATOM     18  C   UNL     1       5.615  -5.951  26.782  0.00  0.00    +0.045 C 
ATOM     19  C   UNL     1       6.736  -3.680  26.928  0.00  0.00    +0.199 C 
ATOM     20  O   UNL     1       7.804  -2.780  26.571  0.00  0.00    -0.346 OA
ATOM     21  C   UNL     1       8.477  -2.943  25.322  0.00  0.00    +0.281 C 
ATOM     22  C   UNL     1       8.791  -4.434  25.060  0.00  0.00    +0.190 C 
BRANCH  16  24
ATOM     23  C   UNL     1       6.122  -5.734  23.023  0.00  0.00    +0.101 C 
ATOM     24  N   UNL     1       6.370  -4.895  24.180  0.00  0.00    -0.311 NA
ATOM     25  H   UNL     1       5.494  -4.853  24.705  0.00  0.00    +0.122 HD
ENDBRANCH  16  24
BRANCH  17  26
ATOM     26  O   UNL     1       7.827  -5.770  27.521  0.00  0.00    -0.385 OA
ATOM     27  H   UNL     1       8.424  -6.359  27.015  0.00  0.00    +0.210 HD
ENDBRANCH  17  26
BRANCH  22  28
ATOM     28  O   UNL     1       9.730  -4.936  26.038  0.00  0.00    -0.385 OA
ATOM     29  H   UNL     1       9.358  -4.779  26.927  0.00  0.00    +0.210 HD
ENDBRANCH  22  28
ENDBRANCH  15  21
ENDBRANCH   1  15
BRANCH   3  30
ATOM     30  O   UNL     1       7.361   2.213  23.472  0.00  0.00    -0.342 OA
BRANCH  30  31
ATOM     31  C   UNL     1       6.782   3.235  22.671  0.00  0.00    +0.270 C 
ATOM     32  C   UNL     1       7.498   4.597  22.913  0.00  0.00    +0.139 C 
ATOM     33  C   UNL     1       6.982   5.311  24.173  0.00  0.00    +0.167 C 
ATOM     34  C   UNL     1       5.457   5.263  24.330  0.00  0.00    +0.176 C 
ATOM     35  C   UNL     1       4.791   3.930  23.936  0.00  0.00    +0.180 C 
ATOM     36  O   UNL     1       5.361   3.303  22.773  0.00  0.00    -0.341 OA
BRANCH  32  37
ATOM     37  N   UNL     1       7.382   5.467  21.711  0.00  0.00    -0.321 NA
ATOM     38  H   UNL     1       7.626   4.897  20.893  0.00  0.00    +0.119 HD
ATOM     39  H   UNL     1       6.411   5.739  21.573  0.00  0.00    +0.119 HD
ENDBRANCH  32  37
BRANCH  33  40
ATOM     40  O   UNL     1       7.630   4.827  25.352  0.00  0.00    -0.387 OA
ATOM     41  H   UNL     1       7.791   3.872  25.217  0.00  0.00    +0.210 HD
ENDBRANCH  33  40
BRANCH  34  42
ATOM     42  O   UNL     1       4.912   6.302  23.480  0.00  0.00    -0.387 OA
ATOM     43  H   UNL     1       3.961   6.366  23.684  0.00  0.00    +0.210 HD
ENDBRANCH  34  42
BRANCH  35  44
ATOM     44  C   UNL     1       4.555   2.894  25.062  0.00  0.00    +0.143 C 
ATOM     45  C   UNL     1       3.204   3.024  25.764  0.00  0.00    +0.040 C 
BRANCH  44  46
ATOM     46  O   UNL     1       4.532   1.585  24.454  0.00  0.00    -0.389 OA
ATOM     47  H   UNL     1       5.457   1.279  24.474  0.00  0.00    +0.210 HD
ENDBRANCH  44  46
ENDBRANCH  35  44
ENDBRANCH  30  31
ENDBRANCH   3  30
TORSDOF 15
ENDMDL
MODEL 5
REMARK VINA RESULT:      -7.0      1.371      2.304
REMARK  Name = 
REMARK  18 active torsions:
REMARK  status: ('A' for Active; 'I' for Inactive)
REMARK    1  A    between atoms: C_1  and  N_2
REMARK    2  A    between atoms: N_2  and  C_3
REMARK    3  A    between atoms: C_5  and  O_7
REMARK    4  A    between atoms: C_8  and  O_10
REMARK    5  A    between atoms: O_10  and  C_11
REMARK    6  A    between atoms: C_13  and  N_15
REMARK    7  A    between atoms: C_17  and  N_19
REMARK    8  A    between atoms: C_20  and  O_22
REMARK    9  A    between atoms: O_22  and  C_23
REMARK   10  A    between atoms: C_26  and  C_28
REMARK   11  A    between atoms: C_28  and  C_30
REMARK   12  A    between atoms: C_28  and  O_31
REMARK   13  A    between atoms: C_32  and  O_34
REMARK   14  A    between atoms: C_35  and  O_37
REMARK   15  A    between atoms: C_38  and  N_40
REMARK   16  A    between atoms: C_41  and  O_43
REMARK   17  A    between atoms: C_46  and  C_47
REMARK   18  A    between atoms: C_46  and  O_48
REMARK                            x       y       z     vdW  Elec       q    Type
REMARK                         _______ _______ _______ _____ _____    ______ ____
ROOT
ATOM      1  C   UNL     1       8.290  -1.351  23.300  0.00  0.00    +0.169 C 
ATOM      2  C   UNL     1       7.551  -0.151  23.884  0.00  0.00    +0.175 C 
ATOM      3  C   UNL     1       7.811   1.204  23.203  0.00  0.00    +0.169 C 
ATOM      4  C   UNL     1       9.319   1.374  22.835  0.00  0.00    +0.084 C 
ATOM      5  C   UNL     1       9.911   0.123  22.165  0.00  0.00    +0.042 C 
ATOM      6  C   UNL     1       9.786  -1.106  23.070  0.00  0.00    +0.084 C 
ENDROOT
BRANCH   4   7
ATOM      7  N   UNL     1       9.541   2.490  21.902  0.00  0.00    -0.325 NA
ATOM      8  H   UNL     1       8.946   3.277  22.139  0.00  0.00    +0.119 HD
ATOM      9  H   UNL     1      10.508   2.814  21.946  0.00  0.00    +0.119 HD
ENDBRANCH   4   7
BRANCH   6  10
ATOM     10  N   UNL     1      10.465  -2.241  22.416  0.00  0.00    -0.325 NA
ATOM     11  H   UNL     1      10.044  -3.125  22.705  0.00  0.00    +0.119 HD
ATOM     12  H   UNL     1      11.434  -2.286  22.731  0.00  0.00    +0.119 HD
ENDBRANCH   6  10
BRANCH   2  13
ATOM     13  O   UNL     1       6.137  -0.444  23.808  0.00  0.00    -0.387 OA
ATOM     14  H   UNL     1       5.959  -0.742  22.889  0.00  0.00    +0.210 HD
ENDBRANCH   2  13
BRANCH   1  15
ATOM     15  O   UNL     1       7.968  -2.545  23.997  0.00  0.00    -0.341 OA
BRANCH  15  21
ATOM     16  C   UNL     1       7.584  -5.321  25.060  0.00  0.00    +0.121 C 
ATOM     17  C   UNL     1       6.991  -5.183  26.505  0.00  0.00    +0.104 C 
ATOM     18  C   UNL     1       5.695  -5.989  26.696  0.00  0.00    +0.045 C 
ATOM     19  C   UNL     1       6.758  -3.689  26.808  0.00  0.00    +0.199 C 
ATOM     20  O   UNL     1       7.815  -2.774  26.456  0.00  0.00    -0.346 OA
ATOM     21  C   UNL     1       8.529  -2.957  25.233  0.00  0.00    +0.281 C 
ATOM     22  C   UNL     1       8.886  -4.447  25.026  0.00  0.00    +0.190 C 
BRANCH  16  24
ATOM     23  C   UNL     1       6.586  -5.556  22.753  0.00  0.00    +0.101 C 
ATOM     24  N   UNL     1       6.505  -4.992  24.087  0.00  0.00    -0.311 NA
ATOM     25  H   UNL     1       5.608  -5.288  24.477  0.00  0.00    +0.122 HD
ENDBRANCH  16  24
BRANCH  17  26
ATOM     26  O   UNL     1       7.878  -5.734  27.495  0.00  0.00    -0.385 OA
ATOM     27  H   UNL     1       8.688  -6.023  27.027  0.00  0.00    +0.210 HD
ENDBRANCH  17  26
BRANCH  22  28
ATOM     28  O   UNL     1       9.807  -4.897  26.047  0.00  0.00    -0.385 OA
ATOM     29  H   UNL     1      10.632  -5.181  25.609  0.00  0.00    +0.210 HD
ENDBRANCH  22  28
ENDBRANCH  15  21
ENDBRANCH   1  15
BRANCH   3  30
ATOM     30  O   UNL     1       7.307   2.174  24.157  0.00  0.00    -0.342 OA
BRANCH  30  31
ATOM     31  C   UNL     1       6.072   2.804  23.844  0.00  0.00    +0.270 C 
ATOM     32  C   UNL     1       6.175   3.579  22.497  0.00  0.00    +0.139 C 
ATOM     33  C   UNL     1       6.822   4.964  22.670  0.00  0.00    +0.167 C 
ATOM     34  C   UNL     1       6.325   5.728  23.903  0.00  0.00    +0.176 C 
ATOM     35  C   UNL     1       6.104   4.876  25.167  0.00  0.00    +0.180 C 
ATOM     36  O   UNL     1       5.537   3.577  24.916  0.00  0.00    -0.341 OA
BRANCH  32  37
ATOM     37  N   UNL     1       4.839   3.682  21.851  0.00  0.00    -0.321 NA
ATOM     38  H   UNL     1       4.470   4.619  22.054  0.00  0.00    +0.119 HD
ATOM     39  H   UNL     1       4.940   3.645  20.838  0.00  0.00    +0.119 HD
ENDBRANCH  32  37
BRANCH  33  40
ATOM     40  O   UNL     1       8.249   4.880  22.664  0.00  0.00    -0.387 OA
ATOM     41  H   UNL     1       8.588   5.797  22.644  0.00  0.00    +0.210 HD
ENDBRANCH  33  40
BRANCH  34  42
ATOM     42  O   UNL     1       5.057   6.330  23.544  0.00  0.00    -0.387 OA
ATOM     43  H   UNL     1       4.370   5.885  24.074  0.00  0.00    +0.210 HD
ENDBRANCH  34  42
BRANCH  35  44
ATOM     44  C   UNL     1       7.276   4.781  26.174  0.00  0.00    +0.143 C 
ATOM     45  C   UNL     1       7.081   3.735  27.271  0.00  0.00    +0.040 C 
BRANCH  44  46
ATOM     46  O   UNL     1       8.443   4.340  25.447  0.00  0.00    -0.389 OA
ATOM     47  H   UNL     1       8.102   4.010  24.596  0.00  0.00    +0.210 HD
ENDBRANCH  44  46
ENDBRANCH  35  44
ENDBRANCH  30  31
ENDBRANCH   3  30
TORSDOF 15
ENDMDL
MODEL 6
REMARK VINA RESULT:      -6.9      1.778      7.253
REMARK  Name = 
REMARK  18 active torsions:
REMARK  status: ('A' for Active; 'I' for Inactive)
REMARK    1  A    between atoms: C_1  and  N_2
REMARK    2  A    between atoms: N_2  and  C_3
REMARK    3  A    between atoms: C_5  and  O_7
REMARK    4  A    between atoms: C_8  and  O_10
REMARK    5  A    between atoms: O_10  and  C_11
REMARK    6  A    between atoms: C_13  and  N_15
REMARK    7  A    between atoms: C_17  and  N_19
REMARK    8  A    between atoms: C_20  and  O_22
REMARK    9  A    between atoms: O_22  and  C_23
REMARK   10  A    between atoms: C_26  and  C_28
REMARK   11  A    between atoms: C_28  and  C_30
REMARK   12  A    between atoms: C_28  and  O_31
REMARK   13  A    between atoms: C_32  and  O_34
REMARK   14  A    between atoms: C_35  and  O_37
REMARK   15  A    between atoms: C_38  and  N_40
REMARK   16  A    between atoms: C_41  and  O_43
REMARK   17  A    between atoms: C_46  and  C_47
REMARK   18  A    between atoms: C_46  and  O_48
REMARK                            x       y       z     vdW  Elec       q    Type
REMARK                         _______ _______ _______ _____ _____    ______ ____
ROOT
ATOM      1  C   UNL     1       9.143   1.476  24.463  0.00  0.00    +0.169 C 
ATOM      2  C   UNL     1       8.753   0.054  24.851  0.00  0.00    +0.175 C 
ATOM      3  C   UNL     1       9.399  -1.075  24.030  0.00  0.00    +0.169 C 
ATOM      4  C   UNL     1       9.453  -0.714  22.512  0.00  0.00    +0.084 C 
ATOM      5  C   UNL     1       9.958   0.716  22.261  0.00  0.00    +0.042 C 
ATOM      6  C   UNL     1       9.068   1.752  22.956  0.00  0.00    +0.084 C 
ENDROOT
BRANCH   4   7
ATOM      7  N   UNL     1      10.348  -1.609  21.759  0.00  0.00    -0.325 NA
ATOM      8  H   UNL     1       9.911  -1.902  20.891  0.00  0.00    +0.119 HD
ATOM      9  H   UNL     1      11.218  -1.134  21.518  0.00  0.00    +0.119 HD
ENDBRANCH   4   7
BRANCH   6  10
ATOM     10  N   UNL     1       9.542   3.099  22.588  0.00  0.00    -0.325 NA
ATOM     11  H   UNL     1       8.968   3.815  23.038  0.00  0.00    +0.119 HD
ATOM     12  H   UNL     1       9.418   3.242  21.586  0.00  0.00    +0.119 HD
ENDBRANCH   6  10
BRANCH   2  13
ATOM     13  O   UNL     1       9.110  -0.121  26.241  0.00  0.00    -0.387 OA
ATOM     14  H   UNL     1       8.446   0.375  26.769  0.00  0.00    +0.210 HD
ENDBRANCH   2  13
BRANCH   1  15
ATOM     15  O   UNL     1       8.500   2.433  25.290  0.00  0.00    -0.341 OA
BRANCH  15  21
ATOM     16  C   UNL     1       6.330   2.816  27.323  0.00  0.00    +0.121 C 
ATOM     17  C   UNL     1       5.009   2.247  26.699  0.00  0.00    +0.104 C 
ATOM     18  C   UNL     1       4.320   1.212  27.605  0.00  0.00    +0.045 C 
ATOM     19  C   UNL     1       5.330   1.641  25.317  0.00  0.00    +0.199 C 
ATOM     20  O   UNL     1       6.175   2.413  24.441  0.00  0.00    -0.346 OA
ATOM     21  C   UNL     1       7.295   3.116  24.979  0.00  0.00    +0.281 C 
ATOM     22  C   UNL     1       6.907   3.843  26.288  0.00  0.00    +0.190 C 
BRANCH  16  24
ATOM     23  C   UNL     1       7.464   1.443  29.112  0.00  0.00    +0.101 C 
ATOM     24  N   UNL     1       7.191   1.662  27.704  0.00  0.00    -0.311 NA
ATOM     25  H   UNL     1       6.767   0.802  27.350  0.00  0.00    +0.122 HD
ENDBRANCH  16  24
BRANCH  17  26
ATOM     26  O   UNL     1       4.012   3.274  26.545  0.00  0.00    -0.385 OA
ATOM     27  H   UNL     1       4.488   4.122  26.435  0.00  0.00    +0.210 HD
ENDBRANCH  17  26
BRANCH  22  28
ATOM     28  O   UNL     1       5.930   4.877  26.025  0.00  0.00    -0.385 OA
ATOM     29  H   UNL     1       6.301   5.484  25.355  0.00  0.00    +0.210 HD
ENDBRANCH  22  28
ENDBRANCH  15  21
ENDBRANCH   1  15
BRANCH   3  30
ATOM     30  O   UNL     1       8.591  -2.239  24.347  0.00  0.00    -0.342 OA
BRANCH  30  31
ATOM     31  C   UNL     1       9.137  -3.168  25.275  0.00  0.00    +0.270 C 
ATOM     32  C   UNL     1       9.108  -4.611  24.691  0.00  0.00    +0.139 C 
ATOM     33  C   UNL     1       7.733  -5.279  24.852  0.00  0.00    +0.167 C 
ATOM     34  C   UNL     1       7.091  -5.047  26.226  0.00  0.00    +0.176 C 
ATOM     35  C   UNL     1       7.279  -3.635  26.816  0.00  0.00    +0.180 C 
ATOM     36  O   UNL     1       8.578  -3.063  26.583  0.00  0.00    -0.341 OA
BRANCH  32  37
ATOM     37  N   UNL     1      10.187  -5.440  25.295  0.00  0.00    -0.321 NA
ATOM     38  H   UNL     1      10.552  -4.927  26.106  0.00  0.00    +0.119 HD
ATOM     39  H   UNL     1       9.792  -6.299  25.674  0.00  0.00    +0.119 HD
ENDBRANCH  32  37
BRANCH  33  40
ATOM     40  O   UNL     1       6.839  -4.899  23.803  0.00  0.00    -0.387 OA
ATOM     41  H   UNL     1       6.126  -5.567  23.781  0.00  0.00    +0.210 HD
ENDBRANCH  33  40
BRANCH  34  42
ATOM     42  O   UNL     1       7.694  -5.996  27.139  0.00  0.00    -0.387 OA
ATOM     43  H   UNL     1       6.970  -6.537  27.506  0.00  0.00    +0.210 HD
ENDBRANCH  34  42
BRANCH  35  44
ATOM     44  C   UNL     1       6.162  -2.598  26.545  0.00  0.00    +0.143 C 
ATOM     45  C   UNL     1       4.842  -2.894  27.257  0.00  0.00    +0.040 C 
BRANCH  44  46
ATOM     46  O   UNL     1       6.599  -1.333  27.087  0.00  0.00    -0.389 OA
ATOM     47  H   UNL     1       5.934  -0.686  26.788  0.00  0.00    +0.210 HD
ENDBRANCH  44  46
ENDBRANCH  35  44
ENDBRANCH  30  31
ENDBRANCH   3  30
TORSDOF 15
ENDMDL
MODEL 7
REMARK VINA RESULT:      -6.8      2.207      8.370
REMARK  Name = 
REMARK  18 active torsions:
REMARK  status: ('A' for Active; 'I' for Inactive)
REMARK    1  A    between atoms: C_1  and  N_2
REMARK    2  A    between atoms: N_2  and  C_3
REMARK    3  A    between atoms: C_5  and  O_7
REMARK    4  A    between atoms: C_8  and  O_10
REMARK    5  A    between atoms: O_10  and  C_11
REMARK    6  A    between atoms: C_13  and  N_15
REMARK    7  A    between atoms: C_17  and  N_19
REMARK    8  A    between atoms: C_20  and  O_22
REMARK    9  A    between atoms: O_22  and  C_23
REMARK   10  A    between atoms: C_26  and  C_28
REMARK   11  A    between atoms: C_28  and  C_30
REMARK   12  A    between atoms: C_28  and  O_31
REMARK   13  A    between atoms: C_32  and  O_34
REMARK   14  A    between atoms: C_35  and  O_37
REMARK   15  A    between atoms: C_38  and  N_40
REMARK   16  A    between atoms: C_41  and  O_43
REMARK   17  A    between atoms: C_46  and  C_47
REMARK   18  A    between atoms: C_46  and  O_48
REMARK                            x       y       z     vdW  Elec       q    Type
REMARK                         _______ _______ _______ _____ _____    ______ ____
ROOT
ATOM      1  C   UNL     1       8.551   1.446  23.436  0.00  0.00    +0.169 C 
ATOM      2  C   UNL     1       7.693   0.264  23.875  0.00  0.00    +0.175 C 
ATOM      3  C   UNL     1       8.377  -1.114  23.857  0.00  0.00    +0.169 C 
ATOM      4  C   UNL     1       9.276  -1.286  22.592  0.00  0.00    +0.084 C 
ATOM      5  C   UNL     1      10.160  -0.058  22.322  0.00  0.00    +0.042 C 
ATOM      6  C   UNL     1       9.316   1.206  22.128  0.00  0.00    +0.084 C 
ENDROOT
BRANCH   4   7
ATOM      7  N   UNL     1      10.186  -2.436  22.708  0.00  0.00    -0.325 NA
ATOM      8  H   UNL     1       9.681  -3.261  23.016  0.00  0.00    +0.119 HD
ATOM      9  H   UNL     1      10.610  -2.657  21.807  0.00  0.00    +0.119 HD
ENDBRANCH   4   7
BRANCH   6  10
ATOM     10  N   UNL     1      10.214   2.320  21.769  0.00  0.00    -0.325 NA
ATOM     11  H   UNL     1      10.704   2.116  20.897  0.00  0.00    +0.119 HD
ATOM     12  H   UNL     1      10.943   2.410  22.476  0.00  0.00    +0.119 HD
ENDBRANCH   6  10
BRANCH   2  13
ATOM     13  O   UNL     1       7.245   0.541  25.222  0.00  0.00    -0.387 OA
ATOM     14  H   UNL     1       7.993   0.981  25.684  0.00  0.00    +0.210 HD
ENDBRANCH   2  13
BRANCH   1  15
ATOM     15  O   UNL     1       7.825   2.664  23.502  0.00  0.00    -0.341 OA
BRANCH  15  21
ATOM     16  C   UNL     1       6.558   5.364  23.797  0.00  0.00    +0.121 C 
ATOM     17  C   UNL     1       5.108   5.259  23.210  0.00  0.00    +0.104 C 
ATOM     18  C   UNL     1       4.029   5.734  24.199  0.00  0.00    +0.045 C 
ATOM     19  C   UNL     1       4.850   3.802  22.774  0.00  0.00    +0.199 C 
ATOM     20  O   UNL     1       5.895   3.145  22.030  0.00  0.00    -0.346 OA
ATOM     21  C   UNL     1       7.260   3.350  22.396  0.00  0.00    +0.281 C 
ATOM     22  C   UNL     1       7.531   4.845  22.681  0.00  0.00    +0.190 C 
BRANCH  16  24
ATOM     23  C   UNL     1       7.575   5.049  26.086  0.00  0.00    +0.101 C 
ATOM     24  N   UNL     1       6.574   4.661  25.109  0.00  0.00    -0.311 NA
ATOM     25  H   UNL     1       5.664   4.780  25.559  0.00  0.00    +0.122 HD
ENDBRANCH  16  24
BRANCH  17  26
ATOM     26  O   UNL     1       4.931   6.130  22.077  0.00  0.00    -0.385 OA
ATOM     27  H   UNL     1       4.697   7.013  22.428  0.00  0.00    +0.210 HD
ENDBRANCH  17  26
BRANCH  22  28
ATOM     28  O   UNL     1       7.362   5.631  21.478  0.00  0.00    -0.385 OA
ATOM     29  H   UNL     1       8.020   6.353  21.491  0.00  0.00    +0.210 HD
ENDBRANCH  22  28
ENDBRANCH  15  21
ENDBRANCH   1  15
BRANCH   3  30
ATOM     30  O   UNL     1       7.271  -2.050  23.946  0.00  0.00    -0.342 OA
BRANCH  30  31
ATOM     31  C   UNL     1       7.157  -3.014  22.907  0.00  0.00    +0.270 C 
ATOM     32  C   UNL     1       5.680  -3.138  22.430  0.00  0.00    +0.139 C 
ATOM     33  C   UNL     1       4.846  -4.048  23.347  0.00  0.00    +0.167 C 
ATOM     34  C   UNL     1       5.574  -5.330  23.772  0.00  0.00    +0.176 C 
ATOM     35  C   UNL     1       7.073  -5.166  24.092  0.00  0.00    +0.180 C 
ATOM     36  O   UNL     1       7.771  -4.263  23.216  0.00  0.00    -0.341 OA
BRANCH  32  37
ATOM     37  N   UNL     1       5.625  -3.597  21.015  0.00  0.00    -0.321 NA
ATOM     38  H   UNL     1       6.503  -3.312  20.565  0.00  0.00    +0.119 HD
ATOM     39  H   UNL     1       5.620  -4.614  20.981  0.00  0.00    +0.119 HD
ENDBRANCH  32  37
BRANCH  33  40
ATOM     40  O   UNL     1       4.358  -3.338  24.487  0.00  0.00    -0.387 OA
ATOM     41  H   UNL     1       3.951  -4.000  25.082  0.00  0.00    +0.210 HD
ENDBRANCH  33  40
BRANCH  34  42
ATOM     42  O   UNL     1       5.452  -6.268  22.676  0.00  0.00    -0.387 OA
ATOM     43  H   UNL     1       5.454  -7.163  23.066  0.00  0.00    +0.210 HD
ENDBRANCH  34  42
BRANCH  35  44
ATOM     44  C   UNL     1       7.460  -4.912  25.570  0.00  0.00    +0.143 C 
ATOM     45  C   UNL     1       8.925  -4.531  25.780  0.00  0.00    +0.040 C 
BRANCH  44  46
ATOM     46  O   UNL     1       6.710  -3.768  26.029  0.00  0.00    -0.389 OA
ATOM     47  H   UNL     1       5.776  -3.997  25.872  0.00  0.00    +0.210 HD
ENDBRANCH  44  46
ENDBRANCH  35  44
ENDBRANCH  30  31
ENDBRANCH   3  30
TORSDOF 15
ENDMDL
MODEL 8
REMARK VINA RESULT:      -6.8      1.655      2.416
REMARK  Name = 
REMARK  18 active torsions:
REMARK  status: ('A' for Active; 'I' for Inactive)
REMARK    1  A    between atoms: C_1  and  N_2
REMARK    2  A    between atoms: N_2  and  C_3
REMARK    3  A    between atoms: C_5  and  O_7
REMARK    4  A    between atoms: C_8  and  O_10
REMARK    5  A    between atoms: O_10  and  C_11
REMARK    6  A    between atoms: C_13  and  N_15
REMARK    7  A    between atoms: C_17  and  N_19
REMARK    8  A    between atoms: C_20  and  O_22
REMARK    9  A    between atoms: O_22  and  C_23
REMARK   10  A    between atoms: C_26  and  C_28
REMARK   11  A    between atoms: C_28  and  C_30
REMARK   12  A    between atoms: C_28  and  O_31
REMARK   13  A    between atoms: C_32  and  O_34
REMARK   14  A    between atoms: C_35  and  O_37
REMARK   15  A    between atoms: C_38  and  N_40
REMARK   16  A    between atoms: C_41  and  O_43
REMARK   17  A    between atoms: C_46  and  C_47
REMARK   18  A    between atoms: C_46  and  O_48
REMARK                            x       y       z     vdW  Elec       q    Type
REMARK                         _______ _______ _______ _____ _____    ______ ____
ROOT
ATOM      1  C   UNL     1       8.043  -1.019  23.304  0.00  0.00    +0.169 C 
ATOM      2  C   UNL     1       7.461   0.357  23.612  0.00  0.00    +0.175 C 
ATOM      3  C   UNL     1       8.073   1.541  22.842  0.00  0.00    +0.169 C 
ATOM      4  C   UNL     1       9.625   1.404  22.731  0.00  0.00    +0.084 C 
ATOM      5  C   UNL     1      10.067  -0.009  22.319  0.00  0.00    +0.042 C 
ATOM      6  C   UNL     1       9.576  -1.062  23.317  0.00  0.00    +0.084 C 
ENDROOT
BRANCH   4   7
ATOM      7  N   UNL     1      10.194   2.326  21.735  0.00  0.00    -0.325 NA
ATOM      8  H   UNL     1       9.569   3.110  21.577  0.00  0.00    +0.119 HD
ATOM      9  H   UNL     1      11.084   2.706  22.058  0.00  0.00    +0.119 HD
ENDBRANCH   4   7
BRANCH   6  10
ATOM     10  N   UNL     1      10.123  -2.373  22.922  0.00  0.00    -0.325 NA
ATOM     11  H   UNL     1       9.485  -2.849  22.282  0.00  0.00    +0.119 HD
ATOM     12  H   UNL     1      10.184  -2.977  23.742  0.00  0.00    +0.119 HD
ENDBRANCH   6  10
BRANCH   2  13
ATOM     13  O   UNL     1       6.046   0.296  23.318  0.00  0.00    -0.387 OA
ATOM     14  H   UNL     1       5.613   0.981  23.874  0.00  0.00    +0.210 HD
ENDBRANCH   2  13
BRANCH   1  15
ATOM     15  O   UNL     1       7.399  -2.033  24.059  0.00  0.00    -0.341 OA
BRANCH  15  21
ATOM     16  C   UNL     1       6.807  -4.972  24.057  0.00  0.00    +0.121 C 
ATOM     17  C   UNL     1       6.110  -5.300  22.691  0.00  0.00    +0.104 C 
ATOM     18  C   UNL     1       6.805  -6.440  21.927  0.00  0.00    +0.045 C 
ATOM     19  C   UNL     1       6.058  -4.017  21.836  0.00  0.00    +0.199 C 
ATOM     20  O   UNL     1       5.642  -2.805  22.495  0.00  0.00    -0.346 OA
ATOM     21  C   UNL     1       6.091  -2.533  23.823  0.00  0.00    +0.281 C 
ATOM     22  C   UNL     1       5.990  -3.799  24.705  0.00  0.00    +0.190 C 
BRANCH  16  24
ATOM     23  C   UNL     1       9.212  -5.137  24.805  0.00  0.00    +0.101 C 
ATOM     24  N   UNL     1       8.254  -4.740  23.790  0.00  0.00    -0.311 NA
ATOM     25  H   UNL     1       8.514  -5.233  22.933  0.00  0.00    +0.122 HD
ENDBRANCH  16  24
BRANCH  17  26
ATOM     26  O   UNL     1       4.772  -5.794  22.885  0.00  0.00    -0.385 OA
ATOM     27  H   UNL     1       4.786  -6.750  22.678  0.00  0.00    +0.210 HD
ENDBRANCH  17  26
BRANCH  22  28
ATOM     28  O   UNL     1       4.609  -4.196  24.870  0.00  0.00    -0.385 OA
ATOM     29  H   UNL     1       4.488  -5.065  24.441  0.00  0.00    +0.210 HD
ENDBRANCH  22  28
ENDBRANCH  15  21
ENDBRANCH   1  15
BRANCH   3  30
ATOM     30  O   UNL     1       7.618   2.705  23.580  0.00  0.00    -0.342 OA
BRANCH  30  31
ATOM     31  C   UNL     1       8.180   2.910  24.870  0.00  0.00    +0.270 C 
ATOM     32  C   UNL     1       7.060   3.144  25.926  0.00  0.00    +0.139 C 
ATOM     33  C   UNL     1       6.556   4.597  25.930  0.00  0.00    +0.167 C 
ATOM     34  C   UNL     1       7.676   5.640  25.827  0.00  0.00    +0.176 C 
ATOM     35  C   UNL     1       8.830   5.281  24.870  0.00  0.00    +0.180 C 
ATOM     36  O   UNL     1       9.212   3.894  24.894  0.00  0.00    -0.341 OA
BRANCH  32  37
ATOM     37  N   UNL     1       7.523   2.728  27.278  0.00  0.00    -0.321 NA
ATOM     38  H   UNL     1       7.013   3.295  27.966  0.00  0.00    +0.119 HD
ATOM     39  H   UNL     1       7.244   1.766  27.459  0.00  0.00    +0.119 HD
ENDBRANCH  32  37
BRANCH  33  40
ATOM     40  O   UNL     1       5.567   4.811  24.920  0.00  0.00    -0.387 OA
ATOM     41  H   UNL     1       6.031   4.796  24.059  0.00  0.00    +0.210 HD
ENDBRANCH  33  40
BRANCH  34  42
ATOM     42  O   UNL     1       8.231   5.796  27.156  0.00  0.00    -0.387 OA
ATOM     43  H   UNL     1       9.174   5.551  27.100  0.00  0.00    +0.210 HD
ENDBRANCH  34  42
BRANCH  35  44
ATOM     44  C   UNL     1       8.734   5.802  23.415  0.00  0.00    +0.143 C 
ATOM     45  C   UNL     1       7.925   7.089  23.259  0.00  0.00    +0.040 C 
BRANCH  44  46
ATOM     46  O   UNL     1      10.067   6.149  22.985  0.00  0.00    -0.389 OA
ATOM     47  H   UNL     1      10.562   5.309  22.988  0.00  0.00    +0.210 HD
ENDBRANCH  44  46
ENDBRANCH  35  44
ENDBRANCH  30  31
ENDBRANCH   3  30
TORSDOF 15
ENDMDL
MODEL 9
REMARK VINA RESULT:      -6.7      1.972      3.199
REMARK  Name = 
REMARK  18 active torsions:
REMARK  status: ('A' for Active; 'I' for Inactive)
REMARK    1  A    between atoms: C_1  and  N_2
REMARK    2  A    between atoms: N_2  and  C_3
REMARK    3  A    between atoms: C_5  and  O_7
REMARK    4  A    between atoms: C_8  and  O_10
REMARK    5  A    between atoms: O_10  and  C_11
REMARK    6  A    between atoms: C_13  and  N_15
REMARK    7  A    between atoms: C_17  and  N_19
REMARK    8  A    between atoms: C_20  and  O_22
REMARK    9  A    between atoms: O_22  and  C_23
REMARK   10  A    between atoms: C_26  and  C_28
REMARK   11  A    between atoms: C_28  and  C_30
REMARK   12  A    between atoms: C_28  and  O_31
REMARK   13  A    between atoms: C_32  and  O_34
REMARK   14  A    between atoms: C_35  and  O_37
REMARK   15  A    between atoms: C_38  and  N_40
REMARK   16  A    between atoms: C_41  and  O_43
REMARK   17  A    between atoms: C_46  and  C_47
REMARK   18  A    between atoms: C_46  and  O_48
REMARK                            x       y       z     vdW  Elec       q    Type
REMARK                         _______ _______ _______ _____ _____    ______ ____
ROOT
ATOM      1  C   UNL     1       8.215  -1.266  22.755  0.00  0.00    +0.169 C 
ATOM      2  C   UNL     1       7.392  -0.381  23.685  0.00  0.00    +0.175 C 
ATOM      3  C   UNL     1       7.382   1.123  23.358  0.00  0.00    +0.169 C 
ATOM      4  C   UNL     1       8.799   1.620  22.929  0.00  0.00    +0.084 C 
ATOM      5  C   UNL     1       9.473   0.683  21.914  0.00  0.00    +0.042 C 
ATOM      6  C   UNL     1       9.626  -0.733  22.477  0.00  0.00    +0.084 C 
ENDROOT
BRANCH   4   7
ATOM      7  N   UNL     1       8.754   2.951  22.301  0.00  0.00    -0.325 NA
ATOM      8  H   UNL     1       8.282   3.615  22.905  0.00  0.00    +0.119 HD
ATOM      9  H   UNL     1       9.696   3.306  22.133  0.00  0.00    +0.119 HD
ENDBRANCH   4   7
BRANCH   6  10
ATOM     10  N   UNL     1      10.372  -1.548  21.501  0.00  0.00    -0.325 NA
ATOM     11  H   UNL     1       9.926  -1.505  20.583  0.00  0.00    +0.119 HD
ATOM     12  H   UNL     1      10.332  -2.530  21.776  0.00  0.00    +0.119 HD
ENDBRANCH   6  10
BRANCH   2  13
ATOM     13  O   UNL     1       6.033  -0.872  23.648  0.00  0.00    -0.387 OA
ATOM     14  H   UNL     1       5.552  -0.427  24.382  0.00  0.00    +0.210 HD
ENDBRANCH   2  13
BRANCH   1  15
ATOM     15  O   UNL     1       8.143  -2.629  23.142  0.00  0.00    -0.341 OA
BRANCH  15  21
ATOM     16  C   UNL     1       7.135  -4.755  25.000  0.00  0.00    +0.121 C 
ATOM     17  C   UNL     1       7.502  -4.306  26.456  0.00  0.00    +0.104 C 
ATOM     18  C   UNL     1       6.286  -4.289  27.399  0.00  0.00    +0.045 C 
ATOM     19  C   UNL     1       8.170  -2.917  26.397  0.00  0.00    +0.199 C 
ATOM     20  O   UNL     1       9.180  -2.716  25.388  0.00  0.00    -0.346 OA
ATOM     21  C   UNL     1       8.995  -3.265  24.083  0.00  0.00    +0.281 C 
ATOM     22  C   UNL     1       8.467  -4.716  24.171  0.00  0.00    +0.190 C 
BRANCH  16  24
ATOM     23  C   UNL     1       5.100  -4.457  23.536  0.00  0.00    +0.101 C 
ATOM     24  N   UNL     1       6.005  -3.908  24.529  0.00  0.00    -0.311 NA
ATOM     25  H   UNL     1       5.431  -3.646  25.334  0.00  0.00    +0.122 HD
ENDBRANCH  16  24
BRANCH  17  26
ATOM     26  O   UNL     1       8.402  -5.237  27.086  0.00  0.00    -0.385 OA
ATOM     27  H   UNL     1       8.953  -5.627  26.378  0.00  0.00    +0.210 HD
ENDBRANCH  17  26
BRANCH  22  28
ATOM     28  O   UNL     1       9.452  -5.580  24.785  0.00  0.00    -0.385 OA
ATOM     29  H   UNL     1       9.087  -5.907  25.630  0.00  0.00    +0.210 HD
ENDBRANCH  22  28
ENDBRANCH  15  21
ENDBRANCH   1  15
BRANCH   3  30
ATOM     30  O   UNL     1       6.866   1.737  24.568  0.00  0.00    -0.342 OA
BRANCH  30  31
ATOM     31  C   UNL     1       5.626   2.426  24.462  0.00  0.00    +0.270 C 
ATOM     32  C   UNL     1       5.696   3.800  25.191  0.00  0.00    +0.139 C 
ATOM     33  C   UNL     1       5.477   3.667  26.708  0.00  0.00    +0.167 C 
ATOM     34  C   UNL     1       4.340   2.709  27.086  0.00  0.00    +0.176 C 
ATOM     35  C   UNL     1       4.236   1.432  26.229  0.00  0.00    +0.180 C 
ATOM     36  O   UNL     1       4.499   1.633  24.829  0.00  0.00    -0.341 OA
BRANCH  32  37
ATOM     37  N   UNL     1       4.734   4.761  24.587  0.00  0.00    -0.321 NA
ATOM     38  H   UNL     1       4.845   5.657  25.077  0.00  0.00    +0.119 HD
ATOM     39  H   UNL     1       4.991   4.947  23.620  0.00  0.00    +0.119 HD
ENDBRANCH  32  37
BRANCH  33  40
ATOM     40  O   UNL     1       6.686   3.312  27.383  0.00  0.00    -0.387 OA
ATOM     41  H   UNL     1       7.182   2.718  26.786  0.00  0.00    +0.210 HD
ENDBRANCH  33  40
BRANCH  34  42
ATOM     42  O   UNL     1       3.101   3.446  26.939  0.00  0.00    -0.387 OA
ATOM     43  H   UNL     1       3.336   4.392  26.907  0.00  0.00    +0.210 HD
ENDBRANCH  34  42
BRANCH  35  44
ATOM     44  C   UNL     1       4.960   0.166  26.751  0.00  0.00    +0.143 C 
ATOM     45  C   UNL     1       4.699  -0.146  28.224  0.00  0.00    +0.040 C 
BRANCH  44  46
ATOM     46  O   UNL     1       4.431  -0.968  26.032  0.00  0.00    -0.389 OA
ATOM     47  H   UNL     1       5.001  -1.060  25.248  0.00  0.00    +0.210 HD
ENDBRANCH  44  46
ENDBRANCH  35  44
ENDBRANCH  30  31
ENDBRANCH   3  30
TORSDOF 15
ENDMDL
