MODEL 1
REMARK VINA RESULT:      -6.0      0.000      0.000
REMARK  Name = 
REMARK  33 active torsions:
REMARK  status: ('A' for Active; 'I' for Inactive)
REMARK    1  A    between atoms: O_1  and  C_2
REMARK    2  A    between atoms: C_2  and  C_4
REMARK    3  A    between atoms: C_2  and  C_43
REMARK    4  A    between atoms: C_4  and  C_5
REMARK    5  A    between atoms: C_4  and  C_6
REMARK    6  A    between atoms: C_4  and  C_7
REMARK    7  A    between atoms: C_7  and  O_8
REMARK    8  A    between atoms: O_8  and  P_9
REMARK    9  A    between atoms: P_9  and  O_11
REMARK   10  A    between atoms: P_9  and  O_12
REMARK   11  A    between atoms: O_12  and  P_13
REMARK   12  A    between atoms: P_13  and  O_15
REMARK   13  A    between atoms: P_13  and  O_16
REMARK   14  A    between atoms: O_16  and  C_17
REMARK   15  A    between atoms: C_17  and  C_18
REMARK   16  A    between atoms: C_21  and  N_33
REMARK   17  A    between atoms: C_23  and  O_25
REMARK   18  A    between atoms: C_26  and  O_28
REMARK   19  A    between atoms: O_28  and  P_29
REMARK   20  A    between atoms: P_29  and  O_30
REMARK   21  A    between atoms: P_29  and  O_31
REMARK   22  A    between atoms: N_45  and  C_46
REMARK   23  A    between atoms: C_46  and  C_47
REMARK   24  A    between atoms: C_47  and  C_48
REMARK   25  A    between atoms: N_50  and  C_51
REMARK   26  A    between atoms: C_51  and  C_52
REMARK   27  A    between atoms: C_52  and  S_53
REMARK   28  A    between atoms: S_53  and  C_54
REMARK   29  A    between atoms: C_54  and  C_56
REMARK   30  A    between atoms: C_57  and  C_58
REMARK   31  A    between atoms: C_61  and  N_62
REMARK   32  A    between atoms: N_62  and  C_63
REMARK   33  A    between atoms: N_62  and  C_64
REMARK                            x       y       z     vdW  Elec       q    Type
REMARK                         _______ _______ _______ _____ _____    ______ ____
ROOT
ATOM      1  P   UNL     1       9.355  -0.960  22.302  0.00  0.00    +0.483 P 
ATOM      2  O   UNL     1      10.470  -0.259  23.027  0.00  0.00    -0.227 OA
ENDROOT
BRANCH   1   3
ATOM      3  O   UNL     1       9.443  -0.767  20.735  0.00  0.00    -0.302 OA
ATOM      4  H   UNL     1       8.585  -1.087  20.417  0.00  0.00    +0.222 HD
ENDBRANCH   1   3
BRANCH   1   5
ATOM      5  O   UNL     1       8.049  -0.026  22.343  0.00  0.00    -0.286 OA
BRANCH   5   6
ATOM      6  C   UNL     1       7.481   1.008  23.101  0.00  0.00    +0.181 C 
BRANCH   6   7
ATOM      7  C   UNL     1       7.348   1.157  24.632  0.00  0.00    +0.024 C 
ATOM      8  C   UNL     1       8.628   2.012  24.968  0.00  0.00    +0.016 C 
ATOM      9  C   UNL     1       6.153   2.062  24.959  0.00  0.00    +0.016 C 
BRANCH   7  10
ATOM     10  C   UNL     1       7.539  -0.145  25.508  0.00  0.00    +0.208 C 
BRANCH  10  11
ATOM     11  C   UNL     1       8.060  -0.158  26.968  0.00  0.00    +0.242 C 
ATOM     12  N   UNL     1       7.288   0.590  27.850  0.00  0.00    -0.313 N 
ATOM     13  H   UNL     1       6.587   1.174  27.397  0.00  0.00    +0.149 HD
ATOM     14  O   UNL     1       9.068  -0.767  27.303  0.00  0.00    -0.273 OA
BRANCH  12  15
ATOM     15  C   UNL     1       7.703   0.950  29.201  0.00  0.00    +0.113 C 
BRANCH  15  16
ATOM     16  C   UNL     1       7.188   2.291  29.628  0.00  0.00    +0.114 C 
BRANCH  16  17
ATOM     17  C   UNL     1       6.537   3.069  28.501  0.00  0.00    +0.215 C 
ATOM     18  N   UNL     1       4.981   3.114  28.499  0.00  0.00    -0.314 N 
ATOM     19  H   UNL     1       4.752   3.059  29.484  0.00  0.00    +0.149 HD
ATOM     20  O   UNL     1       7.347   3.716  27.806  0.00  0.00    -0.276 OA
BRANCH  18  21
ATOM     21  C   UNL     1       3.500   3.819  27.865  0.00  0.00    +0.115 C 
BRANCH  21  22
ATOM     22  C   UNL     1       2.939   4.423  26.359  0.00  0.00    +0.096 C 
BRANCH  22  23
ATOM     23  S   UNL     1       2.493   2.993  25.377  0.00  0.00    -0.082 S 
BRANCH  23  24
ATOM     24  C   UNL     1       2.470   3.913  23.966  0.00  0.00    +0.213 C 
ATOM     25  O   UNL     1       1.764   4.872  23.829  0.00  0.00    -0.280 OA
BRANCH  24  26
ATOM     26  C   UNL     1       3.400   3.429  22.952  0.00  0.00    +0.058 C 
ATOM     27  C   UNL     1       3.855   4.619  22.534  0.00  0.00    +0.012 C 
BRANCH  27  28
ATOM     28  C   UNL     1       5.214   4.957  22.902  0.00  0.00    -0.025 A 
ATOM     29  C   UNL     1       5.510   5.672  24.058  0.00  0.00    +0.010 A 
ATOM     30  C   UNL     1       6.851   5.957  24.455  0.00  0.00    +0.023 A 
ATOM     31  C   UNL     1       7.988   5.534  23.749  0.00  0.00    +0.029 A 
ATOM     32  C   UNL     1       7.552   4.734  22.664  0.00  0.00    +0.023 A 
ATOM     33  C   UNL     1       6.262   4.420  22.235  0.00  0.00    +0.010 A 
BRANCH  31  34
ATOM     34  N   UNL     1       9.294   5.906  24.144  0.00  0.00    -0.336 N 
ATOM     35  C   UNL     1       9.443   6.201  25.588  0.00  0.00    +0.129 C 
ATOM     36  C   UNL     1      10.766   5.808  23.735  0.00  0.00    +0.129 C 
ENDBRANCH  31  34
ENDBRANCH  27  28
ENDBRANCH  24  26
ENDBRANCH  23  24
ENDBRANCH  22  23
ENDBRANCH  21  22
ENDBRANCH  18  21
ENDBRANCH  16  17
ENDBRANCH  15  16
ENDBRANCH  12  15
ENDBRANCH  10  11
BRANCH  10  37
ATOM     37  O   UNL     1       6.296  -0.883  25.516  0.00  0.00    -0.382 OA
ATOM     38  H   UNL     1       6.506  -1.777  25.844  0.00  0.00    +0.210 HD
ENDBRANCH  10  37
ENDBRANCH   7  10
ENDBRANCH   6   7
ENDBRANCH   5   6
ENDBRANCH   1   5
BRANCH   1  39
ATOM     39  O   UNL     1       8.907  -2.447  22.930  0.00  0.00    -0.186 OA
BRANCH  39  40
ATOM     40  P   UNL     1       8.416  -3.675  24.047  0.00  0.00    +0.483 P 
ATOM     41  O   UNL     1       9.818  -4.146  24.506  0.00  0.00    -0.227 OA
BRANCH  40  42
ATOM     42  O   UNL     1       8.003  -5.187  23.649  0.00  0.00    -0.302 OA
ATOM     43  H   UNL     1       7.733  -5.654  24.469  0.00  0.00    +0.222 HD
ENDBRANCH  40  42
BRANCH  40  44
ATOM     44  O   UNL     1       6.850  -3.150  23.535  0.00  0.00    -0.284 OA
BRANCH  44  45
ATOM     45  C   UNL     1       5.781  -4.065  23.370  0.00  0.00    +0.206 C 
BRANCH  45  46
ATOM     46  C   UNL     1       4.885  -4.169  24.636  0.00  0.00    +0.179 C 
ATOM     47  C   UNL     1       4.963  -5.554  25.199  0.00  0.00    +0.194 C 
ATOM     48  C   UNL     1       5.584  -5.472  26.586  0.00  0.00    +0.196 C 
ATOM     49  C   UNL     1       5.544  -3.978  26.935  0.00  0.00    +0.253 C 
ATOM     50  O   UNL     1       4.977  -3.275  25.796  0.00  0.00    -0.346 OA
BRANCH  49  51
ATOM     51  N   UNL     1       4.943  -3.752  28.269  0.00  0.00    -0.286 N 
ATOM     52  C   UNL     1       4.483  -2.484  28.600  0.00  0.00    +0.167 A 
ATOM     53  N   UNL     1       4.680  -1.380  27.860  0.00  0.00    -0.216 NA
ATOM     54  C   UNL     1       3.972  -0.338  28.326  0.00  0.00    +0.225 A 
ATOM     55  N   UNL     1       3.105  -0.299  29.332  0.00  0.00    -0.219 NA
ATOM     56  C   UNL     1       2.781  -1.449  29.928  0.00  0.00    +0.147 A 
ATOM     57  N   UNL     1       1.416  -1.383  30.244  0.00  0.00    -0.341 N 
ATOM     58  H   UNL     1       0.846  -2.222  30.083  0.00  0.00    +0.144 HD
ATOM     59  H   UNL     1       0.887  -0.551  30.030  0.00  0.00    +0.144 HD
ATOM     60  C   UNL     1       3.657  -2.613  29.706  0.00  0.00    +0.147 A 
ATOM     61  N   UNL     1       3.766  -3.966  30.117  0.00  0.00    -0.231 NA
ATOM     62  C   UNL     1       4.536  -4.606  29.237  0.00  0.00    +0.203 A 
ENDBRANCH  49  51
BRANCH  48  63
ATOM     63  O   UNL     1       6.894  -6.017  26.569  0.00  0.00    -0.385 OA
ATOM     64  H   UNL     1       7.481  -5.279  26.842  0.00  0.00    +0.210 HD
ENDBRANCH  48  63
BRANCH  47  65
ATOM     65  O   UNL     1       3.591  -5.792  25.342  0.00  0.00    -0.278 OA
BRANCH  65  66
ATOM     66  P   UNL     1       3.042  -7.297  24.687  0.00  0.00    +0.473 P 
ATOM     67  O   UNL     1       2.551  -8.642  24.099  0.00  0.00    -0.228 OA
BRANCH  66  68
ATOM     68  O   UNL     1       3.333  -7.889  26.183  0.00  0.00    -0.303 OA
ATOM     69  H   UNL     1       3.856  -7.276  26.724  0.00  0.00    +0.222 HD
ENDBRANCH  66  68
BRANCH  66  70
ATOM     70  O   UNL     1       4.565  -7.439  24.110  0.00  0.00    -0.303 OA
ATOM     71  H   UNL     1       4.946  -6.588  23.842  0.00  0.00    +0.222 HD
ENDBRANCH  66  70
ENDBRANCH  65  66
ENDBRANCH  47  65
ENDBRANCH  45  46
ENDBRANCH  44  45
ENDBRANCH  40  44
ENDBRANCH  39  40
ENDBRANCH   1  39
TORSDOF 29
ENDMDL
MODEL 2
REMARK VINA RESULT:      -5.3      3.323      8.078
REMARK  Name = 
REMARK  33 active torsions:
REMARK  status: ('A' for Active; 'I' for Inactive)
REMARK    1  A    between atoms: O_1  and  C_2
REMARK    2  A    between atoms: C_2  and  C_4
REMARK    3  A    between atoms: C_2  and  C_43
REMARK    4  A    between atoms: C_4  and  C_5
REMARK    5  A    between atoms: C_4  and  C_6
REMARK    6  A    between atoms: C_4  and  C_7
REMARK    7  A    between atoms: C_7  and  O_8
REMARK    8  A    between atoms: O_8  and  P_9
REMARK    9  A    between atoms: P_9  and  O_11
REMARK   10  A    between atoms: P_9  and  O_12
REMARK   11  A    between atoms: O_12  and  P_13
REMARK   12  A    between atoms: P_13  and  O_15
REMARK   13  A    between atoms: P_13  and  O_16
REMARK   14  A    between atoms: O_16  and  C_17
REMARK   15  A    between atoms: C_17  and  C_18
REMARK   16  A    between atoms: C_21  and  N_33
REMARK   17  A    between atoms: C_23  and  O_25
REMARK   18  A    between atoms: C_26  and  O_28
REMARK   19  A    between atoms: O_28  and  P_29
REMARK   20  A    between atoms: P_29  and  O_30
REMARK   21  A    between atoms: P_29  and  O_31
REMARK   22  A    between atoms: N_45  and  C_46
REMARK   23  A    between atoms: C_46  and  C_47
REMARK   24  A    between atoms: C_47  and  C_48
REMARK   25  A    between atoms: N_50  and  C_51
REMARK   26  A    between atoms: C_51  and  C_52
REMARK   27  A    between atoms: C_52  and  S_53
REMARK   28  A    between atoms: S_53  and  C_54
REMARK   29  A    between atoms: C_54  and  C_56
REMARK   30  A    between atoms: C_57  and  C_58
REMARK   31  A    between atoms: C_61  and  N_62
REMARK   32  A    between atoms: N_62  and  C_63
REMARK   33  A    between atoms: N_62  and  C_64
REMARK                            x       y       z     vdW  Elec       q    Type
REMARK                         _______ _______ _______ _____ _____    ______ ____
ROOT
ATOM      1  P   UNL     1       5.224  -3.729  23.842  0.00  0.00    +0.483 P 
ATOM      2  O   UNL     1       4.988  -3.014  22.541  0.00  0.00    -0.227 OA
ENDROOT
BRANCH   1   3
ATOM      3  O   UNL     1       6.452  -4.723  23.767  0.00  0.00    -0.302 OA
ATOM      4  H   UNL     1       7.218  -4.134  23.682  0.00  0.00    +0.222 HD
ENDBRANCH   1   3
BRANCH   1   5
ATOM      5  O   UNL     1       4.219  -4.979  23.930  0.00  0.00    -0.286 OA
BRANCH   5   6
ATOM      6  C   UNL     1       2.881  -5.311  23.678  0.00  0.00    +0.181 C 
BRANCH   6   7
ATOM      7  C   UNL     1       1.681  -5.393  24.646  0.00  0.00    +0.024 C 
ATOM      8  C   UNL     1       0.488  -5.020  23.687  0.00  0.00    +0.016 C 
ATOM      9  C   UNL     1       1.442  -6.855  25.046  0.00  0.00    +0.016 C 
BRANCH   7  10
ATOM     10  C   UNL     1       1.588  -4.300  25.785  0.00  0.00    +0.208 C 
BRANCH  10  11
ATOM     11  C   UNL     1       2.298  -4.395  27.160  0.00  0.00    +0.242 C 
ATOM     12  N   UNL     1       3.514  -5.070  27.123  0.00  0.00    -0.313 N 
ATOM     13  H   UNL     1       3.696  -5.550  26.243  0.00  0.00    +0.149 HD
ATOM     14  O   UNL     1       1.819  -3.924  28.183  0.00  0.00    -0.273 OA
BRANCH  12  15
ATOM     15  C   UNL     1       4.239  -5.519  28.305  0.00  0.00    +0.113 C 
BRANCH  15  16
ATOM     16  C   UNL     1       5.299  -6.529  27.986  0.00  0.00    +0.114 C 
BRANCH  16  17
ATOM     17  C   UNL     1       6.070  -6.210  26.720  0.00  0.00    +0.215 C 
ATOM     18  N   UNL     1       7.412  -5.443  26.901  0.00  0.00    -0.314 N 
ATOM     19  H   UNL     1       7.731  -5.758  27.809  0.00  0.00    +0.149 HD
ATOM     20  O   UNL     1       5.602  -6.754  25.699  0.00  0.00    -0.276 OA
BRANCH  18  21
ATOM     21  C   UNL     1       8.927  -4.882  26.206  0.00  0.00    +0.115 C 
BRANCH  21  22
ATOM     22  C   UNL     1       9.431  -4.069  24.780  0.00  0.00    +0.096 C 
BRANCH  22  23
ATOM     23  S   UNL     1       8.955  -2.354  24.984  0.00  0.00    -0.082 S 
BRANCH  23  24
ATOM     24  C   UNL     1       9.371  -2.003  23.390  0.00  0.00    +0.213 C 
ATOM     25  O   UNL     1      10.474  -2.179  22.953  0.00  0.00    -0.280 OA
BRANCH  24  26
ATOM     26  C   UNL     1       8.256  -1.481  22.608  0.00  0.00    +0.058 C 
ATOM     27  C   UNL     1       7.696  -0.726  23.563  0.00  0.00    +0.012 C 
BRANCH  27  28
ATOM     28  C   UNL     1       7.821   0.708  23.410  0.00  0.00    -0.025 A 
ATOM     29  C   UNL     1       8.678   1.464  24.204  0.00  0.00    +0.010 A 
ATOM     30  C   UNL     1       8.849   2.868  24.019  0.00  0.00    +0.023 A 
ATOM     31  C   UNL     1       8.204   3.615  23.021  0.00  0.00    +0.029 A 
ATOM     32  C   UNL     1       7.452   2.716  22.225  0.00  0.00    +0.023 A 
ATOM     33  C   UNL     1       7.255   1.342  22.357  0.00  0.00    +0.010 A 
BRANCH  31  34
ATOM     34  N   UNL     1       8.349   5.018  22.926  0.00  0.00    -0.336 N 
ATOM     35  C   UNL     1       7.460   5.666  21.933  0.00  0.00    +0.129 C 
ATOM     36  C   UNL     1       8.837   6.249  23.694  0.00  0.00    +0.129 C 
ENDBRANCH  31  34
ENDBRANCH  27  28
ENDBRANCH  24  26
ENDBRANCH  23  24
ENDBRANCH  22  23
ENDBRANCH  21  22
ENDBRANCH  18  21
ENDBRANCH  16  17
ENDBRANCH  15  16
ENDBRANCH  12  15
ENDBRANCH  10  11
BRANCH  10  37
ATOM     37  O   UNL     1       1.958  -3.019  25.226  0.00  0.00    -0.382 OA
ATOM     38  H   UNL     1       2.916  -3.062  25.047  0.00  0.00    +0.210 HD
ENDBRANCH  10  37
ENDBRANCH   7  10
ENDBRANCH   6   7
ENDBRANCH   5   6
ENDBRANCH   1   5
BRANCH   1  39
ATOM     39  O   UNL     1       4.982  -2.815  25.224  0.00  0.00    -0.186 OA
BRANCH  39  40
ATOM     40  P   UNL     1       5.282  -1.977  26.710  0.00  0.00    +0.483 P 
ATOM     41  O   UNL     1       6.534  -2.762  27.172  0.00  0.00    -0.227 OA
BRANCH  40  42
ATOM     42  O   UNL     1       4.538  -2.275  28.115  0.00  0.00    -0.302 OA
ATOM     43  H   UNL     1       3.609  -2.521  27.921  0.00  0.00    +0.222 HD
ENDBRANCH  40  42
BRANCH  40  44
ATOM     44  O   UNL     1       3.883  -1.100  26.195  0.00  0.00    -0.284 OA
BRANCH  44  45
ATOM     45  C   UNL     1       3.099  -0.357  27.111  0.00  0.00    +0.206 C 
BRANCH  45  46
ATOM     46  C   UNL     1       3.266   1.178  26.929  0.00  0.00    +0.179 C 
ATOM     47  C   UNL     1       4.397   1.668  27.779  0.00  0.00    +0.194 C 
ATOM     48  C   UNL     1       5.480   2.217  26.861  0.00  0.00    +0.196 C 
ATOM     49  C   UNL     1       4.796   2.340  25.492  0.00  0.00    +0.253 C 
ATOM     50  O   UNL     1       3.436   1.849  25.635  0.00  0.00    -0.346 OA
BRANCH  49  51
ATOM     51  N   UNL     1       5.000   3.683  24.907  0.00  0.00    -0.286 N 
ATOM     52  C   UNL     1       4.352   4.013  23.723  0.00  0.00    +0.167 A 
ATOM     53  N   UNL     1       3.664   3.148  22.959  0.00  0.00    -0.216 NA
ATOM     54  C   UNL     1       2.995   3.775  21.979  0.00  0.00    +0.225 A 
ATOM     55  N   UNL     1       2.892   5.078  21.736  0.00  0.00    -0.219 NA
ATOM     56  C   UNL     1       3.426   5.925  22.619  0.00  0.00    +0.147 A 
ATOM     57  N   UNL     1       2.564   7.029  22.708  0.00  0.00    -0.341 N 
ATOM     58  H   UNL     1       2.377   7.417  23.640  0.00  0.00    +0.144 HD
ATOM     59  H   UNL     1       1.734   7.069  22.136  0.00  0.00    +0.144 HD
ATOM     60  C   UNL     1       4.400   5.392  23.588  0.00  0.00    +0.147 A 
ATOM     61  N   UNL     1       5.230   5.857  24.639  0.00  0.00    -0.231 NA
ATOM     62  C   UNL     1       5.562   4.813  25.399  0.00  0.00    +0.203 A 
ENDBRANCH  49  51
BRANCH  48  63
ATOM     63  O   UNL     1       6.605   1.352  26.859  0.00  0.00    -0.385 OA
ATOM     64  H   UNL     1       6.277   0.507  26.481  0.00  0.00    +0.210 HD
ENDBRANCH  48  63
BRANCH  47  65
ATOM     65  O   UNL     1       3.744   2.747  28.385  0.00  0.00    -0.278 OA
BRANCH  65  66
ATOM     66  P   UNL     1       4.780   3.838  29.239  0.00  0.00    +0.473 P 
ATOM     67  O   UNL     1       5.706   4.816  30.001  0.00  0.00    -0.228 OA
BRANCH  66  68
ATOM     68  O   UNL     1       3.743   3.619  30.485  0.00  0.00    -0.303 OA
ATOM     69  H   UNL     1       2.926   3.175  30.207  0.00  0.00    +0.222 HD
ENDBRANCH  66  68
BRANCH  66  70
ATOM     70  O   UNL     1       3.936   5.012  28.474  0.00  0.00    -0.303 OA
ATOM     71  H   UNL     1       3.790   4.818  27.535  0.00  0.00    +0.222 HD
ENDBRANCH  66  70
ENDBRANCH  65  66
ENDBRANCH  47  65
ENDBRANCH  45  46
ENDBRANCH  44  45
ENDBRANCH  40  44
ENDBRANCH  39  40
ENDBRANCH   1  39
TORSDOF 29
ENDMDL
MODEL 3
REMARK VINA RESULT:      -5.1      3.986      9.554
REMARK  Name = 
REMARK  33 active torsions:
REMARK  status: ('A' for Active; 'I' for Inactive)
REMARK    1  A    between atoms: O_1  and  C_2
REMARK    2  A    between atoms: C_2  and  C_4
REMARK    3  A    between atoms: C_2  and  C_43
REMARK    4  A    between atoms: C_4  and  C_5
REMARK    5  A    between atoms: C_4  and  C_6
REMARK    6  A    between atoms: C_4  and  C_7
REMARK    7  A    between atoms: C_7  and  O_8
REMARK    8  A    between atoms: O_8  and  P_9
REMARK    9  A    between atoms: P_9  and  O_11
REMARK   10  A    between atoms: P_9  and  O_12
REMARK   11  A    between atoms: O_12  and  P_13
REMARK   12  A    between atoms: P_13  and  O_15
REMARK   13  A    between atoms: P_13  and  O_16
REMARK   14  A    between atoms: O_16  and  C_17
REMARK   15  A    between atoms: C_17  and  C_18
REMARK   16  A    between atoms: C_21  and  N_33
REMARK   17  A    between atoms: C_23  and  O_25
REMARK   18  A    between atoms: C_26  and  O_28
REMARK   19  A    between atoms: O_28  and  P_29
REMARK   20  A    between atoms: P_29  and  O_30
REMARK   21  A    between atoms: P_29  and  O_31
REMARK   22  A    between atoms: N_45  and  C_46
REMARK   23  A    between atoms: C_46  and  C_47
REMARK   24  A    between atoms: C_47  and  C_48
REMARK   25  A    between atoms: N_50  and  C_51
REMARK   26  A    between atoms: C_51  and  C_52
REMARK   27  A    between atoms: C_52  and  S_53
REMARK   28  A    between atoms: S_53  and  C_54
REMARK   29  A    between atoms: C_54  and  C_56
REMARK   30  A    between atoms: C_57  and  C_58
REMARK   31  A    between atoms: C_61  and  N_62
REMARK   32  A    between atoms: N_62  and  C_63
REMARK   33  A    between atoms: N_62  and  C_64
REMARK                            x       y       z     vdW  Elec       q    Type
REMARK                         _______ _______ _______ _____ _____    ______ ____
ROOT
ATOM      1  P   UNL     1      10.220   2.689  22.850  0.00  0.00    +0.483 P 
ATOM      2  O   UNL     1       8.751   2.955  23.030  0.00  0.00    -0.227 OA
ENDROOT
BRANCH   1   3
ATOM      3  O   UNL     1      10.525   1.869  21.532  0.00  0.00    -0.302 OA
ATOM      4  H   UNL     1      10.882   1.030  21.863  0.00  0.00    +0.222 HD
ENDBRANCH   1   3
BRANCH   1   5
ATOM      5  O   UNL     1      10.623   1.413  23.738  0.00  0.00    -0.286 OA
BRANCH   5   6
ATOM      6  C   UNL     1      10.164   0.668  24.832  0.00  0.00    +0.181 C 
BRANCH   6   7
ATOM      7  C   UNL     1       9.081  -0.430  24.899  0.00  0.00    +0.024 C 
ATOM      8  C   UNL     1       9.855  -1.660  24.290  0.00  0.00    +0.016 C 
ATOM      9  C   UNL     1       8.813  -0.800  26.364  0.00  0.00    +0.016 C 
BRANCH   7  10
ATOM     10  C   UNL     1       7.830  -0.277  23.945  0.00  0.00    +0.208 C 
BRANCH  10  11
ATOM     11  C   UNL     1       6.744  -1.362  23.732  0.00  0.00    +0.242 C 
ATOM     12  N   UNL     1       7.044  -2.272  22.723  0.00  0.00    -0.313 N 
ATOM     13  H   UNL     1       7.848  -2.012  22.155  0.00  0.00    +0.149 HD
ATOM     14  O   UNL     1       5.713  -1.401  24.390  0.00  0.00    -0.273 OA
BRANCH  12  15
ATOM     15  C   UNL     1       6.086  -3.214  22.157  0.00  0.00    +0.113 C 
BRANCH  15  16
ATOM     16  C   UNL     1       6.555  -4.635  22.234  0.00  0.00    +0.114 C 
BRANCH  16  17
ATOM     17  C   UNL     1       5.509  -5.636  21.781  0.00  0.00    +0.215 C 
ATOM     18  N   UNL     1       4.277  -5.820  22.714  0.00  0.00    -0.314 N 
ATOM     19  H   UNL     1       4.178  -4.907  23.141  0.00  0.00    +0.149 HD
ATOM     20  O   UNL     1       5.697  -6.068  20.625  0.00  0.00    -0.276 OA
BRANCH  18  21
ATOM     21  C   UNL     1       2.657  -6.462  22.953  0.00  0.00    +0.115 C 
BRANCH  21  22
ATOM     22  C   UNL     1       1.514  -6.547  24.232  0.00  0.00    +0.096 C 
BRANCH  22  23
ATOM     23  S   UNL     1       1.962  -7.979  25.212  0.00  0.00    -0.082 S 
BRANCH  23  24
ATOM     24  C   UNL     1       1.397  -7.247  26.620  0.00  0.00    +0.213 C 
ATOM     25  O   UNL     1       0.845  -7.858  27.492  0.00  0.00    -0.280 OA
BRANCH  24  26
ATOM     26  C   UNL     1       1.663  -5.814  26.668  0.00  0.00    +0.058 C 
ATOM     27  C   UNL     1       2.631  -5.835  27.594  0.00  0.00    +0.012 C 
BRANCH  27  28
ATOM     28  C   UNL     1       3.976  -5.561  27.130  0.00  0.00    -0.025 A 
ATOM     29  C   UNL     1       5.078  -6.267  27.601  0.00  0.00    +0.010 A 
ATOM     30  C   UNL     1       6.396  -6.041  27.105  0.00  0.00    +0.023 A 
ATOM     31  C   UNL     1       6.710  -5.120  26.094  0.00  0.00    +0.029 A 
ATOM     32  C   UNL     1       5.496  -4.552  25.633  0.00  0.00    +0.023 A 
ATOM     33  C   UNL     1       4.187  -4.739  26.076  0.00  0.00    +0.010 A 
BRANCH  31  34
ATOM     34  N   UNL     1       8.043  -4.879  25.689  0.00  0.00    -0.336 N 
ATOM     35  C   UNL     1       8.958  -4.476  26.783  0.00  0.00    +0.129 C 
ATOM     36  C   UNL     1       9.060  -5.196  24.590  0.00  0.00    +0.129 C 
ENDBRANCH  31  34
ENDBRANCH  27  28
ENDBRANCH  24  26
ENDBRANCH  23  24
ENDBRANCH  22  23
ENDBRANCH  21  22
ENDBRANCH  18  21
ENDBRANCH  16  17
ENDBRANCH  15  16
ENDBRANCH  12  15
ENDBRANCH  10  11
BRANCH  10  37
ATOM     37  O   UNL     1       7.127   0.936  24.296  0.00  0.00    -0.382 OA
ATOM     38  H   UNL     1       6.881   1.366  23.456  0.00  0.00    +0.210 HD
ENDBRANCH  10  37
ENDBRANCH   7  10
ENDBRANCH   6   7
ENDBRANCH   5   6
ENDBRANCH   1   5
BRANCH   1  39
ATOM     39  O   UNL     1      11.241   3.937  23.303  0.00  0.00    -0.186 OA
BRANCH  39  40
ATOM     40  P   UNL     1      11.917   5.521  23.480  0.00  0.00    +0.483 P 
ATOM     41  O   UNL     1      13.294   5.263  22.819  0.00  0.00    -0.227 OA
BRANCH  40  42
ATOM     42  O   UNL     1      12.630   6.087  24.817  0.00  0.00    -0.302 OA
ATOM     43  H   UNL     1      13.600   5.985  24.710  0.00  0.00    +0.222 HD
ENDBRANCH  40  42
BRANCH  40  44
ATOM     44  O   UNL     1      10.380   5.811  24.219  0.00  0.00    -0.284 OA
BRANCH  44  45
ATOM     45  C   UNL     1       9.345   6.486  23.527  0.00  0.00    +0.206 C 
BRANCH  45  46
ATOM     46  C   UNL     1       8.004   6.486  24.314  0.00  0.00    +0.179 C 
ATOM     47  C   UNL     1       7.379   5.127  24.247  0.00  0.00    +0.194 C 
ATOM     48  C   UNL     1       7.319   4.558  25.657  0.00  0.00    +0.196 C 
ATOM     49  C   UNL     1       7.612   5.760  26.567  0.00  0.00    +0.253 C 
ATOM     50  O   UNL     1       7.859   6.908  25.712  0.00  0.00    -0.346 OA
BRANCH  49  51
ATOM     51  N   UNL     1       6.596   5.886  27.635  0.00  0.00    -0.286 N 
ATOM     52  C   UNL     1       5.333   6.369  27.317  0.00  0.00    +0.167 A 
ATOM     53  N   UNL     1       4.990   6.893  26.128  0.00  0.00    -0.216 NA
ATOM     54  C   UNL     1       3.667   7.108  26.043  0.00  0.00    +0.225 A 
ATOM     55  N   UNL     1       2.714   6.818  26.923  0.00  0.00    -0.219 NA
ATOM     56  C   UNL     1       3.055   6.125  28.012  0.00  0.00    +0.147 A 
ATOM     57  N   UNL     1       2.000   5.242  28.288  0.00  0.00    -0.341 N 
ATOM     58  H   UNL     1       2.238   4.284  28.571  0.00  0.00    +0.144 HD
ATOM     59  H   UNL     1       1.175   5.243  27.708  0.00  0.00    +0.144 HD
ATOM     60  C   UNL     1       4.483   6.048  28.365  0.00  0.00    +0.147 A 
ATOM     61  N   UNL     1       5.309   5.504  29.381  0.00  0.00    -0.231 NA
ATOM     62  C   UNL     1       6.552   5.423  28.907  0.00  0.00    +0.203 A 
ENDBRANCH  49  51
BRANCH  48  63
ATOM     63  O   UNL     1       8.252   3.498  25.797  0.00  0.00    -0.385 OA
ATOM     64  H   UNL     1       8.919   3.650  25.093  0.00  0.00    +0.210 HD
ENDBRANCH  48  63
BRANCH  47  65
ATOM     65  O   UNL     1       6.088   5.516  23.873  0.00  0.00    -0.278 OA
BRANCH  65  66
ATOM     66  P   UNL     1       5.184   4.313  23.019  0.00  0.00    +0.473 P 
ATOM     67  O   UNL     1       4.374   3.237  22.256  0.00  0.00    -0.228 OA
BRANCH  66  68
ATOM     68  O   UNL     1       6.452   4.300  21.986  0.00  0.00    -0.303 OA
ATOM     69  H   UNL     1       7.278   4.041  22.425  0.00  0.00    +0.222 HD
ENDBRANCH  66  68
BRANCH  66  70
ATOM     70  O   UNL     1       4.392   5.580  22.357  0.00  0.00    -0.303 OA
ATOM     71  H   UNL     1       4.988   6.206  21.917  0.00  0.00    +0.222 HD
ENDBRANCH  66  70
ENDBRANCH  65  66
ENDBRANCH  47  65
ENDBRANCH  45  46
ENDBRANCH  44  45
ENDBRANCH  40  44
ENDBRANCH  39  40
ENDBRANCH   1  39
TORSDOF 29
ENDMDL
MODEL 4
REMARK VINA RESULT:      -5.0      2.042      3.670
REMARK  Name = 
REMARK  33 active torsions:
REMARK  status: ('A' for Active; 'I' for Inactive)
REMARK    1  A    between atoms: O_1  and  C_2
REMARK    2  A    between atoms: C_2  and  C_4
REMARK    3  A    between atoms: C_2  and  C_43
REMARK    4  A    between atoms: C_4  and  C_5
REMARK    5  A    between atoms: C_4  and  C_6
REMARK    6  A    between atoms: C_4  and  C_7
REMARK    7  A    between atoms: C_7  and  O_8
REMARK    8  A    between atoms: O_8  and  P_9
REMARK    9  A    between atoms: P_9  and  O_11
REMARK   10  A    between atoms: P_9  and  O_12
REMARK   11  A    between atoms: O_12  and  P_13
REMARK   12  A    between atoms: P_13  and  O_15
REMARK   13  A    between atoms: P_13  and  O_16
REMARK   14  A    between atoms: O_16  and  C_17
REMARK   15  A    between atoms: C_17  and  C_18
REMARK   16  A    between atoms: C_21  and  N_33
REMARK   17  A    between atoms: C_23  and  O_25
REMARK   18  A    between atoms: C_26  and  O_28
REMARK   19  A    between atoms: O_28  and  P_29
REMARK   20  A    between atoms: P_29  and  O_30
REMARK   21  A    between atoms: P_29  and  O_31
REMARK   22  A    between atoms: N_45  and  C_46
REMARK   23  A    between atoms: C_46  and  C_47
REMARK   24  A    between atoms: C_47  and  C_48
REMARK   25  A    between atoms: N_50  and  C_51
REMARK   26  A    between atoms: C_51  and  C_52
REMARK   27  A    between atoms: C_52  and  S_53
REMARK   28  A    between atoms: S_53  and  C_54
REMARK   29  A    between atoms: C_54  and  C_56
REMARK   30  A    between atoms: C_57  and  C_58
REMARK   31  A    between atoms: C_61  and  N_62
REMARK   32  A    between atoms: N_62  and  C_63
REMARK   33  A    between atoms: N_62  and  C_64
REMARK                            x       y       z     vdW  Elec       q    Type
REMARK                         _______ _______ _______ _____ _____    ______ ____
ROOT
ATOM      1  P   UNL     1       9.256  -1.654  22.631  0.00  0.00    +0.483 P 
ATOM      2  O   UNL     1      10.507  -1.496  23.449  0.00  0.00    -0.227 OA
ENDROOT
BRANCH   1   3
ATOM      3  O   UNL     1       9.440  -1.144  21.146  0.00  0.00    -0.302 OA
ATOM      4  H   UNL     1       9.039  -0.262  21.156  0.00  0.00    +0.222 HD
ENDBRANCH   1   3
BRANCH   1   5
ATOM      5  O   UNL     1       8.283  -0.413  22.936  0.00  0.00    -0.286 OA
BRANCH   5   6
ATOM      6  C   UNL     1       7.113  -0.104  23.642  0.00  0.00    +0.181 C 
BRANCH   6   7
ATOM      7  C   UNL     1       6.930   0.360  25.103  0.00  0.00    +0.024 C 
ATOM      8  C   UNL     1       7.827  -0.684  25.869  0.00  0.00    +0.016 C 
ATOM      9  C   UNL     1       7.618   1.717  25.303  0.00  0.00    +0.016 C 
BRANCH   7  10
ATOM     10  C   UNL     1       5.503   0.162  25.756  0.00  0.00    +0.208 C 
BRANCH  10  11
ATOM     11  C   UNL     1       5.184   0.363  27.259  0.00  0.00    +0.242 C 
ATOM     12  N   UNL     1       4.786   1.656  27.584  0.00  0.00    -0.313 N 
ATOM     13  H   UNL     1       4.915   2.331  26.833  0.00  0.00    +0.149 HD
ATOM     14  O   UNL     1       5.285  -0.538  28.081  0.00  0.00    -0.273 OA
BRANCH  12  15
ATOM     15  C   UNL     1       4.686   2.165  28.947  0.00  0.00    +0.113 C 
BRANCH  15  16
ATOM     16  C   UNL     1       5.189   3.570  29.080  0.00  0.00    +0.114 C 
BRANCH  16  17
ATOM     17  C   UNL     1       6.529   3.793  28.405  0.00  0.00    +0.215 C 
ATOM     18  N   UNL     1       6.700   5.134  27.634  0.00  0.00    -0.314 N 
ATOM     19  H   UNL     1       6.106   5.770  28.151  0.00  0.00    +0.149 HD
ATOM     20  O   UNL     1       7.385   2.933  28.695  0.00  0.00    -0.276 OA
BRANCH  18  21
ATOM     21  C   UNL     1       7.767   6.277  26.829  0.00  0.00    +0.115 C 
BRANCH  21  22
ATOM     22  C   UNL     1       9.064   6.211  25.705  0.00  0.00    +0.096 C 
BRANCH  22  23
ATOM     23  S   UNL     1       8.473   6.999  24.209  0.00  0.00    -0.082 S 
BRANCH  23  24
ATOM     24  C   UNL     1       8.470   5.531  23.383  0.00  0.00    +0.213 C 
ATOM     25  O   UNL     1       9.193   4.620  23.676  0.00  0.00    -0.280 OA
BRANCH  24  26
ATOM     26  C   UNL     1       7.497   5.486  22.297  0.00  0.00    +0.058 C 
ATOM     27  C   UNL     1       7.015   4.258  22.530  0.00  0.00    +0.012 C 
BRANCH  27  28
ATOM     28  C   UNL     1       5.672   4.181  23.067  0.00  0.00    -0.025 A 
ATOM     29  C   UNL     1       4.652   3.498  22.412  0.00  0.00    +0.010 A 
ATOM     30  C   UNL     1       3.343   3.371  22.965  0.00  0.00    +0.023 A 
ATOM     31  C   UNL     1       2.962   3.888  24.213  0.00  0.00    +0.029 A 
ATOM     32  C   UNL     1       4.110   4.459  24.815  0.00  0.00    +0.023 A 
ATOM     33  C   UNL     1       5.407   4.606  24.325  0.00  0.00    +0.010 A 
BRANCH  31  34
ATOM     34  N   UNL     1       1.631   3.799  24.684  0.00  0.00    -0.336 N 
ATOM     35  C   UNL     1       0.623   3.506  23.637  0.00  0.00    +0.129 C 
ATOM     36  C   UNL     1       0.796   3.543  25.940  0.00  0.00    +0.129 C 
ENDBRANCH  31  34
ENDBRANCH  27  28
ENDBRANCH  24  26
ENDBRANCH  23  24
ENDBRANCH  22  23
ENDBRANCH  21  22
ENDBRANCH  18  21
ENDBRANCH  16  17
ENDBRANCH  15  16
ENDBRANCH  12  15
ENDBRANCH  10  11
BRANCH  10  37
ATOM     37  O   UNL     1       4.547   0.966  25.028  0.00  0.00    -0.382 OA
ATOM     38  H   UNL     1       4.746   0.843  24.081  0.00  0.00    +0.210 HD
ENDBRANCH  10  37
ENDBRANCH   7  10
ENDBRANCH   6   7
ENDBRANCH   5   6
ENDBRANCH   1   5
BRANCH   1  39
ATOM     39  O   UNL     1       8.371  -3.046  22.925  0.00  0.00    -0.186 OA
BRANCH  39  40
ATOM     40  P   UNL     1       7.911  -4.598  23.539  0.00  0.00    +0.483 P 
ATOM     41  O   UNL     1       9.118  -4.843  24.479  0.00  0.00    -0.227 OA
BRANCH  40  42
ATOM     42  O   UNL     1       8.166  -6.009  22.792  0.00  0.00    -0.302 OA
ATOM     43  H   UNL     1       8.890  -5.883  22.142  0.00  0.00    +0.222 HD
ENDBRANCH  40  42
BRANCH  40  44
ATOM     44  O   UNL     1       6.564  -4.325  22.490  0.00  0.00    -0.284 OA
BRANCH  44  45
ATOM     45  C   UNL     1       5.542  -5.294  22.333  0.00  0.00    +0.206 C 
BRANCH  45  46
ATOM     46  C   UNL     1       4.261  -4.943  23.141  0.00  0.00    +0.179 C 
ATOM     47  C   UNL     1       3.780  -6.155  23.878  0.00  0.00    +0.194 C 
ATOM     48  C   UNL     1       3.870  -5.872  25.371  0.00  0.00    +0.196 C 
ATOM     49  C   UNL     1       4.089  -4.355  25.461  0.00  0.00    +0.253 C 
ATOM     50  O   UNL     1       4.159  -3.840  24.104  0.00  0.00    -0.346 OA
BRANCH  49  51
ATOM     51  N   UNL     1       3.133  -3.728  26.401  0.00  0.00    -0.286 N 
ATOM     52  C   UNL     1       3.401  -3.762  27.763  0.00  0.00    +0.167 A 
ATOM     53  N   UNL     1       4.395  -4.466  28.332  0.00  0.00    -0.216 NA
ATOM     54  C   UNL     1       4.530  -4.169  29.634  0.00  0.00    +0.225 A 
ATOM     55  N   UNL     1       3.878  -3.267  30.360  0.00  0.00    -0.219 NA
ATOM     56  C   UNL     1       3.032  -2.448  29.730  0.00  0.00    +0.147 A 
ATOM     57  N   UNL     1       3.144  -1.189  30.340  0.00  0.00    -0.341 N 
ATOM     58  H   UNL     1       3.154  -0.361  29.732  0.00  0.00    +0.144 HD
ATOM     59  H   UNL     1       3.769  -1.059  31.121  0.00  0.00    +0.144 HD
ATOM     60  C   UNL     1       2.590  -2.818  28.375  0.00  0.00    +0.147 A 
ATOM     61  N   UNL     1       1.722  -2.338  27.362  0.00  0.00    -0.231 NA
ATOM     62  C   UNL     1       2.079  -2.900  26.207  0.00  0.00    +0.203 A 
ENDBRANCH  49  51
BRANCH  48  63
ATOM     63  O   UNL     1       4.916  -6.633  25.952  0.00  0.00    -0.385 OA
ATOM     64  H   UNL     1       4.510  -7.499  26.174  0.00  0.00    +0.210 HD
ENDBRANCH  48  63
BRANCH  47  65
ATOM     65  O   UNL     1       2.435  -6.103  23.498  0.00  0.00    -0.278 OA
BRANCH  65  66
ATOM     66  P   UNL     1       1.613  -7.625  23.523  0.00  0.00    +0.473 P 
ATOM     67  O   UNL     1       0.877  -8.987  23.545  0.00  0.00    -0.228 OA
BRANCH  66  68
ATOM     68  O   UNL     1       3.054  -8.231  24.006  0.00  0.00    -0.303 OA
ATOM     69  H   UNL     1       3.030  -9.197  24.104  0.00  0.00    +0.222 HD
ENDBRANCH  66  68
BRANCH  66  70
ATOM     70  O   UNL     1       1.907  -7.650  21.916  0.00  0.00    -0.303 OA
ATOM     71  H   UNL     1       1.671  -6.817  21.478  0.00  0.00    +0.222 HD
ENDBRANCH  66  70
ENDBRANCH  65  66
ENDBRANCH  47  65
ENDBRANCH  45  46
ENDBRANCH  44  45
ENDBRANCH  40  44
ENDBRANCH  39  40
ENDBRANCH   1  39
TORSDOF 29
ENDMDL
MODEL 5
REMARK VINA RESULT:      -4.9      3.035      8.128
REMARK  Name = 
REMARK  33 active torsions:
REMARK  status: ('A' for Active; 'I' for Inactive)
REMARK    1  A    between atoms: O_1  and  C_2
REMARK    2  A    between atoms: C_2  and  C_4
REMARK    3  A    between atoms: C_2  and  C_43
REMARK    4  A    between atoms: C_4  and  C_5
REMARK    5  A    between atoms: C_4  and  C_6
REMARK    6  A    between atoms: C_4  and  C_7
REMARK    7  A    between atoms: C_7  and  O_8
REMARK    8  A    between atoms: O_8  and  P_9
REMARK    9  A    between atoms: P_9  and  O_11
REMARK   10  A    between atoms: P_9  and  O_12
REMARK   11  A    between atoms: O_12  and  P_13
REMARK   12  A    between atoms: P_13  and  O_15
REMARK   13  A    between atoms: P_13  and  O_16
REMARK   14  A    between atoms: O_16  and  C_17
REMARK   15  A    between atoms: C_17  and  C_18
REMARK   16  A    between atoms: C_21  and  N_33
REMARK   17  A    between atoms: C_23  and  O_25
REMARK   18  A    between atoms: C_26  and  O_28
REMARK   19  A    between atoms: O_28  and  P_29
REMARK   20  A    between atoms: P_29  and  O_30
REMARK   21  A    between atoms: P_29  and  O_31
REMARK   22  A    between atoms: N_45  and  C_46
REMARK   23  A    between atoms: C_46  and  C_47
REMARK   24  A    between atoms: C_47  and  C_48
REMARK   25  A    between atoms: N_50  and  C_51
REMARK   26  A    between atoms: C_51  and  C_52
REMARK   27  A    between atoms: C_52  and  S_53
REMARK   28  A    between atoms: S_53  and  C_54
REMARK   29  A    between atoms: C_54  and  C_56
REMARK   30  A    between atoms: C_57  and  C_58
REMARK   31  A    between atoms: C_61  and  N_62
REMARK   32  A    between atoms: N_62  and  C_63
REMARK   33  A    between atoms: N_62  and  C_64
REMARK                            x       y       z     vdW  Elec       q    Type
REMARK                         _______ _______ _______ _____ _____    ______ ____
ROOT
ATOM      1  P   UNL     1       9.076  -1.429  22.666  0.00  0.00    +0.483 P 
ATOM      2  O   UNL     1       8.336  -0.327  21.962  0.00  0.00    -0.227 OA
ENDROOT
BRANCH   1   3
ATOM      3  O   UNL     1      10.404  -1.839  21.912  0.00  0.00    -0.302 OA
ATOM      4  H   UNL     1      10.991  -2.132  22.625  0.00  0.00    +0.222 HD
ENDBRANCH   1   3
BRANCH   1   5
ATOM      5  O   UNL     1       8.412  -2.834  22.260  0.00  0.00    -0.286 OA
BRANCH   5   6
ATOM      6  C   UNL     1       7.637  -3.864  22.811  0.00  0.00    +0.181 C 
BRANCH   6   7
ATOM      7  C   UNL     1       6.141  -4.190  22.619  0.00  0.00    +0.024 C 
ATOM      8  C   UNL     1       5.476  -3.177  23.627  0.00  0.00    +0.016 C 
ATOM      9  C   UNL     1       5.690  -3.736  21.225  0.00  0.00    +0.016 C 
BRANCH   7  10
ATOM     10  C   UNL     1       5.632  -5.598  23.129  0.00  0.00    +0.208 C 
BRANCH  10  11
ATOM     11  C   UNL     1       4.159  -5.931  23.479  0.00  0.00    +0.242 C 
ATOM     12  N   UNL     1       3.941  -6.173  24.832  0.00  0.00    -0.313 N 
ATOM     13  H   UNL     1       4.795  -6.261  25.381  0.00  0.00    +0.149 HD
ATOM     14  O   UNL     1       3.276  -5.983  22.634  0.00  0.00    -0.273 OA
BRANCH  12  15
ATOM     15  C   UNL     1       2.720  -6.756  25.374  0.00  0.00    +0.113 C 
BRANCH  15  16
ATOM     16  C   UNL     1       1.619  -5.751  25.534  0.00  0.00    +0.114 C 
BRANCH  16  17
ATOM     17  C   UNL     1       2.075  -4.463  26.192  0.00  0.00    +0.215 C 
ATOM     18  N   UNL     1       2.280  -4.508  27.733  0.00  0.00    -0.314 N 
ATOM     19  H   UNL     1       2.557  -5.468  27.897  0.00  0.00    +0.149 HD
ATOM     20  O   UNL     1       2.385  -3.568  25.379  0.00  0.00    -0.276 OA
BRANCH  18  21
ATOM     21  C   UNL     1       2.906  -3.743  29.188  0.00  0.00    +0.115 C 
BRANCH  21  22
ATOM     22  C   UNL     1       3.355  -2.161  29.684  0.00  0.00    +0.096 C 
BRANCH  22  23
ATOM     23  S   UNL     1       1.957  -1.103  29.317  0.00  0.00    -0.082 S 
BRANCH  23  24
ATOM     24  C   UNL     1       2.645  -0.627  27.855  0.00  0.00    +0.213 C 
ATOM     25  O   UNL     1       2.010  -0.523  26.842  0.00  0.00    -0.280 OA
BRANCH  24  26
ATOM     26  C   UNL     1       4.072  -0.345  27.957  0.00  0.00    +0.058 C 
ATOM     27  C   UNL     1       4.210   0.340  26.813  0.00  0.00    +0.012 C 
BRANCH  27  28
ATOM     28  C   UNL     1       4.429   1.766  26.935  0.00  0.00    -0.025 A 
ATOM     29  C   UNL     1       5.448   2.292  27.723  0.00  0.00    +0.010 A 
ATOM     30  C   UNL     1       5.705   3.693  27.801  0.00  0.00    +0.023 A 
ATOM     31  C   UNL     1       4.988   4.666  27.087  0.00  0.00    +0.029 A 
ATOM     32  C   UNL     1       4.061   3.995  26.252  0.00  0.00    +0.023 A 
ATOM     33  C   UNL     1       3.772   2.636  26.133  0.00  0.00    +0.010 A 
BRANCH  31  34
ATOM     34  N   UNL     1       5.233   6.049  27.256  0.00  0.00    -0.336 N 
ATOM     35  C   UNL     1       4.235   6.755  28.093  0.00  0.00    +0.129 C 
ATOM     36  C   UNL     1       6.336   7.108  27.200  0.00  0.00    +0.129 C 
ENDBRANCH  31  34
ENDBRANCH  27  28
ENDBRANCH  24  26
ENDBRANCH  23  24
ENDBRANCH  22  23
ENDBRANCH  21  22
ENDBRANCH  18  21
ENDBRANCH  16  17
ENDBRANCH  15  16
ENDBRANCH  12  15
ENDBRANCH  10  11
BRANCH  10  37
ATOM     37  O   UNL     1       6.064  -6.611  22.193  0.00  0.00    -0.382 OA
ATOM     38  H   UNL     1       5.271  -6.887  21.697  0.00  0.00    +0.210 HD
ENDBRANCH  10  37
ENDBRANCH   7  10
ENDBRANCH   6   7
ENDBRANCH   5   6
ENDBRANCH   1   5
BRANCH   1  39
ATOM     39  O   UNL     1       9.064  -1.354  24.340  0.00  0.00    -0.186 OA
BRANCH  39  40
ATOM     40  P   UNL     1       8.523  -1.449  25.982  0.00  0.00    +0.483 P 
ATOM     41  O   UNL     1       8.788  -2.956  26.227  0.00  0.00    -0.227 OA
BRANCH  40  42
ATOM     42  O   UNL     1       6.984  -1.611  26.450  0.00  0.00    -0.302 OA
ATOM     43  H   UNL     1       6.756  -2.565  26.419  0.00  0.00    +0.222 HD
ENDBRANCH  40  42
BRANCH  40  44
ATOM     44  O   UNL     1       8.228   0.233  25.709  0.00  0.00    -0.284 OA
BRANCH  44  45
ATOM     45  C   UNL     1       9.167   1.046  25.027  0.00  0.00    +0.206 C 
BRANCH  45  46
ATOM     46  C   UNL     1       8.672   2.509  24.854  0.00  0.00    +0.179 C 
ATOM     47  C   UNL     1       9.341   3.132  23.668  0.00  0.00    +0.194 C 
ATOM     48  C   UNL     1       8.273   3.463  22.636  0.00  0.00    +0.196 C 
ATOM     49  C   UNL     1       6.948   3.326  23.399  0.00  0.00    +0.253 C 
ATOM     50  O   UNL     1       7.263   2.906  24.754  0.00  0.00    -0.346 OA
BRANCH  49  51
ATOM     51  N   UNL     1       6.095   4.521  23.215  0.00  0.00    -0.286 N 
ATOM     52  C   UNL     1       4.783   4.360  22.788  0.00  0.00    +0.167 A 
ATOM     53  N   UNL     1       4.252   3.199  22.366  0.00  0.00    -0.216 NA
ATOM     54  C   UNL     1       2.924   3.297  22.190  0.00  0.00    +0.225 A 
ATOM     55  N   UNL     1       2.121   4.327  22.434  0.00  0.00    -0.219 NA
ATOM     56  C   UNL     1       2.641   5.401  23.033  0.00  0.00    +0.147 A 
ATOM     57  N   UNL     1       1.669   5.893  23.918  0.00  0.00    -0.341 N 
ATOM     58  H   UNL     1       1.980   6.206  24.845  0.00  0.00    +0.144 HD
ATOM     59  H   UNL     1       0.769   5.444  23.980  0.00  0.00    +0.144 HD
ATOM     60  C   UNL     1       4.107   5.542  23.048  0.00  0.00    +0.147 A 
ATOM     61  N   UNL     1       5.091   6.461  23.493  0.00  0.00    -0.231 NA
ATOM     62  C   UNL     1       6.254   5.816  23.580  0.00  0.00    +0.203 A 
ENDBRANCH  49  51
BRANCH  48  63
ATOM     63  O   UNL     1       8.380   2.589  21.523  0.00  0.00    -0.385 OA
ATOM     64  H   UNL     1       9.279   2.747  21.160  0.00  0.00    +0.210 HD
ENDBRANCH  48  63
BRANCH  47  65
ATOM     65  O   UNL     1       9.755   4.325  24.272  0.00  0.00    -0.278 OA
BRANCH  65  66
ATOM     66  P   UNL     1      11.293   4.914  23.740  0.00  0.00    +0.473 P 
ATOM     67  O   UNL     1      12.668   5.440  23.263  0.00  0.00    -0.228 OA
BRANCH  66  68
ATOM     68  O   UNL     1      10.419   6.024  22.915  0.00  0.00    -0.303 OA
ATOM     69  H   UNL     1      10.394   5.836  21.963  0.00  0.00    +0.222 HD
ENDBRANCH  66  68
BRANCH  66  70
ATOM     70  O   UNL     1      11.207   3.718  22.628  0.00  0.00    -0.303 OA
ATOM     71  H   UNL     1      10.625   3.939  21.884  0.00  0.00    +0.222 HD
ENDBRANCH  66  70
ENDBRANCH  65  66
ENDBRANCH  47  65
ENDBRANCH  45  46
ENDBRANCH  44  45
ENDBRANCH  40  44
ENDBRANCH  39  40
ENDBRANCH   1  39
TORSDOF 29
ENDMDL
MODEL 6
REMARK VINA RESULT:      -4.6      4.217      9.120
REMARK  Name = 
REMARK  33 active torsions:
REMARK  status: ('A' for Active; 'I' for Inactive)
REMARK    1  A    between atoms: O_1  and  C_2
REMARK    2  A    between atoms: C_2  and  C_4
REMARK    3  A    between atoms: C_2  and  C_43
REMARK    4  A    between atoms: C_4  and  C_5
REMARK    5  A    between atoms: C_4  and  C_6
REMARK    6  A    between atoms: C_4  and  C_7
REMARK    7  A    between atoms: C_7  and  O_8
REMARK    8  A    between atoms: O_8  and  P_9
REMARK    9  A    between atoms: P_9  and  O_11
REMARK   10  A    between atoms: P_9  and  O_12
REMARK   11  A    between atoms: O_12  and  P_13
REMARK   12  A    between atoms: P_13  and  O_15
REMARK   13  A    between atoms: P_13  and  O_16
REMARK   14  A    between atoms: O_16  and  C_17
REMARK   15  A    between atoms: C_17  and  C_18
REMARK   16  A    between atoms: C_21  and  N_33
REMARK   17  A    between atoms: C_23  and  O_25
REMARK   18  A    between atoms: C_26  and  O_28
REMARK   19  A    between atoms: O_28  and  P_29
REMARK   20  A    between atoms: P_29  and  O_30
REMARK   21  A    between atoms: P_29  and  O_31
REMARK   22  A    between atoms: N_45  and  C_46
REMARK   23  A    between atoms: C_46  and  C_47
REMARK   24  A    between atoms: C_47  and  C_48
REMARK   25  A    between atoms: N_50  and  C_51
REMARK   26  A    between atoms: C_51  and  C_52
REMARK   27  A    between atoms: C_52  and  S_53
REMARK   28  A    between atoms: S_53  and  C_54
REMARK   29  A    between atoms: C_54  and  C_56
REMARK   30  A    between atoms: C_57  and  C_58
REMARK   31  A    between atoms: C_61  and  N_62
REMARK   32  A    between atoms: N_62  and  C_63
REMARK   33  A    between atoms: N_62  and  C_64
REMARK                            x       y       z     vdW  Elec       q    Type
REMARK                         _______ _______ _______ _____ _____    ______ ____
ROOT
ATOM      1  P   UNL     1       7.955   2.421  24.691  0.00  0.00    +0.483 P 
ATOM      2  O   UNL     1       7.706   2.264  23.217  0.00  0.00    -0.227 OA
ENDROOT
BRANCH   1   3
ATOM      3  O   UNL     1       9.150   1.517  25.197  0.00  0.00    -0.302 OA
ATOM      4  H   UNL     1       9.839   1.653  24.529  0.00  0.00    +0.222 HD
ENDBRANCH   1   3
BRANCH   1   5
ATOM      5  O   UNL     1       6.915   1.493  25.489  0.00  0.00    -0.286 OA
BRANCH   5   6
ATOM      6  C   UNL     1       6.039   1.543  26.582  0.00  0.00    +0.181 C 
BRANCH   6   7
ATOM      7  C   UNL     1       6.252   1.097  28.044  0.00  0.00    +0.024 C 
ATOM      8  C   UNL     1       7.452   0.089  27.885  0.00  0.00    +0.016 C 
ATOM      9  C   UNL     1       6.808   2.270  28.864  0.00  0.00    +0.016 C 
BRANCH   7  10
ATOM     10  C   UNL     1       5.120   0.215  28.708  0.00  0.00    +0.208 C 
BRANCH  10  11
ATOM     11  C   UNL     1       3.716   0.734  29.108  0.00  0.00    +0.242 C 
ATOM     12  N   UNL     1       2.825  -0.270  29.475  0.00  0.00    -0.313 N 
ATOM     13  H   UNL     1       3.158  -1.212  29.277  0.00  0.00    +0.149 HD
ATOM     14  O   UNL     1       3.422   1.922  29.090  0.00  0.00    -0.273 OA
BRANCH  12  15
ATOM     15  C   UNL     1       1.390  -0.074  29.638  0.00  0.00    +0.113 C 
BRANCH  15  16
ATOM     16  C   UNL     1       0.584  -0.817  28.617  0.00  0.00    +0.114 C 
BRANCH  16  17
ATOM     17  C   UNL     1       1.412  -1.769  27.776  0.00  0.00    +0.215 C 
ATOM     18  N   UNL     1       1.290  -3.282  28.120  0.00  0.00    -0.314 N 
ATOM     19  H   UNL     1       0.342  -3.359  28.467  0.00  0.00    +0.149 HD
ATOM     20  O   UNL     1       1.967  -1.222  26.801  0.00  0.00    -0.276 OA
BRANCH  18  21
ATOM     21  C   UNL     1       1.605  -4.953  27.674  0.00  0.00    +0.115 C 
BRANCH  21  22
ATOM     22  C   UNL     1       2.978  -5.967  27.481  0.00  0.00    +0.096 C 
BRANCH  22  23
ATOM     23  S   UNL     1       4.407  -4.952  27.849  0.00  0.00    -0.082 S 
BRANCH  23  24
ATOM     24  C   UNL     1       5.234  -5.551  26.509  0.00  0.00    +0.213 C 
ATOM     25  O   UNL     1       6.136  -6.336  26.601  0.00  0.00    -0.280 OA
BRANCH  24  26
ATOM     26  C   UNL     1       4.730  -5.029  25.244  0.00  0.00    +0.058 C 
ATOM     27  C   UNL     1       4.894  -3.724  25.503  0.00  0.00    +0.012 C 
BRANCH  27  28
ATOM     28  C   UNL     1       5.956  -3.051  24.783  0.00  0.00    -0.025 A 
ATOM     29  C   UNL     1       5.815  -2.661  23.455  0.00  0.00    +0.010 A 
ATOM     30  C   UNL     1       6.835  -1.946  22.759  0.00  0.00    +0.023 A 
ATOM     31  C   UNL     1       8.051  -1.548  23.336  0.00  0.00    +0.029 A 
ATOM     32  C   UNL     1       8.021  -1.911  24.705  0.00  0.00    +0.023 A 
ATOM     33  C   UNL     1       7.053  -2.602  25.434  0.00  0.00    +0.010 A 
BRANCH  31  34
ATOM     34  N   UNL     1       9.062  -0.907  22.582  0.00  0.00    -0.336 N 
ATOM     35  C   UNL     1      10.394  -1.551  22.659  0.00  0.00    +0.129 C 
ATOM     36  C   UNL     1       9.287   0.037  21.398  0.00  0.00    +0.129 C 
ENDBRANCH  31  34
ENDBRANCH  27  28
ENDBRANCH  24  26
ENDBRANCH  23  24
ENDBRANCH  22  23
ENDBRANCH  21  22
ENDBRANCH  18  21
ENDBRANCH  16  17
ENDBRANCH  15  16
ENDBRANCH  12  15
ENDBRANCH  10  11
BRANCH  10  37
ATOM     37  O   UNL     1       4.900  -0.951  27.881  0.00  0.00    -0.382 OA
ATOM     38  H   UNL     1       3.964  -0.925  27.610  0.00  0.00    +0.210 HD
ENDBRANCH  10  37
ENDBRANCH   7  10
ENDBRANCH   6   7
ENDBRANCH   5   6
ENDBRANCH   1   5
BRANCH   1  39
ATOM     39  O   UNL     1       7.780   3.974  25.293  0.00  0.00    -0.186 OA
BRANCH  39  40
ATOM     40  P   UNL     1       7.752   5.703  25.388  0.00  0.00    +0.483 P 
ATOM     41  O   UNL     1       9.017   5.908  26.258  0.00  0.00    -0.227 OA
BRANCH  40  42
ATOM     42  O   UNL     1       6.861   6.566  26.425  0.00  0.00    -0.302 OA
ATOM     43  H   UNL     1       7.388   6.700  27.241  0.00  0.00    +0.222 HD
ENDBRANCH  40  42
BRANCH  40  44
ATOM     44  O   UNL     1       6.340   5.474  24.417  0.00  0.00    -0.284 OA
BRANCH  44  45
ATOM     45  C   UNL     1       5.074   5.222  25.002  0.00  0.00    +0.206 C 
BRANCH  45  46
ATOM     46  C   UNL     1       4.173   4.325  24.108  0.00  0.00    +0.179 C 
ATOM     47  C   UNL     1       2.745   4.449  24.543  0.00  0.00    +0.194 C 
ATOM     48  C   UNL     1       1.950   5.061  23.400  0.00  0.00    +0.196 C 
ATOM     49  C   UNL     1       2.887   4.966  22.187  0.00  0.00    +0.253 C 
ATOM     50  O   UNL     1       4.136   4.379  22.643  0.00  0.00    -0.346 OA
BRANCH  49  51
ATOM     51  N   UNL     1       2.205   4.352  21.026  0.00  0.00    -0.286 N 
ATOM     52  C   UNL     1       1.917   5.137  19.917  0.00  0.00    +0.167 A 
ATOM     53  N   UNL     1       2.063   6.472  19.863  0.00  0.00    -0.216 NA
ATOM     54  C   UNL     1       1.884   6.940  18.617  0.00  0.00    +0.225 A 
ATOM     55  N   UNL     1       1.658   6.267  17.494  0.00  0.00    -0.219 NA
ATOM     56  C   UNL     1       1.709   4.933  17.540  0.00  0.00    +0.147 A 
ATOM     57  N   UNL     1       2.298   4.499  16.343  0.00  0.00    -0.341 N 
ATOM     58  H   UNL     1       2.984   3.737  16.396  0.00  0.00    +0.144 HD
ATOM     59  H   UNL     1       2.569   5.170  15.641  0.00  0.00    +0.144 HD
ATOM     60  C   UNL     1       1.635   4.284  18.861  0.00  0.00    +0.147 A 
ATOM     61  N   UNL     1       1.608   2.978  19.413  0.00  0.00    -0.231 NA
ATOM     62  C   UNL     1       1.954   3.063  20.697  0.00  0.00    +0.203 A 
ENDBRANCH  49  51
BRANCH  48  63
ATOM     63  O   UNL     1       1.570   6.389  23.722  0.00  0.00    -0.385 OA
ATOM     64  H   UNL     1       1.130   6.733  22.915  0.00  0.00    +0.210 HD
ENDBRANCH  48  63
BRANCH  47  65
ATOM     65  O   UNL     1       2.437   3.086  24.617  0.00  0.00    -0.278 OA
BRANCH  65  66
ATOM     66  P   UNL     1       1.409   2.644  25.938  0.00  0.00    +0.473 P 
ATOM     67  O   UNL     1       0.490   2.249  27.119  0.00  0.00    -0.228 OA
BRANCH  66  68
ATOM     68  O   UNL     1       2.514   1.469  26.215  0.00  0.00    -0.303 OA
ATOM     69  H   UNL     1       3.273   1.794  26.726  0.00  0.00    +0.222 HD
ENDBRANCH  66  68
BRANCH  66  70
ATOM     70  O   UNL     1       0.539   1.845  24.808  0.00  0.00    -0.303 OA
ATOM     71  H   UNL     1       0.826   0.926  24.694  0.00  0.00    +0.222 HD
ENDBRANCH  66  70
ENDBRANCH  65  66
ENDBRANCH  47  65
ENDBRANCH  45  46
ENDBRANCH  44  45
ENDBRANCH  40  44
ENDBRANCH  39  40
ENDBRANCH   1  39
TORSDOF 29
ENDMDL
MODEL 7
REMARK VINA RESULT:      -4.5      4.167      9.194
REMARK  Name = 
REMARK  33 active torsions:
REMARK  status: ('A' for Active; 'I' for Inactive)
REMARK    1  A    between atoms: O_1  and  C_2
REMARK    2  A    between atoms: C_2  and  C_4
REMARK    3  A    between atoms: C_2  and  C_43
REMARK    4  A    between atoms: C_4  and  C_5
REMARK    5  A    between atoms: C_4  and  C_6
REMARK    6  A    between atoms: C_4  and  C_7
REMARK    7  A    between atoms: C_7  and  O_8
REMARK    8  A    between atoms: O_8  and  P_9
REMARK    9  A    between atoms: P_9  and  O_11
REMARK   10  A    between atoms: P_9  and  O_12
REMARK   11  A    between atoms: O_12  and  P_13
REMARK   12  A    between atoms: P_13  and  O_15
REMARK   13  A    between atoms: P_13  and  O_16
REMARK   14  A    between atoms: O_16  and  C_17
REMARK   15  A    between atoms: C_17  and  C_18
REMARK   16  A    between atoms: C_21  and  N_33
REMARK   17  A    between atoms: C_23  and  O_25
REMARK   18  A    between atoms: C_26  and  O_28
REMARK   19  A    between atoms: O_28  and  P_29
REMARK   20  A    between atoms: P_29  and  O_30
REMARK   21  A    between atoms: P_29  and  O_31
REMARK   22  A    between atoms: N_45  and  C_46
REMARK   23  A    between atoms: C_46  and  C_47
REMARK   24  A    between atoms: C_47  and  C_48
REMARK   25  A    between atoms: N_50  and  C_51
REMARK   26  A    between atoms: C_51  and  C_52
REMARK   27  A    between atoms: C_52  and  S_53
REMARK   28  A    between atoms: S_53  and  C_54
REMARK   29  A    between atoms: C_54  and  C_56
REMARK   30  A    between atoms: C_57  and  C_58
REMARK   31  A    between atoms: C_61  and  N_62
REMARK   32  A    between atoms: N_62  and  C_63
REMARK   33  A    between atoms: N_62  and  C_64
REMARK                            x       y       z     vdW  Elec       q    Type
REMARK                         _______ _______ _______ _____ _____    ______ ____
ROOT
ATOM      1  P   UNL     1       9.554   2.184  24.140  0.00  0.00    +0.483 P 
ATOM      2  O   UNL     1      10.721   2.447  23.230  0.00  0.00    -0.227 OA
ENDROOT
BRANCH   1   3
ATOM      3  O   UNL     1       9.880   1.091  25.235  0.00  0.00    -0.302 OA
ATOM      4  H   UNL     1       9.766   1.565  26.072  0.00  0.00    +0.222 HD
ENDBRANCH   1   3
BRANCH   1   5
ATOM      5  O   UNL     1       8.557   1.156  23.412  0.00  0.00    -0.286 OA
BRANCH   5   6
ATOM      6  C   UNL     1       7.373   0.445  23.650  0.00  0.00    +0.181 C 
BRANCH   6   7
ATOM      7  C   UNL     1       7.165  -0.954  24.270  0.00  0.00    +0.024 C 
ATOM      8  C   UNL     1       6.230  -1.628  23.196  0.00  0.00    +0.016 C 
ATOM      9  C   UNL     1       8.481  -1.741  24.219  0.00  0.00    +0.016 C 
BRANCH   7  10
ATOM     10  C   UNL     1       6.313  -1.040  25.599  0.00  0.00    +0.208 C 
BRANCH  10  11
ATOM     11  C   UNL     1       6.525  -0.140  26.843  0.00  0.00    +0.242 C 
ATOM     12  N   UNL     1       5.643  -0.403  27.887  0.00  0.00    -0.313 N 
ATOM     13  H   UNL     1       4.880  -1.030  27.638  0.00  0.00    +0.149 HD
ATOM     14  O   UNL     1       7.386   0.728  26.891  0.00  0.00    -0.273 OA
BRANCH  12  15
ATOM     15  C   UNL     1       5.463   0.462  29.046  0.00  0.00    +0.113 C 
BRANCH  15  16
ATOM     16  C   UNL     1       4.020   0.671  29.395  0.00  0.00    +0.114 C 
BRANCH  16  17
ATOM     17  C   UNL     1       3.120  -0.452  28.917  0.00  0.00    +0.215 C 
ATOM     18  N   UNL     1       2.508  -1.365  30.018  0.00  0.00    -0.314 N 
ATOM     19  H   UNL     1       2.422  -0.739  30.809  0.00  0.00    +0.149 HD
ATOM     20  O   UNL     1       2.855  -0.396  27.699  0.00  0.00    -0.276 OA
BRANCH  18  21
ATOM     21  C   UNL     1       1.345  -2.606  30.465  0.00  0.00    +0.115 C 
BRANCH  21  22
ATOM     22  C   UNL     1       0.932  -4.189  29.943  0.00  0.00    +0.096 C 
BRANCH  22  23
ATOM     23  S   UNL     1       2.479  -5.059  29.702  0.00  0.00    -0.082 S 
BRANCH  23  24
ATOM     24  C   UNL     1       2.167  -5.252  28.058  0.00  0.00    +0.213 C 
ATOM     25  O   UNL     1       1.804  -6.293  27.584  0.00  0.00    -0.280 OA
BRANCH  24  26
ATOM     26  C   UNL     1       2.369  -4.030  27.289  0.00  0.00    +0.058 C 
ATOM     27  C   UNL     1       3.710  -4.028  27.293  0.00  0.00    +0.012 C 
BRANCH  27  28
ATOM     28  C   UNL     1       4.361  -4.332  26.036  0.00  0.00    -0.025 A 
ATOM     29  C   UNL     1       5.713  -4.653  25.963  0.00  0.00    +0.010 A 
ATOM     30  C   UNL     1       6.346  -5.010  24.735  0.00  0.00    +0.023 A 
ATOM     31  C   UNL     1       5.680  -5.099  23.503  0.00  0.00    +0.029 A 
ATOM     32  C   UNL     1       4.304  -4.855  23.735  0.00  0.00    +0.023 A 
ATOM     33  C   UNL     1       3.634  -4.508  24.908  0.00  0.00    +0.010 A 
BRANCH  31  34
ATOM     34  N   UNL     1       6.368  -5.385  22.300  0.00  0.00    -0.336 N 
ATOM     35  C   UNL     1       7.682  -6.047  22.482  0.00  0.00    +0.129 C 
ATOM     36  C   UNL     1       6.162  -5.603  20.799  0.00  0.00    +0.129 C 
ENDBRANCH  31  34
ENDBRANCH  27  28
ENDBRANCH  24  26
ENDBRANCH  23  24
ENDBRANCH  22  23
ENDBRANCH  21  22
ENDBRANCH  18  21
ENDBRANCH  16  17
ENDBRANCH  15  16
ENDBRANCH  12  15
ENDBRANCH  10  11
BRANCH  10  37
ATOM     37  O   UNL     1       4.913  -0.936  25.258  0.00  0.00    -0.382 OA
ATOM     38  H   UNL     1       4.417  -1.339  25.994  0.00  0.00    +0.210 HD
ENDBRANCH  10  37
ENDBRANCH   7  10
ENDBRANCH   6   7
ENDBRANCH   5   6
ENDBRANCH   1   5
BRANCH   1  39
ATOM     39  O   UNL     1       8.645   3.527  24.556  0.00  0.00    -0.186 OA
BRANCH  39  40
ATOM     40  P   UNL     1       8.117   5.171  24.702  0.00  0.00    +0.483 P 
ATOM     41  O   UNL     1       9.416   5.780  25.286  0.00  0.00    -0.227 OA
BRANCH  40  42
ATOM     42  O   UNL     1       7.248   5.766  25.928  0.00  0.00    -0.302 OA
ATOM     43  H   UNL     1       7.082   5.038  26.565  0.00  0.00    +0.222 HD
ENDBRANCH  40  42
BRANCH  40  44
ATOM     44  O   UNL     1       6.668   4.490  24.049  0.00  0.00    -0.284 OA
BRANCH  44  45
ATOM     45  C   UNL     1       5.555   4.194  24.875  0.00  0.00    +0.206 C 
BRANCH  45  46
ATOM     46  C   UNL     1       4.376   3.564  24.081  0.00  0.00    +0.179 C 
ATOM     47  C   UNL     1       3.081   4.156  24.544  0.00  0.00    +0.194 C 
ATOM     48  C   UNL     1       2.455   4.906  23.377  0.00  0.00    +0.196 C 
ATOM     49  C   UNL     1       3.254   4.442  22.151  0.00  0.00    +0.253 C 
ATOM     50  O   UNL     1       4.282   3.528  22.617  0.00  0.00    -0.346 OA
BRANCH  49  51
ATOM     51  N   UNL     1       2.358   3.994  21.062  0.00  0.00    -0.286 N 
ATOM     52  C   UNL     1       2.065   4.867  20.022  0.00  0.00    +0.167 A 
ATOM     53  N   UNL     1       2.405   6.167  19.994  0.00  0.00    -0.216 NA
ATOM     54  C   UNL     1       2.157   6.719  18.795  0.00  0.00    +0.225 A 
ATOM     55  N   UNL     1       1.703   6.143  17.686  0.00  0.00    -0.219 NA
ATOM     56  C   UNL     1       1.556   4.816  17.683  0.00  0.00    +0.147 A 
ATOM     57  N   UNL     1       1.930   4.361  16.409  0.00  0.00    -0.341 N 
ATOM     58  H   UNL     1       2.494   3.505  16.353  0.00  0.00    +0.144 HD
ATOM     59  H   UNL     1       2.217   5.019  15.701  0.00  0.00    +0.144 HD
ATOM     60  C   UNL     1       1.537   4.119  18.981  0.00  0.00    +0.147 A 
ATOM     61  N   UNL     1       1.377   2.805  19.490  0.00  0.00    -0.231 NA
ATOM     62  C   UNL     1       1.878   2.774  20.724  0.00  0.00    +0.203 A 
ENDBRANCH  49  51
BRANCH  48  63
ATOM     63  O   UNL     1       2.522   6.306  23.602  0.00  0.00    -0.385 OA
ATOM     64  H   UNL     1       1.645   6.547  23.973  0.00  0.00    +0.210 HD
ENDBRANCH  48  63
BRANCH  47  65
ATOM     65  O   UNL     1       2.370   2.966  24.736  0.00  0.00    -0.278 OA
BRANCH  65  66
ATOM     66  P   UNL     1       1.698   2.767  26.318  0.00  0.00    +0.473 P 
ATOM     67  O   UNL     1       1.096   2.589  27.733  0.00  0.00    -0.228 OA
BRANCH  66  68
ATOM     68  O   UNL     1       3.194   2.250  26.730  0.00  0.00    -0.303 OA
ATOM     69  H   UNL     1       3.312   1.301  26.563  0.00  0.00    +0.222 HD
ENDBRANCH  66  68
BRANCH  66  70
ATOM     70  O   UNL     1       1.138   1.342  25.746  0.00  0.00    -0.303 OA
ATOM     71  H   UNL     1       0.224   1.163  26.015  0.00  0.00    +0.222 HD
ENDBRANCH  66  70
ENDBRANCH  65  66
ENDBRANCH  47  65
ENDBRANCH  45  46
ENDBRANCH  44  45
ENDBRANCH  40  44
ENDBRANCH  39  40
ENDBRANCH   1  39
TORSDOF 29
ENDMDL
MODEL 8
REMARK VINA RESULT:      -4.5      3.014      8.461
REMARK  Name = 
REMARK  33 active torsions:
REMARK  status: ('A' for Active; 'I' for Inactive)
REMARK    1  A    between atoms: O_1  and  C_2
REMARK    2  A    between atoms: C_2  and  C_4
REMARK    3  A    between atoms: C_2  and  C_43
REMARK    4  A    between atoms: C_4  and  C_5
REMARK    5  A    between atoms: C_4  and  C_6
REMARK    6  A    between atoms: C_4  and  C_7
REMARK    7  A    between atoms: C_7  and  O_8
REMARK    8  A    between atoms: O_8  and  P_9
REMARK    9  A    between atoms: P_9  and  O_11
REMARK   10  A    between atoms: P_9  and  O_12
REMARK   11  A    between atoms: O_12  and  P_13
REMARK   12  A    between atoms: P_13  and  O_15
REMARK   13  A    between atoms: P_13  and  O_16
REMARK   14  A    between atoms: O_16  and  C_17
REMARK   15  A    between atoms: C_17  and  C_18
REMARK   16  A    between atoms: C_21  and  N_33
REMARK   17  A    between atoms: C_23  and  O_25
REMARK   18  A    between atoms: C_26  and  O_28
REMARK   19  A    between atoms: O_28  and  P_29
REMARK   20  A    between atoms: P_29  and  O_30
REMARK   21  A    between atoms: P_29  and  O_31
REMARK   22  A    between atoms: N_45  and  C_46
REMARK   23  A    between atoms: C_46  and  C_47
REMARK   24  A    between atoms: C_47  and  C_48
REMARK   25  A    between atoms: N_50  and  C_51
REMARK   26  A    between atoms: C_51  and  C_52
REMARK   27  A    between atoms: C_52  and  S_53
REMARK   28  A    between atoms: S_53  and  C_54
REMARK   29  A    between atoms: C_54  and  C_56
REMARK   30  A    between atoms: C_57  and  C_58
REMARK   31  A    between atoms: C_61  and  N_62
REMARK   32  A    between atoms: N_62  and  C_63
REMARK   33  A    between atoms: N_62  and  C_64
REMARK                            x       y       z     vdW  Elec       q    Type
REMARK                         _______ _______ _______ _____ _____    ______ ____
ROOT
ATOM      1  P   UNL     1       9.286  -1.487  22.723  0.00  0.00    +0.483 P 
ATOM      2  O   UNL     1       8.411  -2.317  21.824  0.00  0.00    -0.227 OA
ENDROOT
BRANCH   1   3
ATOM      3  O   UNL     1      10.809  -1.902  22.628  0.00  0.00    -0.302 OA
ATOM      4  H   UNL     1      10.853  -2.728  23.134  0.00  0.00    +0.222 HD
ENDBRANCH   1   3
BRANCH   1   5
ATOM      5  O   UNL     1       9.214  -2.091  24.209  0.00  0.00    -0.286 OA
BRANCH   5   6
ATOM      6  C   UNL     1       8.985  -3.304  24.874  0.00  0.00    +0.181 C 
BRANCH   6   7
ATOM      7  C   UNL     1       7.657  -4.012  25.215  0.00  0.00    +0.024 C 
ATOM      8  C   UNL     1       7.739  -5.279  24.283  0.00  0.00    +0.016 C 
ATOM      9  C   UNL     1       7.716  -4.554  26.650  0.00  0.00    +0.016 C 
BRANCH   7  10
ATOM     10  C   UNL     1       6.318  -3.308  24.756  0.00  0.00    +0.208 C 
BRANCH  10  11
ATOM     11  C   UNL     1       5.804  -1.950  25.298  0.00  0.00    +0.242 C 
ATOM     12  N   UNL     1       6.813  -1.096  25.732  0.00  0.00    -0.313 N 
ATOM     13  H   UNL     1       7.731  -1.533  25.789  0.00  0.00    +0.149 HD
ATOM     14  O   UNL     1       4.614  -1.666  25.346  0.00  0.00    -0.273 OA
BRANCH  12  15
ATOM     15  C   UNL     1       6.584   0.112  26.515  0.00  0.00    +0.113 C 
BRANCH  15  16
ATOM     16  C   UNL     1       7.526   0.239  27.674  0.00  0.00    +0.114 C 
BRANCH  16  17
ATOM     17  C   UNL     1       7.057   1.231  28.721  0.00  0.00    +0.215 C 
ATOM     18  N   UNL     1       5.671   1.894  28.474  0.00  0.00    -0.314 N 
ATOM     19  H   UNL     1       5.165   1.179  27.966  0.00  0.00    +0.149 HD
ATOM     20  O   UNL     1       7.779   1.265  29.738  0.00  0.00    -0.276 OA
BRANCH  18  21
ATOM     21  C   UNL     1       4.333   2.853  29.094  0.00  0.00    +0.115 C 
BRANCH  21  22
ATOM     22  C   UNL     1       2.765   3.313  28.567  0.00  0.00    +0.096 C 
BRANCH  22  23
ATOM     23  S   UNL     1       2.938   3.819  26.857  0.00  0.00    -0.082 S 
BRANCH  23  24
ATOM     24  C   UNL     1       1.814   2.669  26.356  0.00  0.00    +0.213 C 
ATOM     25  O   UNL     1       1.635   2.396  25.202  0.00  0.00    -0.280 OA
BRANCH  24  26
ATOM     26  C   UNL     1       1.103   2.042  27.464  0.00  0.00    +0.058 C 
ATOM     27  C   UNL     1       0.668   0.953  26.814  0.00  0.00    +0.012 C 
BRANCH  27  28
ATOM     28  C   UNL     1       1.298  -0.303  27.163  0.00  0.00    -0.025 A 
ATOM     29  C   UNL     1       2.416  -0.365  27.988  0.00  0.00    +0.010 A 
ATOM     30  C   UNL     1       3.005  -1.603  28.382  0.00  0.00    +0.023 A 
ATOM     31  C   UNL     1       2.514  -2.863  28.006  0.00  0.00    +0.029 A 
ATOM     32  C   UNL     1       1.324  -2.661  27.264  0.00  0.00    +0.023 A 
ATOM     33  C   UNL     1       0.705  -1.480  26.856  0.00  0.00    +0.010 A 
BRANCH  31  34
ATOM     34  N   UNL     1       3.178  -4.061  28.362  0.00  0.00    -0.336 N 
ATOM     35  C   UNL     1       4.623  -3.904  28.650  0.00  0.00    +0.129 C 
ATOM     36  C   UNL     1       2.942  -5.467  28.919  0.00  0.00    +0.129 C 
ENDBRANCH  31  34
ENDBRANCH  27  28
ENDBRANCH  24  26
ENDBRANCH  23  24
ENDBRANCH  22  23
ENDBRANCH  21  22
ENDBRANCH  18  21
ENDBRANCH  16  17
ENDBRANCH  15  16
ENDBRANCH  12  15
ENDBRANCH  10  11
BRANCH  10  37
ATOM     37  O   UNL     1       6.330  -3.190  23.315  0.00  0.00    -0.382 OA
ATOM     38  H   UNL     1       7.255  -3.018  23.059  0.00  0.00    +0.210 HD
ENDBRANCH  10  37
ENDBRANCH   7  10
ENDBRANCH   6   7
ENDBRANCH   5   6
ENDBRANCH   1   5
BRANCH   1  39
ATOM     39  O   UNL     1       8.874   0.132  22.838  0.00  0.00    -0.186 OA
BRANCH  39  40
ATOM     40  P   UNL     1       8.406   1.741  22.400  0.00  0.00    +0.483 P 
ATOM     41  O   UNL     1       8.316   1.548  20.866  0.00  0.00    -0.227 OA
BRANCH  40  42
ATOM     42  O   UNL     1       9.419   2.989  22.215  0.00  0.00    -0.302 OA
ATOM     43  H   UNL     1       8.882   3.794  22.051  0.00  0.00    +0.222 HD
ENDBRANCH  40  42
BRANCH  40  44
ATOM     44  O   UNL     1       8.508   1.957  24.113  0.00  0.00    -0.284 OA
BRANCH  44  45
ATOM     45  C   UNL     1       8.972   3.171  24.678  0.00  0.00    +0.206 C 
BRANCH  45  46
ATOM     46  C   UNL     1       7.841   4.227  24.832  0.00  0.00    +0.179 C 
ATOM     47  C   UNL     1       8.325   5.560  24.351  0.00  0.00    +0.194 C 
ATOM     48  C   UNL     1       7.487   5.966  23.147  0.00  0.00    +0.196 C 
ATOM     49  C   UNL     1       6.298   4.995  23.164  0.00  0.00    +0.253 C 
ATOM     50  O   UNL     1       6.489   4.085  24.280  0.00  0.00    -0.346 OA
BRANCH  49  51
ATOM     51  N   UNL     1       5.011   5.719  23.061  0.00  0.00    -0.286 N 
ATOM     52  C   UNL     1       3.884   5.040  22.615  0.00  0.00    +0.167 A 
ATOM     53  N   UNL     1       3.890   3.795  22.108  0.00  0.00    -0.216 NA
ATOM     54  C   UNL     1       2.645   3.326  21.931  0.00  0.00    +0.225 A 
ATOM     55  N   UNL     1       1.484   3.893  22.243  0.00  0.00    -0.219 NA
ATOM     56  C   UNL     1       1.510   5.044  22.921  0.00  0.00    +0.147 A 
ATOM     57  N   UNL     1       0.443   5.012  23.832  0.00  0.00    -0.341 N 
ATOM     58  H   UNL     1       0.613   5.364  24.781  0.00  0.00    +0.144 HD
ATOM     59  H   UNL     1      -0.177   4.216  23.857  0.00  0.00    +0.144 HD
ATOM     60  C   UNL     1       2.774   5.798  22.954  0.00  0.00    +0.147 A 
ATOM     61  N   UNL     1       3.281   7.018  23.470  0.00  0.00    -0.231 NA
ATOM     62  C   UNL     1       4.610   6.929  23.518  0.00  0.00    +0.203 A 
ENDBRANCH  49  51
BRANCH  48  63
ATOM     63  O   UNL     1       8.264   5.892  21.962  0.00  0.00    -0.385 OA
ATOM     64  H   UNL     1       9.183   5.729  22.268  0.00  0.00    +0.210 HD
ENDBRANCH  48  63
BRANCH  47  65
ATOM     65  O   UNL     1       7.923   6.330  25.448  0.00  0.00    -0.278 OA
BRANCH  65  66
ATOM     66  P   UNL     1       7.599   5.428  26.889  0.00  0.00    +0.473 P 
ATOM     67  O   UNL     1       7.310   4.622  28.178  0.00  0.00    -0.228 OA
BRANCH  66  68
ATOM     68  O   UNL     1       6.305   6.417  27.043  0.00  0.00    -0.303 OA
ATOM     69  H   UNL     1       5.466   5.945  26.916  0.00  0.00    +0.222 HD
ENDBRANCH  66  68
BRANCH  66  70
ATOM     70  O   UNL     1       8.697   6.418  27.586  0.00  0.00    -0.303 OA
ATOM     71  H   UNL     1       9.351   6.757  26.954  0.00  0.00    +0.222 HD
ENDBRANCH  66  70
ENDBRANCH  65  66
ENDBRANCH  47  65
ENDBRANCH  45  46
ENDBRANCH  44  45
ENDBRANCH  40  44
ENDBRANCH  39  40
ENDBRANCH   1  39
TORSDOF 29
ENDMDL
MODEL 9
REMARK VINA RESULT:      -4.4      3.240      9.014
REMARK  Name = 
REMARK  33 active torsions:
REMARK  status: ('A' for Active; 'I' for Inactive)
REMARK    1  A    between atoms: O_1  and  C_2
REMARK    2  A    between atoms: C_2  and  C_4
REMARK    3  A    between atoms: C_2  and  C_43
REMARK    4  A    between atoms: C_4  and  C_5
REMARK    5  A    between atoms: C_4  and  C_6
REMARK    6  A    between atoms: C_4  and  C_7
REMARK    7  A    between atoms: C_7  and  O_8
REMARK    8  A    between atoms: O_8  and  P_9
REMARK    9  A    between atoms: P_9  and  O_11
REMARK   10  A    between atoms: P_9  and  O_12
REMARK   11  A    between atoms: O_12  and  P_13
REMARK   12  A    between atoms: P_13  and  O_15
REMARK   13  A    between atoms: P_13  and  O_16
REMARK   14  A    between atoms: O_16  and  C_17
REMARK   15  A    between atoms: C_17  and  C_18
REMARK   16  A    between atoms: C_21  and  N_33
REMARK   17  A    between atoms: C_23  and  O_25
REMARK   18  A    between atoms: C_26  and  O_28
REMARK   19  A    between atoms: O_28  and  P_29
REMARK   20  A    between atoms: P_29  and  O_30
REMARK   21  A    between atoms: P_29  and  O_31
REMARK   22  A    between atoms: N_45  and  C_46
REMARK   23  A    between atoms: C_46  and  C_47
REMARK   24  A    between atoms: C_47  and  C_48
REMARK   25  A    between atoms: N_50  and  C_51
REMARK   26  A    between atoms: C_51  and  C_52
REMARK   27  A    between atoms: C_52  and  S_53
REMARK   28  A    between atoms: S_53  and  C_54
REMARK   29  A    between atoms: C_54  and  C_56
REMARK   30  A    between atoms: C_57  and  C_58
REMARK   31  A    between atoms: C_61  and  N_62
REMARK   32  A    between atoms: N_62  and  C_63
REMARK   33  A    between atoms: N_62  and  C_64
REMARK                            x       y       z     vdW  Elec       q    Type
REMARK                         _______ _______ _______ _____ _____    ______ ____
ROOT
ATOM      1  P   UNL     1       9.438  -1.903  22.849  0.00  0.00    +0.483 P 
ATOM      2  O   UNL     1       8.777  -2.986  22.043  0.00  0.00    -0.227 OA
ENDROOT
BRANCH   1   3
ATOM      3  O   UNL     1      10.996  -2.133  23.000  0.00  0.00    -0.302 OA
ATOM      4  H   UNL     1      11.058  -3.007  23.415  0.00  0.00    +0.222 HD
ENDBRANCH   1   3
BRANCH   1   5
ATOM      5  O   UNL     1       9.239  -2.229  24.409  0.00  0.00    -0.286 OA
BRANCH   5   6
ATOM      6  C   UNL     1       8.256  -2.668  25.305  0.00  0.00    +0.181 C 
BRANCH   6   7
ATOM      7  C   UNL     1       7.214  -1.859  26.107  0.00  0.00    +0.024 C 
ATOM      8  C   UNL     1       6.644  -2.967  27.072  0.00  0.00    +0.016 C 
ATOM      9  C   UNL     1       7.932  -0.853  27.017  0.00  0.00    +0.016 C 
BRANCH   7  10
ATOM     10  C   UNL     1       5.930  -1.356  25.333  0.00  0.00    +0.208 C 
BRANCH  10  11
ATOM     11  C   UNL     1       4.834  -0.443  25.939  0.00  0.00    +0.242 C 
ATOM     12  N   UNL     1       5.160   0.909  25.934  0.00  0.00    -0.313 N 
ATOM     13  H   UNL     1       6.129   1.102  25.689  0.00  0.00    +0.149 HD
ATOM     14  O   UNL     1       3.784  -0.883  26.388  0.00  0.00    -0.273 OA
BRANCH  12  15
ATOM     15  C   UNL     1       4.428   1.931  26.673  0.00  0.00    +0.113 C 
BRANCH  15  16
ATOM     16  C   UNL     1       4.969   2.148  28.054  0.00  0.00    +0.114 C 
BRANCH  16  17
ATOM     17  C   UNL     1       3.973   1.810  29.147  0.00  0.00    +0.215 C 
ATOM     18  N   UNL     1       3.176   0.485  28.971  0.00  0.00    -0.314 N 
ATOM     19  H   UNL     1       3.824  -0.103  28.462  0.00  0.00    +0.149 HD
ATOM     20  O   UNL     1       4.040   2.567  30.136  0.00  0.00    -0.276 OA
BRANCH  18  21
ATOM     21  C   UNL     1       2.119  -0.735  29.669  0.00  0.00    +0.115 C 
BRANCH  21  22
ATOM     22  C   UNL     1       2.272  -2.334  30.276  0.00  0.00    +0.096 C 
BRANCH  22  23
ATOM     23  S   UNL     1       3.787  -2.992  29.583  0.00  0.00    -0.082 S 
BRANCH  23  24
ATOM     24  C   UNL     1       3.062  -4.485  29.299  0.00  0.00    +0.213 C 
ATOM     25  O   UNL     1       1.881  -4.665  29.412  0.00  0.00    -0.280 OA
BRANCH  24  26
ATOM     26  C   UNL     1       4.011  -5.515  28.894  0.00  0.00    +0.058 C 
ATOM     27  C   UNL     1       3.354  -5.959  27.813  0.00  0.00    +0.012 C 
BRANCH  27  28
ATOM     28  C   UNL     1       3.929  -5.628  26.525  0.00  0.00    -0.025 A 
ATOM     29  C   UNL     1       3.472  -4.556  25.766  0.00  0.00    +0.010 A 
ATOM     30  C   UNL     1       4.074  -4.191  24.525  0.00  0.00    +0.023 A 
ATOM     31  C   UNL     1       5.181  -4.845  23.964  0.00  0.00    +0.029 A 
ATOM     32  C   UNL     1       5.609  -5.838  24.880  0.00  0.00    +0.023 A 
ATOM     33  C   UNL     1       5.064  -6.232  26.102  0.00  0.00    +0.010 A 
BRANCH  31  34
ATOM     34  N   UNL     1       5.695  -4.491  22.694  0.00  0.00    -0.336 N 
ATOM     35  C   UNL     1       6.192  -5.632  21.889  0.00  0.00    +0.129 C 
ATOM     36  C   UNL     1       5.647  -3.403  21.619  0.00  0.00    +0.129 C 
ENDBRANCH  31  34
ENDBRANCH  27  28
ENDBRANCH  24  26
ENDBRANCH  23  24
ENDBRANCH  22  23
ENDBRANCH  21  22
ENDBRANCH  18  21
ENDBRANCH  16  17
ENDBRANCH  15  16
ENDBRANCH  12  15
ENDBRANCH  10  11
BRANCH  10  37
ATOM     37  O   UNL     1       6.352  -0.722  24.104  0.00  0.00    -0.382 OA
ATOM     38  H   UNL     1       5.582  -0.226  23.770  0.00  0.00    +0.210 HD
ENDBRANCH  10  37
ENDBRANCH   7  10
ENDBRANCH   6   7
ENDBRANCH   5   6
ENDBRANCH   1   5
BRANCH   1  39
ATOM     39  O   UNL     1       8.850  -0.354  22.600  0.00  0.00    -0.186 OA
BRANCH  39  40
ATOM     40  P   UNL     1       8.301   1.084  21.807  0.00  0.00    +0.483 P 
ATOM     41  O   UNL     1       8.699   0.717  20.356  0.00  0.00    -0.227 OA
BRANCH  40  42
ATOM     42  O   UNL     1       9.125   2.472  21.716  0.00  0.00    -0.302 OA
ATOM     43  H   UNL     1       8.935   2.993  22.525  0.00  0.00    +0.222 HD
ENDBRANCH  40  42
BRANCH  40  44
ATOM     44  O   UNL     1       7.856   1.494  23.427  0.00  0.00    -0.284 OA
BRANCH  44  45
ATOM     45  C   UNL     1       8.782   2.090  24.318  0.00  0.00    +0.206 C 
BRANCH  45  46
ATOM     46  C   UNL     1       8.286   3.458  24.865  0.00  0.00    +0.179 C 
ATOM     47  C   UNL     1       8.568   4.536  23.864  0.00  0.00    +0.194 C 
ATOM     48  C   UNL     1       7.240   5.112  23.395  0.00  0.00    +0.196 C 
ATOM     49  C   UNL     1       6.213   4.574  24.402  0.00  0.00    +0.253 C 
ATOM     50  O   UNL     1       6.923   3.721  25.340  0.00  0.00    -0.346 OA
BRANCH  49  51
ATOM     51  N   UNL     1       5.368   5.662  24.942  0.00  0.00    -0.286 N 
ATOM     52  C   UNL     1       4.268   6.094  24.212  0.00  0.00    +0.167 A 
ATOM     53  N   UNL     1       3.985   5.711  22.955  0.00  0.00    -0.216 NA
ATOM     54  C   UNL     1       2.773   6.140  22.567  0.00  0.00    +0.225 A 
ATOM     55  N   UNL     1       1.856   6.800  23.266  0.00  0.00    -0.219 NA
ATOM     56  C   UNL     1       2.081   7.000  24.567  0.00  0.00    +0.147 A 
ATOM     57  N   UNL     1       0.849   6.869  25.226  0.00  0.00    -0.341 N 
ATOM     58  H   UNL     1       0.833   6.358  26.116  0.00  0.00    +0.144 HD
ATOM     59  H   UNL     1       0.011   6.682  24.697  0.00  0.00    +0.144 HD
ATOM     60  C   UNL     1       3.456   6.823  25.066  0.00  0.00    +0.147 A 
ATOM     61  N   UNL     1       4.180   6.946  26.279  0.00  0.00    -0.231 NA
ATOM     62  C   UNL     1       5.306   6.242  26.164  0.00  0.00    +0.203 A 
ENDBRANCH  49  51
BRANCH  48  63
ATOM     63  O   UNL     1       6.982   4.721  22.056  0.00  0.00    -0.385 OA
ATOM     64  H   UNL     1       6.006   4.769  21.959  0.00  0.00    +0.210 HD
ENDBRANCH  48  63
BRANCH  47  65
ATOM     65  O   UNL     1       9.172   5.460  24.724  0.00  0.00    -0.278 OA
BRANCH  65  66
ATOM     66  P   UNL     1      10.855   5.733  24.433  0.00  0.00    +0.473 P 
ATOM     67  O   UNL     1      12.361   5.977  24.172  0.00  0.00    -0.228 OA
BRANCH  66  68
ATOM     68  O   UNL     1      10.632   7.108  25.291  0.00  0.00    -0.303 OA
ATOM     69  H   UNL     1      11.446   7.401  25.731  0.00  0.00    +0.222 HD
ENDBRANCH  66  68
BRANCH  66  70
ATOM     70  O   UNL     1      10.365   6.313  22.985  0.00  0.00    -0.303 OA
ATOM     71  H   UNL     1       9.455   6.059  22.769  0.00  0.00    +0.222 HD
ENDBRANCH  66  70
ENDBRANCH  65  66
ENDBRANCH  47  65
ENDBRANCH  45  46
ENDBRANCH  44  45
ENDBRANCH  40  44
ENDBRANCH  39  40
ENDBRANCH   1  39
TORSDOF 29
ENDMDL
