MODEL 1
REMARK VINA RESULT:      -5.9      0.000      0.000
REMARK  Name = 
REMARK  9 active torsions:
REMARK  status: ('A' for Active; 'I' for Inactive)
REMARK    1  A    between atoms: C_2  and  N_3
REMARK    2  A    between atoms: C_2  and  O_4
REMARK    3  A    between atoms: C_2  and  C_5
REMARK    4  A    between atoms: C_5  and  C_6
REMARK    5  A    between atoms: C_6  and  C_7
REMARK    6  A    between atoms: C_7  and  N_9
REMARK    7  A    between atoms: C_7  and  C_10
REMARK    8  A    between atoms: C_10  and  C_11
REMARK    9  A    between atoms: C_14  and  O_15
REMARK                            x       y       z     vdW  Elec       q    Type
REMARK                         _______ _______ _______ _____ _____    ______ ____
ROOT
ATOM      1  C   UNL     1       9.523   3.349  23.324  0.00  0.00    +0.055 C 
ENDROOT
BRANCH   1   2
ATOM      2  N   UNL     1       8.288   3.905  22.749  0.00  0.00    -0.327 NA
ATOM      3  H   UNL     1       8.537   4.677  22.125  0.00  0.00    +0.118 HD
ATOM      4  H   UNL     1       7.848   3.209  22.151  0.00  0.00    +0.118 HD
ENDBRANCH   1   2
BRANCH   1   5
ATOM      5  C   UNL     1      10.502   4.485  23.668  0.00  0.00    +0.022 C 
BRANCH   5   6
ATOM      6  C   UNL     1      11.960   4.158  23.316  0.00  0.00    +0.049 C 
BRANCH   6   7
ATOM      7  C   UNL     1      12.815   5.420  23.250  0.00  0.00    +0.180 C 
BRANCH   7   8
ATOM      8  N   UNL     1      12.699   6.199  24.459  0.00  0.00    -0.306 NA
ATOM      9  H   UNL     1      13.514   6.012  25.047  0.00  0.00    +0.121 HD
ATOM     10  H   UNL     1      12.766   7.189  24.229  0.00  0.00    +0.121 HD
ENDBRANCH   7   8
BRANCH   7  11
ATOM     11  O   UNL     1      14.164   5.054  23.141  0.00  0.00    -0.378 OA
ATOM     12  H   UNL     1      14.183   4.493  22.343  0.00  0.00    +0.211 HD
ENDBRANCH   7  11
ENDBRANCH   6   7
ENDBRANCH   5   6
ENDBRANCH   1   5
BRANCH   1  13
ATOM     13  C   UNL     1      10.204   2.354  22.355  0.00  0.00    +0.053 C 
BRANCH  13  14
ATOM     14  C   UNL     1      10.074   0.902  22.763  0.00  0.00    -0.046 A 
ATOM     15  C   UNL     1       9.883  -0.099  21.794  0.00  0.00    +0.007 A 
ATOM     16  C   UNL     1       9.804  -1.437  22.180  0.00  0.00    +0.045 A 
ATOM     17  C   UNL     1       9.907  -1.779  23.521  0.00  0.00    +0.117 A 
ATOM     18  C   UNL     1      10.073  -0.802  24.494  0.00  0.00    +0.045 A 
ATOM     19  C   UNL     1      10.157   0.537  24.111  0.00  0.00    +0.007 A 
BRANCH  17  20
ATOM     20  O   UNL     1       9.836  -3.101  23.847  0.00  0.00    -0.507 OA
ATOM     21  H   UNL     1       9.884  -3.184  24.812  0.00  0.00    +0.292 HD
ENDBRANCH  17  20
ENDBRANCH  13  14
ENDBRANCH   1  13
TORSDOF 9
ENDMDL
MODEL 2
REMARK VINA RESULT:      -5.7      4.316      7.592
REMARK  Name = 
REMARK  9 active torsions:
REMARK  status: ('A' for Active; 'I' for Inactive)
REMARK    1  A    between atoms: C_2  and  N_3
REMARK    2  A    between atoms: C_2  and  O_4
REMARK    3  A    between atoms: C_2  and  C_5
REMARK    4  A    between atoms: C_5  and  C_6
REMARK    5  A    between atoms: C_6  and  C_7
REMARK    6  A    between atoms: C_7  and  N_9
REMARK    7  A    between atoms: C_7  and  C_10
REMARK    8  A    between atoms: C_10  and  C_11
REMARK    9  A    between atoms: C_14  and  O_15
REMARK                            x       y       z     vdW  Elec       q    Type
REMARK                         _______ _______ _______ _____ _____    ______ ____
ROOT
ATOM      1  C   UNL     1       8.163  -3.486  23.705  0.00  0.00    +0.055 C 
ENDROOT
BRANCH   1   2
ATOM      2  N   UNL     1       7.006  -2.755  24.247  0.00  0.00    -0.327 NA
ATOM      3  H   UNL     1       6.673  -2.099  23.537  0.00  0.00    +0.118 HD
ATOM      4  H   UNL     1       6.236  -3.402  24.398  0.00  0.00    +0.118 HD
ENDBRANCH   1   2
BRANCH   1   5
ATOM      5  C   UNL     1       8.175  -4.928  24.244  0.00  0.00    +0.022 C 
BRANCH   5   6
ATOM      6  C   UNL     1       7.256  -5.131  25.456  0.00  0.00    +0.049 C 
BRANCH   6   7
ATOM      7  C   UNL     1       8.025  -5.010  26.768  0.00  0.00    +0.180 C 
BRANCH   7   8
ATOM      8  N   UNL     1       7.539  -5.948  27.752  0.00  0.00    -0.306 NA
ATOM      9  H   UNL     1       8.110  -5.861  28.595  0.00  0.00    +0.121 HD
ATOM     10  H   UNL     1       6.602  -5.673  28.044  0.00  0.00    +0.121 HD
ENDBRANCH   7   8
BRANCH   7  11
ATOM     11  O   UNL     1       9.370  -5.332  26.542  0.00  0.00    -0.378 OA
ATOM     12  H   UNL     1       9.712  -4.555  26.061  0.00  0.00    +0.211 HD
ENDBRANCH   7  11
ENDBRANCH   6   7
ENDBRANCH   5   6
ENDBRANCH   1   5
BRANCH   1  13
ATOM     13  C   UNL     1       9.496  -2.788  24.063  0.00  0.00    +0.053 C 
BRANCH  13  14
ATOM     14  C   UNL     1       9.694  -1.446  23.391  0.00  0.00    -0.046 A 
ATOM     15  C   UNL     1       9.374  -1.272  22.033  0.00  0.00    +0.007 A 
ATOM     16  C   UNL     1       9.525  -0.020  21.436  0.00  0.00    +0.045 A 
ATOM     17  C   UNL     1       9.997   1.051  22.182  0.00  0.00    +0.117 A 
ATOM     18  C   UNL     1      10.339   0.892  23.519  0.00  0.00    +0.045 A 
ATOM     19  C   UNL     1      10.186  -0.357  24.120  0.00  0.00    +0.007 A 
BRANCH  17  20
ATOM     20  O   UNL     1      10.115   2.257  21.557  0.00  0.00    -0.507 OA
ATOM     21  H   UNL     1       9.655   2.926  22.089  0.00  0.00    +0.292 HD
ENDBRANCH  17  20
ENDBRANCH  13  14
ENDBRANCH   1  13
TORSDOF 9
ENDMDL
MODEL 3
REMARK VINA RESULT:      -5.7      4.297      7.667
REMARK  Name = 
REMARK  9 active torsions:
REMARK  status: ('A' for Active; 'I' for Inactive)
REMARK    1  A    between atoms: C_2  and  N_3
REMARK    2  A    between atoms: C_2  and  O_4
REMARK    3  A    between atoms: C_2  and  C_5
REMARK    4  A    between atoms: C_5  and  C_6
REMARK    5  A    between atoms: C_6  and  C_7
REMARK    6  A    between atoms: C_7  and  N_9
REMARK    7  A    between atoms: C_7  and  C_10
REMARK    8  A    between atoms: C_10  and  C_11
REMARK    9  A    between atoms: C_14  and  O_15
REMARK                            x       y       z     vdW  Elec       q    Type
REMARK                         _______ _______ _______ _____ _____    ______ ____
ROOT
ATOM      1  C   UNL     1       8.269  -3.438  23.739  0.00  0.00    +0.055 C 
ENDROOT
BRANCH   1   2
ATOM      2  N   UNL     1       7.147  -2.686  24.324  0.00  0.00    -0.327 NA
ATOM      3  H   UNL     1       7.481  -1.757  24.592  0.00  0.00    +0.118 HD
ATOM      4  H   UNL     1       6.440  -2.522  23.611  0.00  0.00    +0.118 HD
ENDBRANCH   1   2
BRANCH   1   5
ATOM      5  C   UNL     1       8.314  -4.860  24.326  0.00  0.00    +0.022 C 
BRANCH   5   6
ATOM      6  C   UNL     1       7.321  -5.074  25.476  0.00  0.00    +0.049 C 
BRANCH   6   7
ATOM      7  C   UNL     1       8.011  -4.985  26.835  0.00  0.00    +0.180 C 
BRANCH   7   8
ATOM      8  N   UNL     1       7.556  -6.025  27.726  0.00  0.00    -0.306 NA
ATOM      9  H   UNL     1       8.211  -6.808  27.675  0.00  0.00    +0.121 HD
ATOM     10  H   UNL     1       7.619  -5.696  28.687  0.00  0.00    +0.121 HD
ENDBRANCH   7   8
BRANCH   7  11
ATOM     11  O   UNL     1       9.388  -5.184  26.662  0.00  0.00    -0.378 OA
ATOM     12  H   UNL     1       9.480  -5.316  25.701  0.00  0.00    +0.211 HD
ENDBRANCH   7  11
ENDBRANCH   6   7
ENDBRANCH   5   6
ENDBRANCH   1   5
BRANCH   1  13
ATOM     13  C   UNL     1       9.621  -2.731  23.991  0.00  0.00    +0.053 C 
BRANCH  13  14
ATOM     14  C   UNL     1       9.732  -1.359  23.360  0.00  0.00    -0.046 A 
ATOM     15  C   UNL     1      10.211  -0.266  24.104  0.00  0.00    +0.007 A 
ATOM     16  C   UNL     1      10.344   0.984  23.499  0.00  0.00    +0.045 A 
ATOM     17  C   UNL     1       9.997   1.150  22.165  0.00  0.00    +0.117 A 
ATOM     18  C   UNL     1       9.501   0.086  21.421  0.00  0.00    +0.045 A 
ATOM     19  C   UNL     1       9.371  -1.166  22.022  0.00  0.00    +0.007 A 
BRANCH  17  20
ATOM     20  O   UNL     1      10.157   2.387  21.617  0.00  0.00    -0.507 OA
ATOM     21  H   UNL     1      11.095   2.508  21.398  0.00  0.00    +0.292 HD
ENDBRANCH  17  20
ENDBRANCH  13  14
ENDBRANCH   1  13
TORSDOF 9
ENDMDL
MODEL 4
REMARK VINA RESULT:      -5.5      4.483      7.843
REMARK  Name = 
REMARK  9 active torsions:
REMARK  status: ('A' for Active; 'I' for Inactive)
REMARK    1  A    between atoms: C_2  and  N_3
REMARK    2  A    between atoms: C_2  and  O_4
REMARK    3  A    between atoms: C_2  and  C_5
REMARK    4  A    between atoms: C_5  and  C_6
REMARK    5  A    between atoms: C_6  and  C_7
REMARK    6  A    between atoms: C_7  and  N_9
REMARK    7  A    between atoms: C_7  and  C_10
REMARK    8  A    between atoms: C_10  and  C_11
REMARK    9  A    between atoms: C_14  and  O_15
REMARK                            x       y       z     vdW  Elec       q    Type
REMARK                         _______ _______ _______ _____ _____    ______ ____
ROOT
ATOM      1  C   UNL     1       8.537  -3.150  24.848  0.00  0.00    +0.055 C 
ENDROOT
BRANCH   1   2
ATOM      2  N   UNL     1       8.586  -2.633  26.226  0.00  0.00    -0.327 NA
ATOM      3  H   UNL     1       7.664  -2.263  26.469  0.00  0.00    +0.118 HD
ATOM      4  H   UNL     1       8.744  -3.403  26.872  0.00  0.00    +0.118 HD
ENDBRANCH   1   2
BRANCH   1   5
ATOM      5  C   UNL     1       8.301  -4.670  24.864  0.00  0.00    +0.022 C 
BRANCH   5   6
ATOM      6  C   UNL     1       6.859  -5.058  25.220  0.00  0.00    +0.049 C 
BRANCH   6   7
ATOM      7  C   UNL     1       6.723  -5.406  26.699  0.00  0.00    +0.180 C 
BRANCH   7   8
ATOM      8  N   UNL     1       8.000  -5.743  27.281  0.00  0.00    -0.306 NA
ATOM      9  H   UNL     1       7.842  -6.123  28.216  0.00  0.00    +0.121 HD
ATOM     10  H   UNL     1       8.417  -6.510  26.756  0.00  0.00    +0.121 HD
ENDBRANCH   7   8
BRANCH   7  11
ATOM     11  O   UNL     1       6.254  -4.281  27.393  0.00  0.00    -0.378 OA
ATOM     12  H   UNL     1       5.896  -4.657  28.218  0.00  0.00    +0.211 HD
ENDBRANCH   7  11
ENDBRANCH   6   7
ENDBRANCH   5   6
ENDBRANCH   1   5
BRANCH   1  13
ATOM     13  C   UNL     1       9.841  -2.836  24.077  0.00  0.00    +0.053 C 
BRANCH  13  14
ATOM     14  C   UNL     1       9.849  -1.485  23.395  0.00  0.00    -0.046 A 
ATOM     15  C   UNL     1      10.280  -0.338  24.085  0.00  0.00    +0.007 A 
ATOM     16  C   UNL     1      10.318   0.895  23.432  0.00  0.00    +0.045 A 
ATOM     17  C   UNL     1       9.926   0.989  22.104  0.00  0.00    +0.117 A 
ATOM     18  C   UNL     1       9.477  -0.130  21.413  0.00  0.00    +0.045 A 
ATOM     19  C   UNL     1       9.440  -1.364  22.062  0.00  0.00    +0.007 A 
BRANCH  17  20
ATOM     20  O   UNL     1       9.994   2.213  21.507  0.00  0.00    -0.507 OA
ATOM     21  H   UNL     1      10.178   2.878  22.189  0.00  0.00    +0.292 HD
ENDBRANCH  17  20
ENDBRANCH  13  14
ENDBRANCH   1  13
TORSDOF 9
ENDMDL
MODEL 5
REMARK VINA RESULT:      -5.4      4.517      7.919
REMARK  Name = 
REMARK  9 active torsions:
REMARK  status: ('A' for Active; 'I' for Inactive)
REMARK    1  A    between atoms: C_2  and  N_3
REMARK    2  A    between atoms: C_2  and  O_4
REMARK    3  A    between atoms: C_2  and  C_5
REMARK    4  A    between atoms: C_5  and  C_6
REMARK    5  A    between atoms: C_6  and  C_7
REMARK    6  A    between atoms: C_7  and  N_9
REMARK    7  A    between atoms: C_7  and  C_10
REMARK    8  A    between atoms: C_10  and  C_11
REMARK    9  A    between atoms: C_14  and  O_15
REMARK                            x       y       z     vdW  Elec       q    Type
REMARK                         _______ _______ _______ _____ _____    ______ ____
ROOT
ATOM      1  C   UNL     1       8.254  -3.306  24.431  0.00  0.00    +0.055 C 
ENDROOT
BRANCH   1   2
ATOM      2  N   UNL     1       8.130  -3.479  25.888  0.00  0.00    -0.327 NA
ATOM      3  H   UNL     1       7.683  -4.380  26.073  0.00  0.00    +0.118 HD
ATOM      4  H   UNL     1       9.057  -3.549  26.301  0.00  0.00    +0.118 HD
ENDBRANCH   1   2
BRANCH   1   5
ATOM      5  C   UNL     1       7.851  -4.605  23.711  0.00  0.00    +0.022 C 
BRANCH   5   6
ATOM      6  C   UNL     1       7.174  -4.363  22.355  0.00  0.00    +0.049 C 
BRANCH   6   7
ATOM      7  C   UNL     1       6.733  -5.673  21.708  0.00  0.00    +0.180 C 
BRANCH   7   8
ATOM      8  N   UNL     1       5.856  -6.421  22.577  0.00  0.00    -0.306 NA
ATOM      9  H   UNL     1       5.792  -5.933  23.473  0.00  0.00    +0.121 HD
ATOM     10  H   UNL     1       4.910  -6.397  22.201  0.00  0.00    +0.121 HD
ENDBRANCH   7   8
BRANCH   7  11
ATOM     11  O   UNL     1       5.998  -5.387  20.550  0.00  0.00    -0.378 OA
ATOM     12  H   UNL     1       5.117  -5.148  20.894  0.00  0.00    +0.211 HD
ENDBRANCH   7  11
ENDBRANCH   6   7
ENDBRANCH   5   6
ENDBRANCH   1   5
BRANCH   1  13
ATOM     13  C   UNL     1       9.694  -2.914  24.025  0.00  0.00    +0.053 C 
BRANCH  13  14
ATOM     14  C   UNL     1       9.804  -1.560  23.358  0.00  0.00    -0.046 A 
ATOM     15  C   UNL     1       9.453  -1.397  22.006  0.00  0.00    +0.007 A 
ATOM     16  C   UNL     1       9.523  -0.136  21.414  0.00  0.00    +0.045 A 
ATOM     17  C   UNL     1       9.944   0.957  22.159  0.00  0.00    +0.117 A 
ATOM     18  C   UNL     1      10.315   0.811  23.490  0.00  0.00    +0.045 A 
ATOM     19  C   UNL     1      10.243  -0.447  24.085  0.00  0.00    +0.007 A 
BRANCH  17  20
ATOM     20  O   UNL     1       9.983   2.171  21.539  0.00  0.00    -0.507 OA
ATOM     21  H   UNL     1      10.570   2.755  22.043  0.00  0.00    +0.292 HD
ENDBRANCH  17  20
ENDBRANCH  13  14
ENDBRANCH   1  13
TORSDOF 9
ENDMDL
MODEL 6
REMARK VINA RESULT:      -5.4      4.074      7.386
REMARK  Name = 
REMARK  9 active torsions:
REMARK  status: ('A' for Active; 'I' for Inactive)
REMARK    1  A    between atoms: C_2  and  N_3
REMARK    2  A    between atoms: C_2  and  O_4
REMARK    3  A    between atoms: C_2  and  C_5
REMARK    4  A    between atoms: C_5  and  C_6
REMARK    5  A    between atoms: C_6  and  C_7
REMARK    6  A    between atoms: C_7  and  N_9
REMARK    7  A    between atoms: C_7  and  C_10
REMARK    8  A    between atoms: C_10  and  C_11
REMARK    9  A    between atoms: C_14  and  O_15
REMARK                            x       y       z     vdW  Elec       q    Type
REMARK                         _______ _______ _______ _____ _____    ______ ____
ROOT
ATOM      1  C   UNL     1       9.326  -2.694  24.236  0.00  0.00    +0.055 C 
ENDROOT
BRANCH   1   2
ATOM      2  N   UNL     1       9.711  -4.093  24.481  0.00  0.00    -0.327 NA
ATOM      3  H   UNL     1       9.403  -4.661  23.688  0.00  0.00    +0.118 HD
ATOM      4  H   UNL     1      10.726  -4.170  24.488  0.00  0.00    +0.118 HD
ENDBRANCH   1   2
BRANCH   1   5
ATOM      5  C   UNL     1       7.823  -2.609  23.918  0.00  0.00    +0.022 C 
BRANCH   5   6
ATOM      6  C   UNL     1       7.476  -3.063  22.493  0.00  0.00    +0.049 C 
BRANCH   6   7
ATOM      7  C   UNL     1       6.646  -4.344  22.501  0.00  0.00    +0.180 C 
BRANCH   7   8
ATOM      8  N   UNL     1       5.963  -4.535  21.244  0.00  0.00    -0.306 NA
ATOM      9  H   UNL     1       5.571  -3.640  20.946  0.00  0.00    +0.121 HD
ATOM     10  H   UNL     1       6.644  -4.772  20.524  0.00  0.00    +0.121 HD
ENDBRANCH   7   8
BRANCH   7  11
ATOM     11  O   UNL     1       7.501  -5.442  22.661  0.00  0.00    -0.378 OA
ATOM     12  H   UNL     1       8.351  -5.123  22.303  0.00  0.00    +0.211 HD
ENDBRANCH   7  11
ENDBRANCH   6   7
ENDBRANCH   5   6
ENDBRANCH   1   5
BRANCH   1  13
ATOM     13  C   UNL     1      10.137  -2.076  23.072  0.00  0.00    +0.053 C 
BRANCH  13  14
ATOM     14  C   UNL     1      10.156  -0.563  23.064  0.00  0.00    -0.046 A 
ATOM     15  C   UNL     1      10.550   0.154  24.208  0.00  0.00    +0.007 A 
ATOM     16  C   UNL     1      10.600   1.548  24.174  0.00  0.00    +0.045 A 
ATOM     17  C   UNL     1      10.255   2.227  23.013  0.00  0.00    +0.117 A 
ATOM     18  C   UNL     1       9.842   1.536  21.881  0.00  0.00    +0.045 A 
ATOM     19  C   UNL     1       9.795   0.142  21.910  0.00  0.00    +0.007 A 
BRANCH  17  20
ATOM     20  O   UNL     1      10.333   3.588  23.027  0.00  0.00    -0.507 OA
ATOM     21  H   UNL     1      11.247   3.846  22.829  0.00  0.00    +0.292 HD
ENDBRANCH  17  20
ENDBRANCH  13  14
ENDBRANCH   1  13
TORSDOF 9
ENDMDL
MODEL 7
REMARK VINA RESULT:      -5.4      3.679      7.221
REMARK  Name = 
REMARK  9 active torsions:
REMARK  status: ('A' for Active; 'I' for Inactive)
REMARK    1  A    between atoms: C_2  and  N_3
REMARK    2  A    between atoms: C_2  and  O_4
REMARK    3  A    between atoms: C_2  and  C_5
REMARK    4  A    between atoms: C_5  and  C_6
REMARK    5  A    between atoms: C_6  and  C_7
REMARK    6  A    between atoms: C_7  and  N_9
REMARK    7  A    between atoms: C_7  and  C_10
REMARK    8  A    between atoms: C_10  and  C_11
REMARK    9  A    between atoms: C_14  and  O_15
REMARK                            x       y       z     vdW  Elec       q    Type
REMARK                         _______ _______ _______ _____ _____    ______ ____
ROOT
ATOM      1  C   UNL     1       8.938  -2.546  23.286  0.00  0.00    +0.055 C 
ENDROOT
BRANCH   1   2
ATOM      2  N   UNL     1       7.779  -1.640  23.342  0.00  0.00    -0.327 NA
ATOM      3  H   UNL     1       8.086  -0.701  23.076  0.00  0.00    +0.118 HD
ATOM      4  H   UNL     1       7.102  -1.911  22.632  0.00  0.00    +0.118 HD
ENDBRANCH   1   2
BRANCH   1   5
ATOM      5  C   UNL     1       9.275  -3.057  24.698  0.00  0.00    +0.022 C 
BRANCH   5   6
ATOM      6  C   UNL     1       8.218  -4.013  25.267  0.00  0.00    +0.049 C 
BRANCH   6   7
ATOM      7  C   UNL     1       8.776  -5.423  25.443  0.00  0.00    +0.180 C 
BRANCH   7   8
ATOM      8  N   UNL     1      10.218  -5.427  25.403  0.00  0.00    -0.306 NA
ATOM      9  H   UNL     1      10.533  -4.572  24.940  0.00  0.00    +0.121 HD
ATOM     10  H   UNL     1      10.582  -5.358  26.352  0.00  0.00    +0.121 HD
ENDBRANCH   7   8
BRANCH   7  11
ATOM     11  O   UNL     1       8.412  -5.904  26.708  0.00  0.00    -0.378 OA
ATOM     12  H   UNL     1       7.975  -6.754  26.511  0.00  0.00    +0.211 HD
ENDBRANCH   7  11
ENDBRANCH   6   7
ENDBRANCH   5   6
ENDBRANCH   1   5
BRANCH   1  13
ATOM     13  C   UNL     1      10.177  -1.849  22.679  0.00  0.00    +0.053 C 
BRANCH  13  14
ATOM     14  C   UNL     1      10.176  -0.342  22.826  0.00  0.00    -0.046 A 
ATOM     15  C   UNL     1      10.607   0.260  24.022  0.00  0.00    +0.007 A 
ATOM     16  C   UNL     1      10.638   1.650  24.131  0.00  0.00    +0.045 A 
ATOM     17  C   UNL     1      10.237   2.439  23.061  0.00  0.00    +0.117 A 
ATOM     18  C   UNL     1       9.788   1.861  21.880  0.00  0.00    +0.045 A 
ATOM     19  C   UNL     1       9.760   0.471  21.766  0.00  0.00    +0.007 A 
BRANCH  17  20
ATOM     20  O   UNL     1      10.298   3.792  23.212  0.00  0.00    -0.507 OA
ATOM     21  H   UNL     1       9.434   4.107  23.521  0.00  0.00    +0.292 HD
ENDBRANCH  17  20
ENDBRANCH  13  14
ENDBRANCH   1  13
TORSDOF 9
ENDMDL
MODEL 8
REMARK VINA RESULT:      -5.2      3.597      5.160
REMARK  Name = 
REMARK  9 active torsions:
REMARK  status: ('A' for Active; 'I' for Inactive)
REMARK    1  A    between atoms: C_2  and  N_3
REMARK    2  A    between atoms: C_2  and  O_4
REMARK    3  A    between atoms: C_2  and  C_5
REMARK    4  A    between atoms: C_5  and  C_6
REMARK    5  A    between atoms: C_6  and  C_7
REMARK    6  A    between atoms: C_7  and  N_9
REMARK    7  A    between atoms: C_7  and  C_10
REMARK    8  A    between atoms: C_10  and  C_11
REMARK    9  A    between atoms: C_14  and  O_15
REMARK                            x       y       z     vdW  Elec       q    Type
REMARK                         _______ _______ _______ _____ _____    ______ ____
ROOT
ATOM      1  C   UNL     1      10.010  -0.795  24.404  0.00  0.00    +0.055 C 
ENDROOT
BRANCH   1   2
ATOM      2  N   UNL     1       9.694   0.294  25.342  0.00  0.00    -0.327 NA
ATOM      3  H   UNL     1       9.144   1.001  24.849  0.00  0.00    +0.118 HD
ATOM      4  H   UNL     1       9.083  -0.057  26.076  0.00  0.00    +0.118 HD
ENDBRANCH   1   2
BRANCH   1   5
ATOM      5  C   UNL     1      10.595  -0.216  23.103  0.00  0.00    +0.022 C 
BRANCH   5   6
ATOM      6  C   UNL     1       9.548  -0.030  21.997  0.00  0.00    +0.049 C 
BRANCH   6   7
ATOM      7  C   UNL     1       9.090   1.423  21.899  0.00  0.00    +0.180 C 
BRANCH   7   8
ATOM      8  N   UNL     1      10.211   2.318  21.733  0.00  0.00    -0.306 NA
ATOM      9  H   UNL     1      11.071   1.765  21.732  0.00  0.00    +0.121 HD
ATOM     10  H   UNL     1      10.171   2.739  20.807  0.00  0.00    +0.121 HD
ENDBRANCH   7   8
BRANCH   7  11
ATOM     11  O   UNL     1       8.289   1.575  20.759  0.00  0.00    -0.378 OA
ATOM     12  H   UNL     1       8.936   1.618  20.031  0.00  0.00    +0.211 HD
ENDBRANCH   7  11
ENDBRANCH   6   7
ENDBRANCH   5   6
ENDBRANCH   1   5
BRANCH   1  13
ATOM     13  C   UNL     1       8.760  -1.644  24.077  0.00  0.00    +0.053 C 
BRANCH  13  14
ATOM     14  C   UNL     1       8.533  -2.805  25.022  0.00  0.00    -0.046 A 
ATOM     15  C   UNL     1       7.557  -2.724  26.031  0.00  0.00    +0.007 A 
ATOM     16  C   UNL     1       7.332  -3.815  26.871  0.00  0.00    +0.045 A 
ATOM     17  C   UNL     1       8.075  -4.977  26.714  0.00  0.00    +0.117 A 
ATOM     18  C   UNL     1       9.058  -5.066  25.736  0.00  0.00    +0.045 A 
ATOM     19  C   UNL     1       9.283  -3.979  24.892  0.00  0.00    +0.007 A 
BRANCH  17  20
ATOM     20  O   UNL     1       7.808  -6.019  27.551  0.00  0.00    -0.507 OA
ATOM     21  H   UNL     1       8.626  -6.262  28.012  0.00  0.00    +0.292 HD
ENDBRANCH  17  20
ENDBRANCH  13  14
ENDBRANCH   1  13
TORSDOF 9
ENDMDL
MODEL 9
REMARK VINA RESULT:      -5.1      4.980      7.566
REMARK  Name = 
REMARK  9 active torsions:
REMARK  status: ('A' for Active; 'I' for Inactive)
REMARK    1  A    between atoms: C_2  and  N_3
REMARK    2  A    between atoms: C_2  and  O_4
REMARK    3  A    between atoms: C_2  and  C_5
REMARK    4  A    between atoms: C_5  and  C_6
REMARK    5  A    between atoms: C_6  and  C_7
REMARK    6  A    between atoms: C_7  and  N_9
REMARK    7  A    between atoms: C_7  and  C_10
REMARK    8  A    between atoms: C_10  and  C_11
REMARK    9  A    between atoms: C_14  and  O_15
REMARK                            x       y       z     vdW  Elec       q    Type
REMARK                         _______ _______ _______ _____ _____    ______ ____
ROOT
ATOM      1  C   UNL     1       7.178  -3.809  22.342  0.00  0.00    +0.055 C 
ENDROOT
BRANCH   1   2
ATOM      2  N   UNL     1       5.961  -4.240  21.636  0.00  0.00    -0.327 NA
ATOM      3  H   UNL     1       5.433  -3.409  21.359  0.00  0.00    +0.118 HD
ATOM      4  H   UNL     1       6.218  -4.697  20.764  0.00  0.00    +0.118 HD
ENDBRANCH   1   2
BRANCH   1   5
ATOM      5  C   UNL     1       7.688  -4.941  23.252  0.00  0.00    +0.022 C 
BRANCH   5   6
ATOM      6  C   UNL     1       7.439  -4.680  24.743  0.00  0.00    +0.049 C 
BRANCH   6   7
ATOM      7  C   UNL     1       8.542  -5.284  25.608  0.00  0.00    +0.180 C 
BRANCH   7   8
ATOM      8  N   UNL     1       9.687  -5.661  24.814  0.00  0.00    -0.306 NA
ATOM      9  H   UNL     1       9.357  -6.159  23.984  0.00  0.00    +0.121 HD
ATOM     10  H   UNL     1      10.136  -4.822  24.451  0.00  0.00    +0.121 HD
ENDBRANCH   7   8
BRANCH   7  11
ATOM     11  O   UNL     1       8.991  -4.317  26.518  0.00  0.00    -0.378 OA
ATOM     12  H   UNL     1       9.022  -3.501  25.986  0.00  0.00    +0.211 HD
ENDBRANCH   7  11
ENDBRANCH   6   7
ENDBRANCH   5   6
ENDBRANCH   1   5
BRANCH   1  13
ATOM     13  C   UNL     1       6.926  -2.539  23.187  0.00  0.00    +0.053 C 
BRANCH  13  14
ATOM     14  C   UNL     1       7.699  -1.322  22.725  0.00  0.00    -0.046 A 
ATOM     15  C   UNL     1       8.910  -1.467  22.025  0.00  0.00    +0.007 A 
ATOM     16  C   UNL     1       9.592  -0.337  21.571  0.00  0.00    +0.045 A 
ATOM     17  C   UNL     1       9.078   0.928  21.816  0.00  0.00    +0.117 A 
ATOM     18  C   UNL     1       7.894   1.091  22.525  0.00  0.00    +0.045 A 
ATOM     19  C   UNL     1       7.208  -0.036  22.977  0.00  0.00    +0.007 A 
BRANCH  17  20
ATOM     20  O   UNL     1       9.775   1.999  21.341  0.00  0.00    -0.507 OA
ATOM     21  H   UNL     1       9.696   2.726  21.979  0.00  0.00    +0.292 HD
ENDBRANCH  17  20
ENDBRANCH  13  14
ENDBRANCH   1  13
TORSDOF 9
ENDMDL
