MODEL 1
REMARK VINA RESULT:      -6.4      0.000      0.000
REMARK  Name = 
REMARK  2 active torsions:
REMARK  status: ('A' for Active; 'I' for Inactive)
REMARK    1  A    between atoms: C_4  and  N_18
REMARK    2  A    between atoms: C_11  and  C_12
REMARK                            x       y       z     vdW  Elec       q    Type
REMARK                         _______ _______ _______ _____ _____    ______ ____
ROOT
ATOM      1  O   UNL     1      10.808  -1.872  22.043  0.00  0.00    -0.287 OA
ATOM      2  C   UNL     1       9.946  -1.531  22.844  0.00  0.00    +0.194 A 
ATOM      3  C   UNL     1       9.200  -0.276  22.709  0.00  0.00    +0.065 A 
ATOM      4  C   UNL     1       9.406   0.535  21.593  0.00  0.00    +0.015 A 
ATOM      5  C   UNL     1       8.722   1.737  21.494  0.00  0.00    +0.002 A 
ATOM      6  C   UNL     1       7.874   2.141  22.533  0.00  0.00    +0.012 A 
ATOM      7  C   UNL     1       7.652   1.347  23.682  0.00  0.00    +0.025 A 
ATOM      8  C   UNL     1       8.306   0.091  23.718  0.00  0.00    +0.148 A 
ATOM      9  O   UNL     1       8.015  -0.776  24.746  0.00  0.00    -0.440 OA
ATOM     10  C   UNL     1       8.676  -1.994  24.875  0.00  0.00    +0.193 A 
ATOM     11  C   UNL     1       9.619  -2.373  23.999  0.00  0.00    +0.114 A 
ENDROOT
BRANCH   7  12
ATOM     12  C   UNL     1       6.816   1.881  24.801  0.00  0.00    -0.014 A 
ATOM     13  C   UNL     1       5.422   1.675  24.851  0.00  0.00    +0.008 A 
ATOM     14  C   UNL     1       4.644   2.121  25.927  0.00  0.00    +0.001 A 
ATOM     15  C   UNL     1       5.245   2.758  27.005  0.00  0.00    +0.000 A 
ATOM     16  C   UNL     1       6.619   2.967  26.996  0.00  0.00    +0.001 A 
ATOM     17  C   UNL     1       7.389   2.548  25.902  0.00  0.00    +0.008 A 
ENDBRANCH   7  12
BRANCH  10  18
ATOM     18  N   UNL     1       8.246  -2.776  25.949  0.00  0.00    -0.297 N 
ATOM     19  C   UNL     1       8.948  -3.959  26.484  0.00  0.00    +0.136 C 
ATOM     20  C   UNL     1       7.951  -5.108  26.711  0.00  0.00    +0.179 C 
ATOM     21  O   UNL     1       6.875  -4.712  27.578  0.00  0.00    -0.377 OA
ATOM     22  C   UNL     1       6.172  -3.598  27.010  0.00  0.00    +0.179 C 
ATOM     23  C   UNL     1       7.100  -2.389  26.804  0.00  0.00    +0.136 C 
ENDBRANCH  10  18
TORSDOF 2
ENDMDL
MODEL 2
REMARK VINA RESULT:      -6.3      2.472      2.910
REMARK  Name = 
REMARK  2 active torsions:
REMARK  status: ('A' for Active; 'I' for Inactive)
REMARK    1  A    between atoms: C_4  and  N_18
REMARK    2  A    between atoms: C_11  and  C_12
REMARK                            x       y       z     vdW  Elec       q    Type
REMARK                         _______ _______ _______ _____ _____    ______ ____
ROOT
ATOM      1  O   UNL     1      10.682  -1.870  22.267  0.00  0.00    -0.287 OA
ATOM      2  C   UNL     1       9.531  -1.488  22.437  0.00  0.00    +0.194 A 
ATOM      3  C   UNL     1       9.163  -0.069  22.421  0.00  0.00    +0.065 A 
ATOM      4  C   UNL     1      10.129   0.892  22.122  0.00  0.00    +0.015 A 
ATOM      5  C   UNL     1       9.779   2.234  22.146  0.00  0.00    +0.002 A 
ATOM      6  C   UNL     1       8.479   2.606  22.512  0.00  0.00    +0.012 A 
ATOM      7  C   UNL     1       7.481   1.657  22.831  0.00  0.00    +0.025 A 
ATOM      8  C   UNL     1       7.848   0.293  22.724  0.00  0.00    +0.148 A 
ATOM      9  O   UNL     1       6.877  -0.667  22.888  0.00  0.00    -0.440 OA
ATOM     10  C   UNL     1       7.189  -2.024  22.864  0.00  0.00    +0.193 A 
ATOM     11  C   UNL     1       8.448  -2.448  22.676  0.00  0.00    +0.114 A 
ENDROOT
BRANCH   7  12
ATOM     12  C   UNL     1       6.143   2.121  23.313  0.00  0.00    -0.014 A 
ATOM     13  C   UNL     1       5.704   1.883  24.631  0.00  0.00    +0.008 A 
ATOM     14  C   UNL     1       4.479   2.368  25.104  0.00  0.00    +0.001 A 
ATOM     15  C   UNL     1       3.668   3.138  24.280  0.00  0.00    +0.000 A 
ATOM     16  C   UNL     1       4.074   3.403  22.978  0.00  0.00    +0.001 A 
ATOM     17  C   UNL     1       5.287   2.888  22.498  0.00  0.00    +0.008 A 
ENDBRANCH   7  12
BRANCH  10  18
ATOM     18  N   UNL     1       6.091  -2.874  23.012  0.00  0.00    -0.297 N 
ATOM     19  C   UNL     1       5.128  -2.847  24.131  0.00  0.00    +0.136 C 
ATOM     20  C   UNL     1       4.872  -4.273  24.643  0.00  0.00    +0.179 C 
ATOM     21  O   UNL     1       4.413  -5.139  23.591  0.00  0.00    -0.377 OA
ATOM     22  C   UNL     1       5.390  -5.195  22.541  0.00  0.00    +0.179 C 
ATOM     23  C   UNL     1       5.657  -3.803  21.943  0.00  0.00    +0.136 C 
ENDBRANCH  10  18
TORSDOF 2
ENDMDL
MODEL 3
REMARK VINA RESULT:      -6.1      2.295      5.139
REMARK  Name = 
REMARK  2 active torsions:
REMARK  status: ('A' for Active; 'I' for Inactive)
REMARK    1  A    between atoms: C_4  and  N_18
REMARK    2  A    between atoms: C_11  and  C_12
REMARK                            x       y       z     vdW  Elec       q    Type
REMARK                         _______ _______ _______ _____ _____    ______ ____
ROOT
ATOM      1  O   UNL     1       6.284   3.102  22.640  0.00  0.00    -0.287 OA
ATOM      2  C   UNL     1       6.460   2.017  23.180  0.00  0.00    +0.194 A 
ATOM      3  C   UNL     1       7.506   1.085  22.748  0.00  0.00    +0.065 A 
ATOM      4  C   UNL     1       8.395   1.461  21.741  0.00  0.00    +0.015 A 
ATOM      5  C   UNL     1       9.357   0.557  21.315  0.00  0.00    +0.002 A 
ATOM      6  C   UNL     1       9.393  -0.730  21.865  0.00  0.00    +0.012 A 
ATOM      7  C   UNL     1       8.499  -1.146  22.879  0.00  0.00    +0.025 A 
ATOM      8  C   UNL     1       7.578  -0.176  23.346  0.00  0.00    +0.148 A 
ATOM      9  O   UNL     1       6.782  -0.486  24.424  0.00  0.00    -0.440 OA
ATOM     10  C   UNL     1       5.810   0.397  24.885  0.00  0.00    +0.193 A 
ATOM     11  C   UNL     1       5.614   1.588  24.298  0.00  0.00    +0.114 A 
ENDROOT
BRANCH   7  12
ATOM     12  C   UNL     1       8.522  -2.565  23.352  0.00  0.00    -0.014 A 
ATOM     13  C   UNL     1       9.332  -2.976  24.429  0.00  0.00    +0.008 A 
ATOM     14  C   UNL     1       9.313  -4.290  24.913  0.00  0.00    +0.001 A 
ATOM     15  C   UNL     1       8.453  -5.226  24.354  0.00  0.00    +0.000 A 
ATOM     16  C   UNL     1       7.630  -4.853  23.297  0.00  0.00    +0.001 A 
ATOM     17  C   UNL     1       7.677  -3.546  22.795  0.00  0.00    +0.008 A 
ENDBRANCH   7  12
BRANCH  10  18
ATOM     18  N   UNL     1       5.107  -0.047  26.006  0.00  0.00    -0.297 N 
ATOM     19  C   UNL     1       4.554   0.815  27.070  0.00  0.00    +0.136 C 
ATOM     20  C   UNL     1       4.894   0.234  28.452  0.00  0.00    +0.179 C 
ATOM     21  O   UNL     1       4.425  -1.118  28.589  0.00  0.00    -0.377 OA
ATOM     22  C   UNL     1       5.020  -1.949  27.581  0.00  0.00    +0.179 C 
ATOM     23  C   UNL     1       4.675  -1.455  26.166  0.00  0.00    +0.136 C 
ENDBRANCH  10  18
TORSDOF 2
ENDMDL
MODEL 4
REMARK VINA RESULT:      -6.1      2.960      4.903
REMARK  Name = 
REMARK  2 active torsions:
REMARK  status: ('A' for Active; 'I' for Inactive)
REMARK    1  A    between atoms: C_4  and  N_18
REMARK    2  A    between atoms: C_11  and  C_12
REMARK                            x       y       z     vdW  Elec       q    Type
REMARK                         _______ _______ _______ _____ _____    ______ ____
ROOT
ATOM      1  O   UNL     1       7.564  -2.142  24.475  0.00  0.00    -0.287 OA
ATOM      2  C   UNL     1       7.784  -0.950  24.653  0.00  0.00    +0.194 A 
ATOM      3  C   UNL     1       8.478  -0.123  23.662  0.00  0.00    +0.065 A 
ATOM      4  C   UNL     1       8.838  -0.673  22.431  0.00  0.00    +0.015 A 
ATOM      5  C   UNL     1       9.526   0.109  21.516  0.00  0.00    +0.002 A 
ATOM      6  C   UNL     1       9.891   1.418  21.855  0.00  0.00    +0.012 A 
ATOM      7  C   UNL     1       9.551   2.000  23.098  0.00  0.00    +0.025 A 
ATOM      8  C   UNL     1       8.782   1.203  23.980  0.00  0.00    +0.148 A 
ATOM      9  O   UNL     1       8.309   1.770  25.141  0.00  0.00    -0.440 OA
ATOM     10  C   UNL     1       7.609   1.020  26.081  0.00  0.00    +0.193 A 
ATOM     11  C   UNL     1       7.363  -0.285  25.890  0.00  0.00    +0.114 A 
ENDROOT
BRANCH   7  12
ATOM     12  C   UNL     1      10.058   3.366  23.439  0.00  0.00    -0.014 A 
ATOM     13  C   UNL     1      11.423   3.700  23.336  0.00  0.00    +0.008 A 
ATOM     14  C   UNL     1      11.893   4.993  23.598  0.00  0.00    +0.001 A 
ATOM     15  C   UNL     1      11.002   6.003  23.938  0.00  0.00    +0.000 A 
ATOM     16  C   UNL     1       9.646   5.713  24.038  0.00  0.00    +0.001 A 
ATOM     17  C   UNL     1       9.185   4.410  23.807  0.00  0.00    +0.008 A 
ENDBRANCH   7  12
BRANCH  10  18
ATOM     18  N   UNL     1       7.166   1.746  27.189  0.00  0.00    -0.297 N 
ATOM     19  C   UNL     1       6.948   1.198  28.543  0.00  0.00    +0.136 C 
ATOM     20  C   UNL     1       5.602   1.688  29.101  0.00  0.00    +0.179 C 
ATOM     21  O   UNL     1       5.521   3.123  29.107  0.00  0.00    -0.377 OA
ATOM     22  C   UNL     1       5.678   3.630  27.774  0.00  0.00    +0.179 C 
ATOM     23  C   UNL     1       7.033   3.221  27.170  0.00  0.00    +0.136 C 
ENDBRANCH  10  18
TORSDOF 2
ENDMDL
MODEL 5
REMARK VINA RESULT:      -6.1      3.034      6.786
REMARK  Name = 
REMARK  2 active torsions:
REMARK  status: ('A' for Active; 'I' for Inactive)
REMARK    1  A    between atoms: C_4  and  N_18
REMARK    2  A    between atoms: C_11  and  C_12
REMARK                            x       y       z     vdW  Elec       q    Type
REMARK                         _______ _______ _______ _____ _____    ______ ____
ROOT
ATOM      1  O   UNL     1       5.594   0.869  27.493  0.00  0.00    -0.287 OA
ATOM      2  C   UNL     1       5.987   0.246  26.514  0.00  0.00    +0.194 A 
ATOM      3  C   UNL     1       5.321  -0.970  26.037  0.00  0.00    +0.065 A 
ATOM      4  C   UNL     1       4.150  -1.406  26.657  0.00  0.00    +0.015 A 
ATOM      5  C   UNL     1       3.550  -2.578  26.222  0.00  0.00    +0.002 A 
ATOM      6  C   UNL     1       4.149  -3.329  25.203  0.00  0.00    +0.012 A 
ATOM      7  C   UNL     1       5.342  -2.920  24.562  0.00  0.00    +0.025 A 
ATOM      8  C   UNL     1       5.889  -1.681  24.976  0.00  0.00    +0.148 A 
ATOM      9  O   UNL     1       6.967  -1.172  24.290  0.00  0.00    -0.440 OA
ATOM     10  C   UNL     1       7.592   0.004  24.693  0.00  0.00    +0.193 A 
ATOM     11  C   UNL     1       7.165   0.691  25.763  0.00  0.00    +0.114 A 
ENDROOT
BRANCH   7  12
ATOM     12  C   UNL     1       5.986  -3.816  23.552  0.00  0.00    -0.014 A 
ATOM     13  C   UNL     1       6.996  -4.731  23.908  0.00  0.00    +0.008 A 
ATOM     14  C   UNL     1       7.560  -5.613  22.977  0.00  0.00    +0.001 A 
ATOM     15  C   UNL     1       7.103  -5.630  21.666  0.00  0.00    +0.000 A 
ATOM     16  C   UNL     1       6.099  -4.749  21.282  0.00  0.00    +0.001 A 
ATOM     17  C   UNL     1       5.560  -3.845  22.209  0.00  0.00    +0.008 A 
ENDBRANCH   7  12
BRANCH  10  18
ATOM     18  N   UNL     1       8.650   0.408  23.875  0.00  0.00    -0.297 N 
ATOM     19  C   UNL     1       9.815   1.205  24.310  0.00  0.00    +0.136 C 
ATOM     20  C   UNL     1      10.090   2.332  23.301  0.00  0.00    +0.179 C 
ATOM     21  O   UNL     1      10.284   1.819  21.972  0.00  0.00    -0.377 OA
ATOM     22  C   UNL     1       9.118   1.097  21.550  0.00  0.00    +0.179 C 
ATOM     23  C   UNL     1       8.813  -0.083  22.488  0.00  0.00    +0.136 C 
ENDBRANCH  10  18
TORSDOF 2
ENDMDL
MODEL 6
REMARK VINA RESULT:      -6.1      3.158      6.470
REMARK  Name = 
REMARK  2 active torsions:
REMARK  status: ('A' for Active; 'I' for Inactive)
REMARK    1  A    between atoms: C_4  and  N_18
REMARK    2  A    between atoms: C_11  and  C_12
REMARK                            x       y       z     vdW  Elec       q    Type
REMARK                         _______ _______ _______ _____ _____    ______ ____
ROOT
ATOM      1  O   UNL     1       5.897  -4.154  20.883  0.00  0.00    -0.287 OA
ATOM      2  C   UNL     1       6.164  -4.128  22.078  0.00  0.00    +0.194 A 
ATOM      3  C   UNL     1       5.488  -4.990  23.053  0.00  0.00    +0.065 A 
ATOM      4  C   UNL     1       4.563  -5.937  22.614  0.00  0.00    +0.015 A 
ATOM      5  C   UNL     1       3.902  -6.721  23.548  0.00  0.00    +0.002 A 
ATOM      6  C   UNL     1       4.137  -6.520  24.914  0.00  0.00    +0.012 A 
ATOM      7  C   UNL     1       5.060  -5.561  25.391  0.00  0.00    +0.025 A 
ATOM      8  C   UNL     1       5.774  -4.829  24.411  0.00  0.00    +0.148 A 
ATOM      9  O   UNL     1       6.780  -3.985  24.819  0.00  0.00    -0.440 OA
ATOM     10  C   UNL     1       7.470  -3.187  23.911  0.00  0.00    +0.193 A 
ATOM     11  C   UNL     1       7.184  -3.213  22.600  0.00  0.00    +0.114 A 
ENDROOT
BRANCH   7  12
ATOM     12  C   UNL     1       5.190  -5.325  26.862  0.00  0.00    -0.014 A 
ATOM     13  C   UNL     1       4.443  -4.329  27.524  0.00  0.00    +0.008 A 
ATOM     14  C   UNL     1       4.518  -4.144  28.911  0.00  0.00    +0.001 A 
ATOM     15  C   UNL     1       5.318  -4.976  29.683  0.00  0.00    +0.000 A 
ATOM     16  C   UNL     1       6.059  -5.977  29.066  0.00  0.00    +0.001 A 
ATOM     17  C   UNL     1       6.007  -6.137  27.674  0.00  0.00    +0.008 A 
ENDBRANCH   7  12
BRANCH  10  18
ATOM     18  N   UNL     1       8.484  -2.410  24.475  0.00  0.00    -0.297 N 
ATOM     19  C   UNL     1       8.488  -1.870  25.850  0.00  0.00    +0.136 C 
ATOM     20  C   UNL     1       8.912  -0.392  25.836  0.00  0.00    +0.179 C 
ATOM     21  O   UNL     1      10.193  -0.214  25.209  0.00  0.00    -0.377 OA
ATOM     22  C   UNL     1      10.149  -0.693  23.857  0.00  0.00    +0.179 C 
ATOM     23  C   UNL     1       9.782  -2.186  23.798  0.00  0.00    +0.136 C 
ENDBRANCH  10  18
TORSDOF 2
ENDMDL
MODEL 7
REMARK VINA RESULT:      -6.0      3.190      5.681
REMARK  Name = 
REMARK  2 active torsions:
REMARK  status: ('A' for Active; 'I' for Inactive)
REMARK    1  A    between atoms: C_4  and  N_18
REMARK    2  A    between atoms: C_11  and  C_12
REMARK                            x       y       z     vdW  Elec       q    Type
REMARK                         _______ _______ _______ _____ _____    ______ ____
ROOT
ATOM      1  O   UNL     1       4.326  -7.580  24.518  0.00  0.00    -0.287 OA
ATOM      2  C   UNL     1       4.811  -6.468  24.684  0.00  0.00    +0.194 A 
ATOM      3  C   UNL     1       5.550  -5.767  23.629  0.00  0.00    +0.065 A 
ATOM      4  C   UNL     1       5.646  -6.334  22.359  0.00  0.00    +0.015 A 
ATOM      5  C   UNL     1       6.379  -5.680  21.379  0.00  0.00    +0.002 A 
ATOM      6  C   UNL     1       7.047  -4.490  21.690  0.00  0.00    +0.012 A 
ATOM      7  C   UNL     1       6.978  -3.895  22.971  0.00  0.00    +0.025 A 
ATOM      8  C   UNL     1       6.160  -4.546  23.927  0.00  0.00    +0.148 A 
ATOM      9  O   UNL     1       5.950  -3.936  25.142  0.00  0.00    -0.440 OA
ATOM     10  C   UNL     1       5.215  -4.558  26.147  0.00  0.00    +0.193 A 
ATOM     11  C   UNL     1       4.680  -5.775  25.970  0.00  0.00    +0.114 A 
ENDROOT
BRANCH   7  12
ATOM     12  C   UNL     1       7.796  -2.678  23.269  0.00  0.00    -0.014 A 
ATOM     13  C   UNL     1       7.285  -1.377  23.094  0.00  0.00    +0.008 A 
ATOM     14  C   UNL     1       8.026  -0.237  23.428  0.00  0.00    +0.001 A 
ATOM     15  C   UNL     1       9.293  -0.367  23.981  0.00  0.00    +0.000 A 
ATOM     16  C   UNL     1       9.825  -1.635  24.179  0.00  0.00    +0.001 A 
ATOM     17  C   UNL     1       9.093  -2.772  23.813  0.00  0.00    +0.008 A 
ENDBRANCH   7  12
BRANCH  10  18
ATOM     18  N   UNL     1       5.062  -3.797  27.308  0.00  0.00    -0.297 N 
ATOM     19  C   UNL     1       4.898  -4.337  28.673  0.00  0.00    +0.136 C 
ATOM     20  C   UNL     1       3.754  -3.608  29.396  0.00  0.00    +0.179 C 
ATOM     21  O   UNL     1       3.966  -2.187  29.427  0.00  0.00    -0.377 OA
ATOM     22  C   UNL     1       4.065  -1.676  28.090  0.00  0.00    +0.179 C 
ATOM     23  C   UNL     1       5.228  -2.326  27.321  0.00  0.00    +0.136 C 
ENDBRANCH  10  18
TORSDOF 2
ENDMDL
MODEL 8
REMARK VINA RESULT:      -5.9      1.582      2.094
REMARK  Name = 
REMARK  2 active torsions:
REMARK  status: ('A' for Active; 'I' for Inactive)
REMARK    1  A    between atoms: C_4  and  N_18
REMARK    2  A    between atoms: C_11  and  C_12
REMARK                            x       y       z     vdW  Elec       q    Type
REMARK                         _______ _______ _______ _____ _____    ______ ____
ROOT
ATOM      1  O   UNL     1      10.877  -1.742  22.350  0.00  0.00    -0.287 OA
ATOM      2  C   UNL     1       9.932  -1.759  23.130  0.00  0.00    +0.194 A 
ATOM      3  C   UNL     1       9.212  -0.543  23.518  0.00  0.00    +0.065 A 
ATOM      4  C   UNL     1       9.546   0.677  22.929  0.00  0.00    +0.015 A 
ATOM      5  C   UNL     1       8.883   1.827  23.331  0.00  0.00    +0.002 A 
ATOM      6  C   UNL     1       7.926   1.756  24.350  0.00  0.00    +0.012 A 
ATOM      7  C   UNL     1       7.573   0.538  24.975  0.00  0.00    +0.025 A 
ATOM      8  C   UNL     1       8.212  -0.629  24.490  0.00  0.00    +0.148 A 
ATOM      9  O   UNL     1       7.803  -1.853  24.968  0.00  0.00    -0.440 OA
ATOM     10  C   UNL     1       8.439  -3.030  24.583  0.00  0.00    +0.193 A 
ATOM     11  C   UNL     1       9.473  -3.017  23.727  0.00  0.00    +0.114 A 
ENDROOT
BRANCH   7  12
ATOM     12  C   UNL     1       6.618   0.545  26.127  0.00  0.00    -0.014 A 
ATOM     13  C   UNL     1       7.059   0.697  27.457  0.00  0.00    +0.008 A 
ATOM     14  C   UNL     1       6.164   0.763  28.532  0.00  0.00    +0.001 A 
ATOM     15  C   UNL     1       4.795   0.714  28.304  0.00  0.00    +0.000 A 
ATOM     16  C   UNL     1       4.324   0.577  27.004  0.00  0.00    +0.001 A 
ATOM     17  C   UNL     1       5.224   0.478  25.934  0.00  0.00    +0.008 A 
ENDBRANCH   7  12
BRANCH  10  18
ATOM     18  N   UNL     1       7.888  -4.191  25.127  0.00  0.00    -0.297 N 
ATOM     19  C   UNL     1       6.780  -4.972  24.540  0.00  0.00    +0.136 C 
ATOM     20  C   UNL     1       5.750  -5.327  25.625  0.00  0.00    +0.179 C 
ATOM     21  O   UNL     1       6.355  -6.034  26.720  0.00  0.00    -0.377 OA
ATOM     22  C   UNL     1       7.389  -5.234  27.311  0.00  0.00    +0.179 C 
ATOM     23  C   UNL     1       8.486  -4.885  26.290  0.00  0.00    +0.136 C 
ENDBRANCH  10  18
TORSDOF 2
ENDMDL
MODEL 9
REMARK VINA RESULT:      -5.9      2.673      4.906
REMARK  Name = 
REMARK  2 active torsions:
REMARK  status: ('A' for Active; 'I' for Inactive)
REMARK    1  A    between atoms: C_4  and  N_18
REMARK    2  A    between atoms: C_11  and  C_12
REMARK                            x       y       z     vdW  Elec       q    Type
REMARK                         _______ _______ _______ _____ _____    ______ ____
ROOT
ATOM      1  O   UNL     1       9.250   2.982  24.141  0.00  0.00    -0.287 OA
ATOM      2  C   UNL     1       8.770   1.883  24.391  0.00  0.00    +0.194 A 
ATOM      3  C   UNL     1       8.924   0.734  23.493  0.00  0.00    +0.065 A 
ATOM      4  C   UNL     1       9.709   0.854  22.347  0.00  0.00    +0.015 A 
ATOM      5  C   UNL     1       9.818  -0.228  21.485  0.00  0.00    +0.002 A 
ATOM      6  C   UNL     1       9.105  -1.403  21.752  0.00  0.00    +0.012 A 
ATOM      7  C   UNL     1       8.292  -1.551  22.900  0.00  0.00    +0.025 A 
ATOM      8  C   UNL     1       8.262  -0.457  23.799  0.00  0.00    +0.148 A 
ATOM      9  O   UNL     1       7.599  -0.603  24.995  0.00  0.00    -0.440 OA
ATOM     10  C   UNL     1       7.475   0.457  25.888  0.00  0.00    +0.193 A 
ATOM     11  C   UNL     1       8.000   1.662  25.619  0.00  0.00    +0.114 A 
ENDROOT
BRANCH   7  12
ATOM     12  C   UNL     1       7.476  -2.793  23.075  0.00  0.00    -0.014 A 
ATOM     13  C   UNL     1       7.965  -3.910  23.781  0.00  0.00    +0.008 A 
ATOM     14  C   UNL     1       7.183  -5.052  23.998  0.00  0.00    +0.001 A 
ATOM     15  C   UNL     1       5.872  -5.095  23.543  0.00  0.00    +0.000 A 
ATOM     16  C   UNL     1       5.352  -4.006  22.852  0.00  0.00    +0.001 A 
ATOM     17  C   UNL     1       6.149  -2.880  22.609  0.00  0.00    +0.008 A 
ENDBRANCH   7  12
BRANCH  10  18
ATOM     18  N   UNL     1       6.804   0.142  27.072  0.00  0.00    -0.297 N 
ATOM     19  C   UNL     1       5.807  -0.935  27.234  0.00  0.00    +0.136 C 
ATOM     20  C   UNL     1       4.585  -0.413  28.007  0.00  0.00    +0.179 C 
ATOM     21  O   UNL     1       4.959   0.137  29.281  0.00  0.00    -0.377 OA
ATOM     22  C   UNL     1       5.884   1.219  29.096  0.00  0.00    +0.179 C 
ATOM     23  C   UNL     1       7.160   0.754  28.373  0.00  0.00    +0.136 C 
ENDBRANCH  10  18
TORSDOF 2
ENDMDL
