MODEL 1
REMARK VINA RESULT:      -3.5      0.000      0.000
REMARK  Name = 
REMARK  4 active torsions:
REMARK  status: ('A' for Active; 'I' for Inactive)
REMARK    1  A    between atoms: C_1  and  C_2
REMARK    2  A    between atoms: C_2  and  C_4
REMARK    3  A    between atoms: C_2  and  C_8
REMARK    4  A    between atoms: C_4  and  C_5
REMARK                            x       y       z     vdW  Elec       q    Type
REMARK                         _______ _______ _______ _____ _____    ______ ____
ROOT
ATOM      1  C   UNL     1       8.283  -0.620  24.536  0.00  0.00    +0.015 C 
ATOM      2  C   UNL     1       9.772  -0.939  24.447  0.00  0.00    +0.049 C 
ENDROOT
BRANCH   2   3
ATOM      3  C   UNL     1       9.977  -1.980  23.362  0.00  0.00    +0.226 C 
ATOM      4  O   UNL     1      10.660  -1.818  22.355  0.00  0.00    -0.301 OA
ENDBRANCH   2   3
BRANCH   2   5
ATOM      5  C   UNL     1      10.636   0.302  24.185  0.00  0.00    +0.014 C 
BRANCH   5   6
ATOM      6  C   UNL     1       9.865   1.446  23.588  0.00  0.00    -0.010 C 
ATOM      7  C   UNL     1      10.085   1.836  22.148  0.00  0.00    +0.004 C 
ATOM      8  C   UNL     1      10.539   2.751  23.249  0.00  0.00    +0.004 C 
ENDBRANCH   5   6
ENDBRANCH   2   5
TORSDOF 3
ENDMDL
MODEL 2
REMARK VINA RESULT:      -3.4      1.750      2.176
REMARK  Name = 
REMARK  4 active torsions:
REMARK  status: ('A' for Active; 'I' for Inactive)
REMARK    1  A    between atoms: C_1  and  C_2
REMARK    2  A    between atoms: C_2  and  C_4
REMARK    3  A    between atoms: C_2  and  C_8
REMARK    4  A    between atoms: C_4  and  C_5
REMARK                            x       y       z     vdW  Elec       q    Type
REMARK                         _______ _______ _______ _____ _____    ______ ____
ROOT
ATOM      1  C   UNL     1       8.014  -2.483  22.271  0.00  0.00    +0.015 C 
ATOM      2  C   UNL     1       8.889  -1.587  23.144  0.00  0.00    +0.049 C 
ENDROOT
BRANCH   2   3
ATOM      3  C   UNL     1       9.445  -2.422  24.284  0.00  0.00    +0.226 C 
ATOM      4  O   UNL     1      10.070  -3.469  24.145  0.00  0.00    -0.301 OA
ENDBRANCH   2   3
BRANCH   2   5
ATOM      5  C   UNL     1      10.021  -0.908  22.360  0.00  0.00    +0.014 C 
BRANCH   5   6
ATOM      6  C   UNL     1       9.555   0.263  21.542  0.00  0.00    -0.010 C 
ATOM      7  C   UNL     1       9.957   1.664  21.931  0.00  0.00    +0.004 C 
ATOM      8  C   UNL     1       8.527   1.229  22.074  0.00  0.00    +0.004 C 
ENDBRANCH   5   6
ENDBRANCH   2   5
TORSDOF 3
ENDMDL
MODEL 3
REMARK VINA RESULT:      -3.3      1.468      1.574
REMARK  Name = 
REMARK  4 active torsions:
REMARK  status: ('A' for Active; 'I' for Inactive)
REMARK    1  A    between atoms: C_1  and  C_2
REMARK    2  A    between atoms: C_2  and  C_4
REMARK    3  A    between atoms: C_2  and  C_8
REMARK    4  A    between atoms: C_4  and  C_5
REMARK                            x       y       z     vdW  Elec       q    Type
REMARK                         _______ _______ _______ _____ _____    ______ ____
ROOT
ATOM      1  C   UNL     1       8.963  -0.602  25.155  0.00  0.00    +0.015 C 
ATOM      2  C   UNL     1       9.951  -1.356  24.269  0.00  0.00    +0.049 C 
ENDROOT
BRANCH   2   3
ATOM      3  C   UNL     1       9.398  -2.745  24.005  0.00  0.00    +0.226 C 
ATOM      4  O   UNL     1       9.933  -3.791  24.359  0.00  0.00    -0.301 OA
ENDBRANCH   2   3
BRANCH   2   5
ATOM      5  C   UNL     1      10.251  -0.628  22.952  0.00  0.00    +0.014 C 
BRANCH   5   6
ATOM      6  C   UNL     1       9.476   0.649  22.791  0.00  0.00    -0.010 C 
ATOM      7  C   UNL     1       8.930   1.036  21.439  0.00  0.00    +0.004 C 
ATOM      8  C   UNL     1      10.053   1.826  22.047  0.00  0.00    +0.004 C 
ENDBRANCH   5   6
ENDBRANCH   2   5
TORSDOF 3
ENDMDL
MODEL 4
REMARK VINA RESULT:      -3.3      2.118      3.811
REMARK  Name = 
REMARK  4 active torsions:
REMARK  status: ('A' for Active; 'I' for Inactive)
REMARK    1  A    between atoms: C_1  and  C_2
REMARK    2  A    between atoms: C_2  and  C_4
REMARK    3  A    between atoms: C_2  and  C_8
REMARK    4  A    between atoms: C_4  and  C_5
REMARK                            x       y       z     vdW  Elec       q    Type
REMARK                         _______ _______ _______ _____ _____    ______ ____
ROOT
ATOM      1  C   UNL     1       8.225   2.198  21.850  0.00  0.00    +0.015 C 
ATOM      2  C   UNL     1       9.672   1.719  21.936  0.00  0.00    +0.049 C 
ENDROOT
BRANCH   2   3
ATOM      3  C   UNL     1      10.267   2.218  23.240  0.00  0.00    +0.226 C 
ATOM      4  O   UNL     1      11.044   3.163  23.339  0.00  0.00    -0.301 OA
ENDBRANCH   2   3
BRANCH   2   5
ATOM      5  C   UNL     1       9.806   0.195  21.821  0.00  0.00    +0.014 C 
BRANCH   5   6
ATOM      6  C   UNL     1      10.137  -0.471  23.127  0.00  0.00    -0.010 C 
ATOM      7  C   UNL     1      10.139  -1.976  23.228  0.00  0.00    +0.004 C 
ATOM      8  C   UNL     1       9.078  -1.180  23.933  0.00  0.00    +0.004 C 
ENDBRANCH   5   6
ENDBRANCH   2   5
TORSDOF 3
ENDMDL
MODEL 5
REMARK VINA RESULT:      -3.3      3.945      5.969
REMARK  Name = 
REMARK  4 active torsions:
REMARK  status: ('A' for Active; 'I' for Inactive)
REMARK    1  A    between atoms: C_1  and  C_2
REMARK    2  A    between atoms: C_2  and  C_4
REMARK    3  A    between atoms: C_2  and  C_8
REMARK    4  A    between atoms: C_4  and  C_5
REMARK                            x       y       z     vdW  Elec       q    Type
REMARK                         _______ _______ _______ _____ _____    ______ ____
ROOT
ATOM      1  C   UNL     1       9.330  -5.326  25.253  0.00  0.00    +0.015 C 
ATOM      2  C   UNL     1       8.316  -4.236  24.917  0.00  0.00    +0.049 C 
ENDROOT
BRANCH   2   3
ATOM      3  C   UNL     1       9.018  -3.156  24.115  0.00  0.00    +0.226 C 
ATOM      4  O   UNL     1      10.226  -3.118  23.899  0.00  0.00    -0.301 OA
ENDBRANCH   2   3
BRANCH   2   5
ATOM      5  C   UNL     1       7.091  -4.770  24.160  0.00  0.00    +0.014 C 
BRANCH   5   6
ATOM      6  C   UNL     1       7.305  -4.860  22.675  0.00  0.00    -0.010 C 
ATOM      7  C   UNL     1       6.123  -4.994  21.748  0.00  0.00    +0.004 C 
ATOM      8  C   UNL     1       7.068  -6.148  21.928  0.00  0.00    +0.004 C 
ENDBRANCH   5   6
ENDBRANCH   2   5
TORSDOF 3
ENDMDL
MODEL 6
REMARK VINA RESULT:      -3.2      5.958      6.693
REMARK  Name = 
REMARK  4 active torsions:
REMARK  status: ('A' for Active; 'I' for Inactive)
REMARK    1  A    between atoms: C_1  and  C_2
REMARK    2  A    between atoms: C_2  and  C_4
REMARK    3  A    between atoms: C_2  and  C_8
REMARK    4  A    between atoms: C_4  and  C_5
REMARK                            x       y       z     vdW  Elec       q    Type
REMARK                         _______ _______ _______ _____ _____    ______ ____
ROOT
ATOM      1  C   UNL     1       9.802  -5.021  25.487  0.00  0.00    +0.015 C 
ATOM      2  C   UNL     1       8.316  -5.323  25.316  0.00  0.00    +0.049 C 
ENDROOT
BRANCH   2   3
ATOM      3  C   UNL     1       7.604  -4.991  26.615  0.00  0.00    +0.226 C 
ATOM      4  O   UNL     1       7.557  -5.728  27.595  0.00  0.00    -0.301 OA
ENDBRANCH   2   3
BRANCH   2   5
ATOM      5  C   UNL     1       7.683  -4.570  24.137  0.00  0.00    +0.014 C 
BRANCH   5   6
ATOM      6  C   UNL     1       6.771  -5.427  23.307  0.00  0.00    -0.010 C 
ATOM      7  C   UNL     1       7.167  -5.814  21.904  0.00  0.00    +0.004 C 
ATOM      8  C   UNL     1       6.028  -4.860  22.123  0.00  0.00    +0.004 C 
ENDBRANCH   5   6
ENDBRANCH   2   5
TORSDOF 3
ENDMDL
MODEL 7
REMARK VINA RESULT:      -3.1      2.205      3.002
REMARK  Name = 
REMARK  4 active torsions:
REMARK  status: ('A' for Active; 'I' for Inactive)
REMARK    1  A    between atoms: C_1  and  C_2
REMARK    2  A    between atoms: C_2  and  C_4
REMARK    3  A    between atoms: C_2  and  C_8
REMARK    4  A    between atoms: C_4  and  C_5
REMARK                            x       y       z     vdW  Elec       q    Type
REMARK                         _______ _______ _______ _____ _____    ______ ____
ROOT
ATOM      1  C   UNL     1       7.832  -3.163  22.799  0.00  0.00    +0.015 C 
ATOM      2  C   UNL     1       8.652  -2.974  24.072  0.00  0.00    +0.049 C 
ENDROOT
BRANCH   2   3
ATOM      3  C   UNL     1       9.001  -4.342  24.628  0.00  0.00    +0.226 C 
ATOM      4  O   UNL     1      10.140  -4.733  24.864  0.00  0.00    -0.301 OA
ENDBRANCH   2   3
BRANCH   2   5
ATOM      5  C   UNL     1       9.917  -2.134  23.851  0.00  0.00    +0.014 C 
BRANCH   5   6
ATOM      6  C   UNL     1       9.675  -0.655  23.967  0.00  0.00    -0.010 C 
ATOM      7  C   UNL     1      10.689   0.225  24.655  0.00  0.00    +0.004 C 
ATOM      8  C   UNL     1       9.352  -0.018  25.295  0.00  0.00    +0.004 C 
ENDBRANCH   5   6
ENDBRANCH   2   5
TORSDOF 3
ENDMDL
MODEL 8
REMARK VINA RESULT:      -3.1      3.861      5.906
REMARK  Name = 
REMARK  4 active torsions:
REMARK  status: ('A' for Active; 'I' for Inactive)
REMARK    1  A    between atoms: C_1  and  C_2
REMARK    2  A    between atoms: C_2  and  C_4
REMARK    3  A    between atoms: C_2  and  C_8
REMARK    4  A    between atoms: C_4  and  C_5
REMARK                            x       y       z     vdW  Elec       q    Type
REMARK                         _______ _______ _______ _____ _____    ______ ____
ROOT
ATOM      1  C   UNL     1       6.799  -1.949  23.267  0.00  0.00    +0.015 C 
ATOM      2  C   UNL     1       7.969  -2.868  22.925  0.00  0.00    +0.049 C 
ENDROOT
BRANCH   2   3
ATOM      3  C   UNL     1       9.057  -2.667  23.964  0.00  0.00    +0.226 C 
ATOM      4  O   UNL     1      10.198  -3.110  23.877  0.00  0.00    -0.301 OA
ENDBRANCH   2   3
BRANCH   2   5
ATOM      5  C   UNL     1       7.563  -4.345  22.835  0.00  0.00    +0.014 C 
BRANCH   5   6
ATOM      6  C   UNL     1       6.352  -4.576  21.976  0.00  0.00    -0.010 C 
ATOM      7  C   UNL     1       5.432  -5.737  22.263  0.00  0.00    +0.004 C 
ATOM      8  C   UNL     1       6.280  -5.742  21.023  0.00  0.00    +0.004 C 
ENDBRANCH   5   6
ENDBRANCH   2   5
TORSDOF 3
ENDMDL
MODEL 9
REMARK VINA RESULT:      -3.0      4.899      6.247
REMARK  Name = 
REMARK  4 active torsions:
REMARK  status: ('A' for Active; 'I' for Inactive)
REMARK    1  A    between atoms: C_1  and  C_2
REMARK    2  A    between atoms: C_2  and  C_4
REMARK    3  A    between atoms: C_2  and  C_8
REMARK    4  A    between atoms: C_4  and  C_5
REMARK                            x       y       z     vdW  Elec       q    Type
REMARK                         _______ _______ _______ _____ _____    ______ ____
ROOT
ATOM      1  C   UNL     1       7.646  -3.092  22.391  0.00  0.00    +0.015 C 
ATOM      2  C   UNL     1       7.072  -4.427  22.859  0.00  0.00    +0.049 C 
ENDROOT
BRANCH   2   3
ATOM      3  C   UNL     1       6.905  -5.329  21.649  0.00  0.00    +0.226 C 
ATOM      4  O   UNL     1       6.002  -5.234  20.824  0.00  0.00    -0.301 OA
ENDBRANCH   2   3
BRANCH   2   5
ATOM      5  C   UNL     1       7.934  -5.106  23.932  0.00  0.00    +0.014 C 
BRANCH   5   6
ATOM      6  C   UNL     1       7.778  -4.489  25.294  0.00  0.00    -0.010 C 
ATOM      7  C   UNL     1       8.959  -4.419  26.231  0.00  0.00    +0.004 C 
ATOM      8  C   UNL     1       7.808  -5.333  26.543  0.00  0.00    +0.004 C 
ENDBRANCH   5   6
ENDBRANCH   2   5
TORSDOF 3
ENDMDL
