MODEL 1
REMARK VINA RESULT:      -7.8      0.000      0.000
REMARK  Name = 
REMARK  5 active torsions:
REMARK  status: ('A' for Active; 'I' for Inactive)
REMARK    1  A    between atoms: C_2  and  C_3
REMARK    2  A    between atoms: C_3  and  C_4
REMARK    3  A    between atoms: C_11  and  N_12
REMARK    4  A    between atoms: C_13  and  C_15
REMARK    5  A    between atoms: C_20  and  C_25
REMARK                            x       y       z     vdW  Elec       q    Type
REMARK                         _______ _______ _______ _____ _____    ______ ____
ROOT
ATOM      1  N   UNL     1       7.219  -2.231  23.326  0.00  0.00    -0.281 N 
ATOM      2  H   UNL     1       7.952  -2.429  22.659  0.00  0.00    +0.155 HD
ATOM      3  C   UNL     1       7.020  -0.913  23.713  0.00  0.00    +0.248 C 
ATOM      4  O   UNL     1       6.027  -0.479  24.291  0.00  0.00    -0.270 OA
ENDROOT
BRANCH   1   8
ATOM      5  C   UNL     1       5.861  -6.005  26.310  0.00  0.00    +0.033 C 
ATOM      6  C   UNL     1       5.624  -5.142  25.078  0.00  0.00    -0.037 A 
ATOM      7  C   UNL     1       6.546  -4.146  24.722  0.00  0.00    +0.027 A 
ATOM      8  C   UNL     1       6.336  -3.295  23.636  0.00  0.00    +0.034 A 
ATOM      9  C   UNL     1       5.217  -3.505  22.831  0.00  0.00    +0.023 A 
ATOM     10  C   UNL     1       4.315  -4.534  23.134  0.00  0.00    +0.007 A 
ATOM     11  C   UNL     1       4.519  -5.371  24.244  0.00  0.00    -0.030 A 
ATOM     12  C   UNL     1       3.531  -6.469  24.557  0.00  0.00    +0.116 C 
ATOM     13  N   UNL     1       4.076  -7.510  25.439  0.00  0.00    -0.311 NA
ATOM     14  H   UNL     1       3.322  -8.138  25.706  0.00  0.00    +0.122 HD
ATOM     15  C   UNL     1       4.634  -6.884  26.640  0.00  0.00    +0.089 C 
BRANCH   5  16
ATOM     16  C   UNL     1       6.316  -5.215  27.563  0.00  0.00    +0.006 C 
ATOM     17  C   UNL     1       5.230  -4.372  28.225  0.00  0.00    +0.004 C 
ENDBRANCH   5  16
ENDBRANCH   1   8
BRANCH   3  18
ATOM     18  C   UNL     1       8.066   0.077  23.352  0.00  0.00    +0.038 A 
ATOM     19  C   UNL     1       7.987   1.331  23.982  0.00  0.00    +0.021 A 
ATOM     20  C   UNL     1       8.982   2.294  23.805  0.00  0.00    -0.017 A 
ATOM     21  C   UNL     1      10.074   2.013  22.956  0.00  0.00    -0.017 A 
ATOM     22  C   UNL     1      11.076   2.985  22.801  0.00  0.00    +0.024 A 
ATOM     23  C   UNL     1      11.004   4.205  23.489  0.00  0.00    +0.065 A 
ATOM     24  C   UNL     1       9.920   4.473  24.328  0.00  0.00    +0.016 A 
ATOM     25  C   UNL     1      10.135   0.761  22.311  0.00  0.00    +0.009 A 
ATOM     26  C   UNL     1       8.914   3.521  24.481  0.00  0.00    +0.009 A 
ATOM     27  C   UNL     1       9.143  -0.208  22.514  0.00  0.00    +0.013 A 
BRANCH  23  28
ATOM     28  C   UNL     1      12.081   5.214  23.308  0.00  0.00    +0.308 C 
ATOM     29  N   UNL     1      12.558   5.924  24.282  0.00  0.00    -0.099 NA
ATOM     30  H   UNL     1      12.141   5.660  25.179  0.00  0.00    +0.363 HD
ATOM     31  N   UNL     1      12.609   5.439  22.073  0.00  0.00    -0.247 N 
ATOM     32  H   UNL     1      13.166   6.290  22.073  0.00  0.00    +0.288 HD
ATOM     33  H   UNL     1      11.956   5.404  21.301  0.00  0.00    +0.288 HD
ENDBRANCH  23  28
ENDBRANCH   3  18
TORSDOF 4
ENDMDL
MODEL 2
REMARK VINA RESULT:      -7.7      1.124      2.434
REMARK  Name = 
REMARK  5 active torsions:
REMARK  status: ('A' for Active; 'I' for Inactive)
REMARK    1  A    between atoms: C_2  and  C_3
REMARK    2  A    between atoms: C_3  and  C_4
REMARK    3  A    between atoms: C_11  and  N_12
REMARK    4  A    between atoms: C_13  and  C_15
REMARK    5  A    between atoms: C_20  and  C_25
REMARK                            x       y       z     vdW  Elec       q    Type
REMARK                         _______ _______ _______ _____ _____    ______ ____
ROOT
ATOM      1  N   UNL     1       8.129  -2.420  24.904  0.00  0.00    -0.281 N 
ATOM      2  H   UNL     1       8.925  -2.661  24.330  0.00  0.00    +0.155 HD
ATOM      3  C   UNL     1       7.775  -1.082  25.011  0.00  0.00    +0.248 C 
ATOM      4  O   UNL     1       6.705  -0.657  25.438  0.00  0.00    -0.270 OA
ENDROOT
BRANCH   1   8
ATOM      5  C   UNL     1       4.432  -5.705  24.170  0.00  0.00    +0.033 C 
ATOM      6  C   UNL     1       5.539  -5.133  25.045  0.00  0.00    -0.037 A 
ATOM      7  C   UNL     1       6.270  -4.013  24.624  0.00  0.00    +0.027 A 
ATOM      8  C   UNL     1       7.331  -3.496  25.368  0.00  0.00    +0.034 A 
ATOM      9  C   UNL     1       7.610  -4.060  26.612  0.00  0.00    +0.023 A 
ATOM     10  C   UNL     1       6.852  -5.143  27.079  0.00  0.00    +0.007 A 
ATOM     11  C   UNL     1       5.802  -5.675  26.313  0.00  0.00    -0.030 A 
ATOM     12  C   UNL     1       5.002  -6.846  26.832  0.00  0.00    +0.116 C 
ATOM     13  N   UNL     1       3.703  -7.006  26.166  0.00  0.00    -0.311 NA
ATOM     14  H   UNL     1       3.284  -7.881  26.474  0.00  0.00    +0.122 HD
ATOM     15  C   UNL     1       3.904  -7.051  24.716  0.00  0.00    +0.089 C 
BRANCH   5  16
ATOM     16  C   UNL     1       4.808  -5.836  22.672  0.00  0.00    +0.006 C 
ATOM     17  C   UNL     1       6.226  -6.332  22.403  0.00  0.00    +0.004 C 
ENDBRANCH   5  16
ENDBRANCH   1   8
BRANCH   3  18
ATOM     18  C   UNL     1       8.746  -0.072  24.521  0.00  0.00    +0.038 A 
ATOM     19  C   UNL     1       8.359   1.274  24.629  0.00  0.00    +0.021 A 
ATOM     20  C   UNL     1       9.238   2.310  24.306  0.00  0.00    -0.017 A 
ATOM     21  C   UNL     1      10.532   1.997  23.836  0.00  0.00    -0.017 A 
ATOM     22  C   UNL     1      11.412   3.048  23.531  0.00  0.00    +0.024 A 
ATOM     23  C   UNL     1      11.020   4.384  23.706  0.00  0.00    +0.065 A 
ATOM     24  C   UNL     1       9.739   4.683  24.174  0.00  0.00    +0.016 A 
ATOM     25  C   UNL     1      10.905   0.644  23.710  0.00  0.00    +0.009 A 
ATOM     26  C   UNL     1       8.854   3.648  24.469  0.00  0.00    +0.009 A 
ATOM     27  C   UNL     1      10.023  -0.388  24.059  0.00  0.00    +0.013 A 
BRANCH  23  28
ATOM     28  C   UNL     1      11.975   5.477  23.379  0.00  0.00    +0.308 C 
ATOM     29  N   UNL     1      12.478   5.647  22.197  0.00  0.00    -0.099 NA
ATOM     30  H   UNL     1      12.094   4.978  21.524  0.00  0.00    +0.363 HD
ATOM     31  N   UNL     1      12.370   6.353  24.343  0.00  0.00    -0.247 N 
ATOM     32  H   UNL     1      13.172   6.893  24.027  0.00  0.00    +0.288 HD
ATOM     33  H   UNL     1      12.508   5.961  25.266  0.00  0.00    +0.288 HD
ENDBRANCH  23  28
ENDBRANCH   3  18
TORSDOF 4
ENDMDL
MODEL 3
REMARK VINA RESULT:      -7.6      1.493     10.046
REMARK  Name = 
REMARK  5 active torsions:
REMARK  status: ('A' for Active; 'I' for Inactive)
REMARK    1  A    between atoms: C_2  and  C_3
REMARK    2  A    between atoms: C_3  and  C_4
REMARK    3  A    between atoms: C_11  and  N_12
REMARK    4  A    between atoms: C_13  and  C_15
REMARK    5  A    between atoms: C_20  and  C_25
REMARK                            x       y       z     vdW  Elec       q    Type
REMARK                         _______ _______ _______ _____ _____    ______ ____
ROOT
ATOM      1  N   UNL     1       8.155  -0.166  23.791  0.00  0.00    -0.281 N 
ATOM      2  H   UNL     1       7.447  -0.140  24.511  0.00  0.00    +0.155 HD
ATOM      3  C   UNL     1       8.103  -1.186  22.852  0.00  0.00    +0.248 C 
ATOM      4  O   UNL     1       8.710  -1.208  21.785  0.00  0.00    -0.270 OA
ENDROOT
BRANCH   1   8
ATOM      5  C   UNL     1       8.755   4.791  23.535  0.00  0.00    +0.033 C 
ATOM      6  C   UNL     1       9.345   3.388  23.583  0.00  0.00    -0.037 A 
ATOM      7  C   UNL     1       8.505   2.265  23.590  0.00  0.00    +0.027 A 
ATOM      8  C   UNL     1       9.003   0.966  23.693  0.00  0.00    +0.034 A 
ATOM      9  C   UNL     1      10.385   0.780  23.699  0.00  0.00    +0.023 A 
ATOM     10  C   UNL     1      11.244   1.886  23.631  0.00  0.00    +0.007 A 
ATOM     11  C   UNL     1      10.734   3.193  23.553  0.00  0.00    -0.030 A 
ATOM     12  C   UNL     1      11.677   4.371  23.488  0.00  0.00    +0.116 C 
ATOM     13  N   UNL     1      11.046   5.595  22.977  0.00  0.00    -0.311 NA
ATOM     14  H   UNL     1      11.700   6.367  23.084  0.00  0.00    +0.122 HD
ATOM     15  C   UNL     1       9.834   5.876  23.750  0.00  0.00    +0.089 C 
BRANCH   5  16
ATOM     16  C   UNL     1       7.562   5.013  24.500  0.00  0.00    +0.006 C 
ATOM     17  C   UNL     1       7.918   4.987  25.984  0.00  0.00    +0.004 C 
ENDBRANCH   5  16
ENDBRANCH   1   8
BRANCH   3  18
ATOM     18  C   UNL     1       7.196  -2.329  23.126  0.00  0.00    +0.038 A 
ATOM     19  C   UNL     1       7.461  -3.076  24.287  0.00  0.00    +0.021 A 
ATOM     20  C   UNL     1       6.605  -4.097  24.702  0.00  0.00    -0.017 A 
ATOM     21  C   UNL     1       5.467  -4.405  23.926  0.00  0.00    -0.017 A 
ATOM     22  C   UNL     1       4.606  -5.424  24.365  0.00  0.00    +0.024 A 
ATOM     23  C   UNL     1       4.861  -6.113  25.561  0.00  0.00    +0.065 A 
ATOM     24  C   UNL     1       5.988  -5.800  26.322  0.00  0.00    +0.016 A 
ATOM     25  C   UNL     1       5.220  -3.666  22.752  0.00  0.00    +0.009 A 
ATOM     26  C   UNL     1       6.856  -4.799  25.890  0.00  0.00    +0.009 A 
ATOM     27  C   UNL     1       6.072  -2.626  22.356  0.00  0.00    +0.013 A 
BRANCH  23  28
ATOM     28  C   UNL     1       3.929  -7.185  26.002  0.00  0.00    +0.308 C 
ATOM     29  N   UNL     1       3.438  -8.072  25.197  0.00  0.00    -0.099 NA
ATOM     30  H   UNL     1       3.814  -7.971  24.250  0.00  0.00    +0.363 HD
ATOM     31  N   UNL     1       3.544  -7.263  27.306  0.00  0.00    -0.247 N 
ATOM     32  H   UNL     1       2.754  -7.897  27.406  0.00  0.00    +0.288 HD
ATOM     33  H   UNL     1       3.392  -6.379  27.775  0.00  0.00    +0.288 HD
ENDBRANCH  23  28
ENDBRANCH   3  18
TORSDOF 4
ENDMDL
MODEL 4
REMARK VINA RESULT:      -7.6      1.671     10.080
REMARK  Name = 
REMARK  5 active torsions:
REMARK  status: ('A' for Active; 'I' for Inactive)
REMARK    1  A    between atoms: C_2  and  C_3
REMARK    2  A    between atoms: C_3  and  C_4
REMARK    3  A    between atoms: C_11  and  N_12
REMARK    4  A    between atoms: C_13  and  C_15
REMARK    5  A    between atoms: C_20  and  C_25
REMARK                            x       y       z     vdW  Elec       q    Type
REMARK                         _______ _______ _______ _____ _____    ______ ____
ROOT
ATOM      1  N   UNL     1       7.958  -1.478  24.372  0.00  0.00    -0.281 N 
ATOM      2  H   UNL     1       7.624  -1.946  23.542  0.00  0.00    +0.155 HD
ATOM      3  C   UNL     1       7.829  -2.130  25.591  0.00  0.00    +0.248 C 
ATOM      4  O   UNL     1       8.410  -1.826  26.630  0.00  0.00    -0.270 OA
ENDROOT
BRANCH   1   8
ATOM      5  C   UNL     1       8.186   3.498  23.950  0.00  0.00    +0.033 C 
ATOM      6  C   UNL     1       8.874   2.140  23.980  0.00  0.00    -0.037 A 
ATOM      7  C   UNL     1       8.118   0.963  24.085  0.00  0.00    +0.027 A 
ATOM      8  C   UNL     1       8.714  -0.296  24.176  0.00  0.00    +0.034 A 
ATOM      9  C   UNL     1      10.101  -0.387  24.069  0.00  0.00    +0.023 A 
ATOM     10  C   UNL     1      10.871   0.773  23.902  0.00  0.00    +0.007 A 
ATOM     11  C   UNL     1      10.267   2.039  23.837  0.00  0.00    -0.030 A 
ATOM     12  C   UNL     1      11.116   3.276  23.665  0.00  0.00    +0.116 C 
ATOM     13  N   UNL     1      10.361   4.439  23.180  0.00  0.00    -0.311 NA
ATOM     14  H   UNL     1      10.965   5.256  23.212  0.00  0.00    +0.122 HD
ATOM     15  C   UNL     1       9.200   4.659  24.046  0.00  0.00    +0.089 C 
BRANCH   5  16
ATOM     16  C   UNL     1       7.065   3.667  25.007  0.00  0.00    +0.006 C 
ATOM     17  C   UNL     1       7.523   4.228  26.350  0.00  0.00    +0.004 C 
ENDBRANCH   5  16
ENDBRANCH   1   8
BRANCH   3  18
ATOM     18  C   UNL     1       6.959  -3.331  25.642  0.00  0.00    +0.038 A 
ATOM     19  C   UNL     1       5.887  -3.368  24.735  0.00  0.00    +0.021 A 
ATOM     20  C   UNL     1       5.076  -4.498  24.616  0.00  0.00    -0.017 A 
ATOM     21  C   UNL     1       5.321  -5.615  25.444  0.00  0.00    -0.017 A 
ATOM     22  C   UNL     1       4.507  -6.752  25.303  0.00  0.00    +0.024 A 
ATOM     23  C   UNL     1       3.482  -6.785  24.346  0.00  0.00    +0.065 A 
ATOM     24  C   UNL     1       3.249  -5.675  23.531  0.00  0.00    +0.016 A 
ATOM     25  C   UNL     1       6.385  -5.562  26.367  0.00  0.00    +0.009 A 
ATOM     26  C   UNL     1       4.042  -4.538  23.670  0.00  0.00    +0.009 A 
ATOM     27  C   UNL     1       7.208  -4.432  26.461  0.00  0.00    +0.013 A 
BRANCH  23  28
ATOM     28  C   UNL     1       2.639  -8.003  24.216  0.00  0.00    +0.308 C 
ATOM     29  N   UNL     1       2.574  -8.920  25.129  0.00  0.00    -0.099 NA
ATOM     30  H   UNL     1       3.125  -8.669  25.955  0.00  0.00    +0.363 HD
ATOM     31  N   UNL     1       1.894  -8.205  23.094  0.00  0.00    -0.247 N 
ATOM     32  H   UNL     1       1.553  -9.162  23.060  0.00  0.00    +0.288 HD
ATOM     33  H   UNL     1       2.321  -7.915  22.223  0.00  0.00    +0.288 HD
ENDBRANCH  23  28
ENDBRANCH   3  18
TORSDOF 4
ENDMDL
MODEL 5
REMARK VINA RESULT:      -7.6      1.771      2.515
REMARK  Name = 
REMARK  5 active torsions:
REMARK  status: ('A' for Active; 'I' for Inactive)
REMARK    1  A    between atoms: C_2  and  C_3
REMARK    2  A    between atoms: C_3  and  C_4
REMARK    3  A    between atoms: C_11  and  N_12
REMARK    4  A    between atoms: C_13  and  C_15
REMARK    5  A    between atoms: C_20  and  C_25
REMARK                            x       y       z     vdW  Elec       q    Type
REMARK                         _______ _______ _______ _____ _____    ______ ____
ROOT
ATOM      1  N   UNL     1       7.121  -1.042  24.075  0.00  0.00    -0.281 N 
ATOM      2  H   UNL     1       8.051  -1.427  24.170  0.00  0.00    +0.155 HD
ATOM      3  C   UNL     1       6.987   0.230  23.535  0.00  0.00    +0.248 C 
ATOM      4  O   UNL     1       5.943   0.722  23.114  0.00  0.00    -0.270 OA
ENDROOT
BRANCH   1   8
ATOM      5  C   UNL     1       4.527  -5.133  22.839  0.00  0.00    +0.033 C 
ATOM      6  C   UNL     1       4.750  -3.933  23.749  0.00  0.00    -0.037 A 
ATOM      7  C   UNL     1       5.765  -3.007  23.467  0.00  0.00    +0.027 A 
ATOM      8  C   UNL     1       6.039  -1.928  24.308  0.00  0.00    +0.034 A 
ATOM      9  C   UNL     1       5.217  -1.718  25.414  0.00  0.00    +0.023 A 
ATOM     10  C   UNL     1       4.159  -2.598  25.680  0.00  0.00    +0.007 A 
ATOM     11  C   UNL     1       3.904  -3.697  24.843  0.00  0.00    -0.030 A 
ATOM     12  C   UNL     1       2.762  -4.637  25.152  0.00  0.00    +0.116 C 
ATOM     13  N   UNL     1       2.345  -5.446  24.000  0.00  0.00    -0.311 NA
ATOM     14  H   UNL     1       1.668  -6.137  24.315  0.00  0.00    +0.122 HD
ATOM     15  C   UNL     1       3.513  -6.131  23.441  0.00  0.00    +0.089 C 
BRANCH   5  16
ATOM     16  C   UNL     1       5.828  -5.867  22.422  0.00  0.00    +0.006 C 
ATOM     17  C   UNL     1       6.236  -5.680  20.964  0.00  0.00    +0.004 C 
ENDBRANCH   5  16
ENDBRANCH   1   8
BRANCH   3  18
ATOM     18  C   UNL     1       8.214   1.054  23.401  0.00  0.00    +0.038 A 
ATOM     19  C   UNL     1       8.067   2.436  23.610  0.00  0.00    +0.021 A 
ATOM     20  C   UNL     1       9.173   3.288  23.624  0.00  0.00    -0.017 A 
ATOM     21  C   UNL     1      10.460   2.755  23.395  0.00  0.00    -0.017 A 
ATOM     22  C   UNL     1      11.565   3.622  23.427  0.00  0.00    +0.024 A 
ATOM     23  C   UNL     1      11.397   4.988  23.699  0.00  0.00    +0.065 A 
ATOM     24  C   UNL     1      10.120   5.505  23.925  0.00  0.00    +0.016 A 
ATOM     25  C   UNL     1      10.596   1.372  23.164  0.00  0.00    +0.009 A 
ATOM     26  C   UNL     1       9.015   4.657  23.884  0.00  0.00    +0.009 A 
ATOM     27  C   UNL     1       9.483   0.521  23.177  0.00  0.00    +0.013 A 
BRANCH  23  28
ATOM     28  C   UNL     1      12.586   5.881  23.730  0.00  0.00    +0.308 C 
ATOM     29  N   UNL     1      12.808   6.731  24.682  0.00  0.00    -0.099 NA
ATOM     30  H   UNL     1      12.101   6.664  25.420  0.00  0.00    +0.363 HD
ATOM     31  N   UNL     1      13.501   5.840  22.722  0.00  0.00    -0.247 N 
ATOM     32  H   UNL     1      14.124   6.642  22.774  0.00  0.00    +0.288 HD
ATOM     33  H   UNL     1      13.127   5.699  21.792  0.00  0.00    +0.288 HD
ENDBRANCH  23  28
ENDBRANCH   3  18
TORSDOF 4
ENDMDL
MODEL 6
REMARK VINA RESULT:      -7.5      2.108     10.029
REMARK  Name = 
REMARK  5 active torsions:
REMARK  status: ('A' for Active; 'I' for Inactive)
REMARK    1  A    between atoms: C_2  and  C_3
REMARK    2  A    between atoms: C_3  and  C_4
REMARK    3  A    between atoms: C_11  and  N_12
REMARK    4  A    between atoms: C_13  and  C_15
REMARK    5  A    between atoms: C_20  and  C_25
REMARK                            x       y       z     vdW  Elec       q    Type
REMARK                         _______ _______ _______ _____ _____    ______ ____
ROOT
ATOM      1  N   UNL     1       6.593   0.708  23.296  0.00  0.00    -0.281 N 
ATOM      2  H   UNL     1       5.676   0.453  23.633  0.00  0.00    +0.155 HD
ATOM      3  C   UNL     1       7.420  -0.297  22.813  0.00  0.00    +0.248 C 
ATOM      4  O   UNL     1       8.431  -0.128  22.136  0.00  0.00    -0.270 OA
ENDROOT
BRANCH   1   8
ATOM      5  C   UNL     1       9.646   4.620  23.907  0.00  0.00    +0.033 C 
ATOM      6  C   UNL     1       8.327   4.034  23.421  0.00  0.00    -0.037 A 
ATOM      7  C   UNL     1       8.028   2.681  23.638  0.00  0.00    +0.027 A 
ATOM      8  C   UNL     1       6.857   2.094  23.157  0.00  0.00    +0.034 A 
ATOM      9  C   UNL     1       5.918   2.903  22.519  0.00  0.00    +0.023 A 
ATOM     10  C   UNL     1       6.171   4.271  22.346  0.00  0.00    +0.007 A 
ATOM     11  C   UNL     1       7.363   4.851  22.810  0.00  0.00    -0.030 A 
ATOM     12  C   UNL     1       7.618   6.326  22.607  0.00  0.00    +0.116 C 
ATOM     13  N   UNL     1       8.652   6.867  23.499  0.00  0.00    -0.311 NA
ATOM     14  H   UNL     1       8.857   7.823  23.217  0.00  0.00    +0.122 HD
ATOM     15  C   UNL     1       9.866   6.056  23.383  0.00  0.00    +0.089 C 
BRANCH   5  16
ATOM     16  C   UNL     1      10.884   3.736  23.604  0.00  0.00    +0.006 C 
ATOM     17  C   UNL     1      12.157   4.504  23.260  0.00  0.00    +0.004 C 
ENDBRANCH   5  16
ENDBRANCH   1   8
BRANCH   3  18
ATOM     18  C   UNL     1       7.028  -1.702  23.085  0.00  0.00    +0.038 A 
ATOM     19  C   UNL     1       5.939  -1.893  23.951  0.00  0.00    +0.021 A 
ATOM     20  C   UNL     1       5.412  -3.165  24.185  0.00  0.00    -0.017 A 
ATOM     21  C   UNL     1       6.004  -4.284  23.560  0.00  0.00    -0.017 A 
ATOM     22  C   UNL     1       5.454  -5.555  23.791  0.00  0.00    +0.024 A 
ATOM     23  C   UNL     1       4.327  -5.710  24.614  0.00  0.00    +0.065 A 
ATOM     24  C   UNL     1       3.749  -4.597  25.226  0.00  0.00    +0.016 A 
ATOM     25  C   UNL     1       7.109  -4.087  22.709  0.00  0.00    +0.009 A 
ATOM     26  C   UNL     1       4.293  -3.332  25.013  0.00  0.00    +0.009 A 
ATOM     27  C   UNL     1       7.615  -2.803  22.462  0.00  0.00    +0.013 A 
BRANCH  23  28
ATOM     28  C   UNL     1       3.764  -7.069  24.837  0.00  0.00    +0.308 C 
ATOM     29  N   UNL     1       3.346  -7.829  23.876  0.00  0.00    -0.099 NA
ATOM     30  H   UNL     1       3.505  -7.400  22.960  0.00  0.00    +0.363 HD
ATOM     31  N   UNL     1       3.658  -7.567  26.100  0.00  0.00    -0.247 N 
ATOM     32  H   UNL     1       3.066  -8.394  26.108  0.00  0.00    +0.288 HD
ATOM     33  H   UNL     1       3.399  -6.900  26.817  0.00  0.00    +0.288 HD
ENDBRANCH  23  28
ENDBRANCH   3  18
TORSDOF 4
ENDMDL
MODEL 7
REMARK VINA RESULT:      -7.4      2.074     10.036
REMARK  Name = 
REMARK  5 active torsions:
REMARK  status: ('A' for Active; 'I' for Inactive)
REMARK    1  A    between atoms: C_2  and  C_3
REMARK    2  A    between atoms: C_3  and  C_4
REMARK    3  A    between atoms: C_11  and  N_12
REMARK    4  A    between atoms: C_13  and  C_15
REMARK    5  A    between atoms: C_20  and  C_25
REMARK                            x       y       z     vdW  Elec       q    Type
REMARK                         _______ _______ _______ _____ _____    ______ ____
ROOT
ATOM      1  N   UNL     1       7.830  -0.479  23.777  0.00  0.00    -0.281 N 
ATOM      2  H   UNL     1       7.090  -0.613  24.451  0.00  0.00    +0.155 HD
ATOM      3  C   UNL     1       8.045  -1.470  22.828  0.00  0.00    +0.248 C 
ATOM      4  O   UNL     1       8.707  -1.346  21.801  0.00  0.00    -0.270 OA
ENDROOT
BRANCH   1   8
ATOM      5  C   UNL     1       7.469   4.462  23.107  0.00  0.00    +0.033 C 
ATOM      6  C   UNL     1       8.299   3.229  23.439  0.00  0.00    -0.037 A 
ATOM      7  C   UNL     1       7.724   1.951  23.387  0.00  0.00    +0.027 A 
ATOM      8  C   UNL     1       8.434   0.803  23.741  0.00  0.00    +0.034 A 
ATOM      9  C   UNL     1       9.783   0.928  24.070  0.00  0.00    +0.023 A 
ATOM     10  C   UNL     1      10.393   2.190  24.069  0.00  0.00    +0.007 A 
ATOM     11  C   UNL     1       9.666   3.345  23.736  0.00  0.00    -0.030 A 
ATOM     12  C   UNL     1      10.341   4.695  23.748  0.00  0.00    +0.116 C 
ATOM     13  N   UNL     1       9.619   5.716  22.977  0.00  0.00    -0.311 NA
ATOM     14  H   UNL     1      10.060   6.618  23.137  0.00  0.00    +0.122 HD
ATOM     15  C   UNL     1       8.227   5.769  23.430  0.00  0.00    +0.089 C 
BRANCH   5  16
ATOM     16  C   UNL     1       6.062   4.475  23.757  0.00  0.00    +0.006 C 
ATOM     17  C   UNL     1       4.897   4.378  22.775  0.00  0.00    +0.004 C 
ENDBRANCH   5  16
ENDBRANCH   1   8
BRANCH   3  18
ATOM     18  C   UNL     1       7.377  -2.779  23.036  0.00  0.00    +0.038 A 
ATOM     19  C   UNL     1       6.128  -2.751  23.679  0.00  0.00    +0.021 A 
ATOM     20  C   UNL     1       5.360  -3.908  23.822  0.00  0.00    -0.017 A 
ATOM     21  C   UNL     1       5.861  -5.135  23.336  0.00  0.00    -0.017 A 
ATOM     22  C   UNL     1       5.071  -6.288  23.472  0.00  0.00    +0.024 A 
ATOM     23  C   UNL     1       3.800  -6.221  24.064  0.00  0.00    +0.065 A 
ATOM     24  C   UNL     1       3.313  -5.002  24.540  0.00  0.00    +0.016 A 
ATOM     25  C   UNL     1       7.124  -5.159  22.712  0.00  0.00    +0.009 A 
ATOM     26  C   UNL     1       4.093  -3.853  24.421  0.00  0.00    +0.009 A 
ATOM     27  C   UNL     1       7.877  -3.987  22.552  0.00  0.00    +0.013 A 
BRANCH  23  28
ATOM     28  C   UNL     1       2.984  -7.458  24.191  0.00  0.00    +0.308 C 
ATOM     29  N   UNL     1       3.030  -8.233  25.228  0.00  0.00    -0.099 NA
ATOM     30  H   UNL     1       3.647  -7.857  25.953  0.00  0.00    +0.363 HD
ATOM     31  N   UNL     1       2.145  -7.831  23.186  0.00  0.00    -0.247 N 
ATOM     32  H   UNL     1       1.830  -8.789  23.322  0.00  0.00    +0.288 HD
ATOM     33  H   UNL     1       2.481  -7.665  22.246  0.00  0.00    +0.288 HD
ENDBRANCH  23  28
ENDBRANCH   3  18
TORSDOF 4
ENDMDL
MODEL 8
REMARK VINA RESULT:      -7.4      1.365      1.565
REMARK  Name = 
REMARK  5 active torsions:
REMARK  status: ('A' for Active; 'I' for Inactive)
REMARK    1  A    between atoms: C_2  and  C_3
REMARK    2  A    between atoms: C_3  and  C_4
REMARK    3  A    between atoms: C_11  and  N_12
REMARK    4  A    between atoms: C_13  and  C_15
REMARK    5  A    between atoms: C_20  and  C_25
REMARK                            x       y       z     vdW  Elec       q    Type
REMARK                         _______ _______ _______ _____ _____    ______ ____
ROOT
ATOM      1  N   UNL     1       6.478  -2.627  23.465  0.00  0.00    -0.281 N 
ATOM      2  H   UNL     1       5.980  -1.750  23.514  0.00  0.00    +0.155 HD
ATOM      3  C   UNL     1       7.863  -2.594  23.382  0.00  0.00    +0.248 C 
ATOM      4  O   UNL     1       8.614  -3.545  23.581  0.00  0.00    -0.270 OA
ENDROOT
BRANCH   1   8
ATOM      5  C   UNL     1       4.205  -5.763  26.626  0.00  0.00    +0.033 C 
ATOM      6  C   UNL     1       4.579  -5.356  25.207  0.00  0.00    -0.037 A 
ATOM      7  C   UNL     1       5.403  -4.243  24.982  0.00  0.00    +0.027 A 
ATOM      8  C   UNL     1       5.720  -3.803  23.697  0.00  0.00    +0.034 A 
ATOM      9  C   UNL     1       5.275  -4.549  22.607  0.00  0.00    +0.023 A 
ATOM     10  C   UNL     1       4.501  -5.700  22.812  0.00  0.00    +0.007 A 
ATOM     11  C   UNL     1       4.163  -6.123  24.108  0.00  0.00    -0.030 A 
ATOM     12  C   UNL     1       3.322  -7.362  24.306  0.00  0.00    +0.116 C 
ATOM     13  N   UNL     1       3.418  -7.922  25.661  0.00  0.00    -0.311 NA
ATOM     14  H   UNL     1       2.733  -8.667  25.754  0.00  0.00    +0.122 HD
ATOM     15  C   UNL     1       3.129  -6.872  26.641  0.00  0.00    +0.089 C 
BRANCH   5  16
ATOM     16  C   UNL     1       3.780  -4.582  27.536  0.00  0.00    +0.006 C 
ATOM     17  C   UNL     1       4.511  -4.501  28.872  0.00  0.00    +0.004 C 
ENDBRANCH   5  16
ENDBRANCH   1   8
BRANCH   3  18
ATOM     18  C   UNL     1       8.505  -1.290  23.083  0.00  0.00    +0.038 A 
ATOM     19  C   UNL     1       8.142  -0.209  23.905  0.00  0.00    +0.021 A 
ATOM     20  C   UNL     1       8.769   1.033  23.787  0.00  0.00    -0.017 A 
ATOM     21  C   UNL     1       9.767   1.214  22.805  0.00  0.00    -0.017 A 
ATOM     22  C   UNL     1      10.400   2.464  22.709  0.00  0.00    +0.024 A 
ATOM     23  C   UNL     1      10.062   3.508  23.583  0.00  0.00    +0.065 A 
ATOM     24  C   UNL     1       9.075   3.318  24.552  0.00  0.00    +0.016 A 
ATOM     25  C   UNL     1      10.109   0.132  21.970  0.00  0.00    +0.009 A 
ATOM     26  C   UNL     1       8.431   2.086  24.649  0.00  0.00    +0.009 A 
ATOM     27  C   UNL     1       9.491  -1.118  22.112  0.00  0.00    +0.013 A 
BRANCH  23  28
ATOM     28  C   UNL     1      10.752   4.820  23.460  0.00  0.00    +0.308 C 
ATOM     29  N   UNL     1      10.122   5.940  23.301  0.00  0.00    -0.099 NA
ATOM     30  H   UNL     1       9.107   5.808  23.328  0.00  0.00    +0.363 HD
ATOM     31  N   UNL     1      12.112   4.885  23.502  0.00  0.00    -0.247 N 
ATOM     32  H   UNL     1      12.435   5.799  23.192  0.00  0.00    +0.288 HD
ATOM     33  H   UNL     1      12.604   4.126  23.047  0.00  0.00    +0.288 HD
ENDBRANCH  23  28
ENDBRANCH   3  18
TORSDOF 4
ENDMDL
MODEL 9
REMARK VINA RESULT:      -7.2      1.547     10.250
REMARK  Name = 
REMARK  5 active torsions:
REMARK  status: ('A' for Active; 'I' for Inactive)
REMARK    1  A    between atoms: C_2  and  C_3
REMARK    2  A    between atoms: C_3  and  C_4
REMARK    3  A    between atoms: C_11  and  N_12
REMARK    4  A    between atoms: C_13  and  C_15
REMARK    5  A    between atoms: C_20  and  C_25
REMARK                            x       y       z     vdW  Elec       q    Type
REMARK                         _______ _______ _______ _____ _____    ______ ____
ROOT
ATOM      1  N   UNL     1       8.417  -0.007  24.749  0.00  0.00    -0.281 N 
ATOM      2  H   UNL     1       8.105  -0.050  25.709  0.00  0.00    +0.155 HD
ATOM      3  C   UNL     1       7.906  -0.932  23.848  0.00  0.00    +0.248 C 
ATOM      4  O   UNL     1       7.974  -0.852  22.625  0.00  0.00    -0.270 OA
ENDROOT
BRANCH   1   8
ATOM      5  C   UNL     1       8.836   4.941  24.171  0.00  0.00    +0.033 C 
ATOM      6  C   UNL     1       9.440   3.544  24.097  0.00  0.00    -0.037 A 
ATOM      7  C   UNL     1       8.654   2.416  24.377  0.00  0.00    +0.027 A 
ATOM      8  C   UNL     1       9.184   1.126  24.379  0.00  0.00    +0.034 A 
ATOM      9  C   UNL     1      10.516   0.950  24.003  0.00  0.00    +0.023 A 
ATOM     10  C   UNL     1      11.301   2.060  23.661  0.00  0.00    +0.007 A 
ATOM     11  C   UNL     1      10.768   3.359  23.686  0.00  0.00    -0.030 A 
ATOM     12  C   UNL     1      11.635   4.541  23.320  0.00  0.00    +0.116 C 
ATOM     13  N   UNL     1      10.865   5.741  22.966  0.00  0.00    -0.311 NA
ATOM     14  H   UNL     1      11.509   6.521  22.859  0.00  0.00    +0.122 HD
ATOM     15  C   UNL     1       9.913   6.040  24.038  0.00  0.00    +0.089 C 
BRANCH   5  16
ATOM     16  C   UNL     1       7.957   5.189  25.424  0.00  0.00    +0.006 C 
ATOM     17  C   UNL     1       7.110   6.458  25.377  0.00  0.00    +0.004 C 
ENDBRANCH   5  16
ENDBRANCH   1   8
BRANCH   3  18
ATOM     18  C   UNL     1       7.164  -2.094  24.400  0.00  0.00    +0.038 A 
ATOM     19  C   UNL     1       6.125  -2.609  23.607  0.00  0.00    +0.021 A 
ATOM     20  C   UNL     1       5.440  -3.768  23.974  0.00  0.00    -0.017 A 
ATOM     21  C   UNL     1       5.779  -4.420  25.179  0.00  0.00    -0.017 A 
ATOM     22  C   UNL     1       5.092  -5.595  25.528  0.00  0.00    +0.024 A 
ATOM     23  C   UNL     1       4.100  -6.122  24.687  0.00  0.00    +0.065 A 
ATOM     24  C   UNL     1       3.773  -5.470  23.496  0.00  0.00    +0.016 A 
ATOM     25  C   UNL     1       6.808  -3.885  25.980  0.00  0.00    +0.009 A 
ATOM     26  C   UNL     1       4.440  -4.297  23.145  0.00  0.00    +0.009 A 
ATOM     27  C   UNL     1       7.506  -2.734  25.590  0.00  0.00    +0.013 A 
BRANCH  23  28
ATOM     28  C   UNL     1       3.392  -7.369  25.080  0.00  0.00    +0.308 C 
ATOM     29  N   UNL     1       3.027  -8.274  24.229  0.00  0.00    -0.099 NA
ATOM     30  H   UNL     1       3.334  -8.045  23.279  0.00  0.00    +0.363 HD
ATOM     31  N   UNL     1       3.088  -7.601  26.387  0.00  0.00    -0.247 N 
ATOM     32  H   UNL     1       2.427  -8.370  26.467  0.00  0.00    +0.288 HD
ATOM     33  H   UNL     1       2.806  -6.791  26.925  0.00  0.00    +0.288 HD
ENDBRANCH  23  28
ENDBRANCH   3  18
TORSDOF 4
ENDMDL
