MODEL 1
REMARK VINA RESULT:      -6.7      0.000      0.000
REMARK  Name = 
REMARK  7 active torsions:
REMARK  status: ('A' for Active; 'I' for Inactive)
REMARK    1  A    between atoms: C_1  and  C_2
REMARK    2  A    between atoms: C_4  and  C_27
REMARK    3  A    between atoms: C_6  and  C_7
REMARK    4  A    between atoms: C_8  and  O_9
REMARK    5  A    between atoms: O_9  and  C_10
REMARK    6  A    between atoms: N_17  and  C_18
REMARK    7  A    between atoms: C_21  and  C_24
REMARK                            x       y       z     vdW  Elec       q    Type
REMARK                         _______ _______ _______ _____ _____    ______ ____
ROOT
ATOM      1  C   UNL     1       6.275  -3.479  25.219  0.00  0.00    +0.241 A 
ATOM      2  N   UNL     1       7.141  -3.045  24.291  0.00  0.00    -0.178 NA
ATOM      3  C   UNL     1       7.269  -1.727  24.077  0.00  0.00    +0.224 A 
ATOM      4  N   UNL     1       8.320  -1.345  23.231  0.00  0.00    -0.283 N 
ATOM      5  H   UNL     1       8.808  -2.177  22.930  0.00  0.00    +0.155 HD
ATOM      6  N   UNL     1       6.494  -0.827  24.678  0.00  0.00    -0.198 NA
ATOM      7  C   UNL     1       5.557  -1.271  25.526  0.00  0.00    +0.139 A 
ATOM      8  N   UNL     1       4.817  -0.251  26.126  0.00  0.00    -0.342 N 
ATOM      9  H   UNL     1       5.096   0.629  25.697  0.00  0.00    +0.144 HD
ATOM     10  H   UNL     1       3.817  -0.409  26.075  0.00  0.00    +0.144 HD
ATOM     11  C   UNL     1       5.393  -2.614  25.835  0.00  0.00    +0.119 A 
ATOM     12 BR   UNL     1       4.036  -3.197  27.017  0.00  0.00    -0.041 Br
ENDROOT
BRANCH   4  13
ATOM     13  C   UNL     1       9.079  -0.161  23.205  0.00  0.00    +0.034 A 
ATOM     14  C   UNL     1       9.829   0.204  24.338  0.00  0.00    +0.024 A 
ATOM     15  C   UNL     1      10.572   1.392  24.374  0.00  0.00    +0.020 A 
ATOM     16  C   UNL     1      10.600   2.240  23.253  0.00  0.00    +0.052 A 
ATOM     17  C   UNL     1       9.888   1.867  22.111  0.00  0.00    +0.020 A 
ATOM     18  C   UNL     1       9.148   0.682  22.089  0.00  0.00    +0.024 A 
BRANCH  16  19
ATOM     19  C   UNL     1      11.337   3.478  23.287  0.00  0.00    +0.099 C 
ATOM     20  N   UNL     1      11.930   4.476  23.316  0.00  0.00    -0.191 NA
ENDBRANCH  16  19
ENDBRANCH   4  13
BRANCH   1  21
ATOM     21  O   UNL     1       6.176  -4.837  25.522  0.00  0.00    -0.436 OA
BRANCH  21  24
ATOM     22  C   UNL     1       5.395  -5.238  22.427  0.00  0.00    +0.047 C 
ATOM     23  C   UNL     1       4.811  -5.864  23.654  0.00  0.00    -0.007 A 
ATOM     24  C   UNL     1       5.287  -5.756  24.980  0.00  0.00    +0.136 A 
ATOM     25  C   UNL     1       4.670  -6.589  25.966  0.00  0.00    -0.007 A 
ATOM     26  C   UNL     1       5.179  -6.674  27.386  0.00  0.00    +0.047 C 
ATOM     27  C   UNL     1       3.557  -7.400  25.646  0.00  0.00    +0.025 A 
ATOM     28  C   UNL     1       3.048  -7.422  24.357  0.00  0.00    +0.052 A 
ATOM     29  C   UNL     1       3.684  -6.674  23.378  0.00  0.00    +0.025 A 
BRANCH  28  30
ATOM     30  C   UNL     1       1.907  -8.217  24.007  0.00  0.00    +0.099 C 
ATOM     31  N   UNL     1       0.970  -8.831  23.703  0.00  0.00    -0.191 NA
ENDBRANCH  28  30
ENDBRANCH  21  24
ENDBRANCH   1  21
TORSDOF 5
ENDMDL
MODEL 2
REMARK VINA RESULT:      -6.6      2.115      2.999
REMARK  Name = 
REMARK  7 active torsions:
REMARK  status: ('A' for Active; 'I' for Inactive)
REMARK    1  A    between atoms: C_1  and  C_2
REMARK    2  A    between atoms: C_4  and  C_27
REMARK    3  A    between atoms: C_6  and  C_7
REMARK    4  A    between atoms: C_8  and  O_9
REMARK    5  A    between atoms: O_9  and  C_10
REMARK    6  A    between atoms: N_17  and  C_18
REMARK    7  A    between atoms: C_21  and  C_24
REMARK                            x       y       z     vdW  Elec       q    Type
REMARK                         _______ _______ _______ _____ _____    ______ ____
ROOT
ATOM      1  C   UNL     1       7.748  -2.339  24.266  0.00  0.00    +0.241 A 
ATOM      2  N   UNL     1       7.639  -1.160  23.636  0.00  0.00    -0.178 NA
ATOM      3  C   UNL     1       8.087  -0.049  24.238  0.00  0.00    +0.224 A 
ATOM      4  N   UNL     1       8.108   1.109  23.448  0.00  0.00    -0.283 N 
ATOM      5  H   UNL     1       7.766   0.874  22.527  0.00  0.00    +0.155 HD
ATOM      6  N   UNL     1       8.548  -0.051  25.488  0.00  0.00    -0.198 NA
ATOM      7  C   UNL     1       8.558  -1.213  26.152  0.00  0.00    +0.139 A 
ATOM      8  N   UNL     1       9.085  -1.116  27.441  0.00  0.00    -0.342 N 
ATOM      9  H   UNL     1       9.260  -0.132  27.632  0.00  0.00    +0.144 HD
ATOM     10  H   UNL     1       8.495  -1.549  28.141  0.00  0.00    +0.144 HD
ATOM     11  C   UNL     1       8.155  -2.412  25.583  0.00  0.00    +0.119 A 
ATOM     12 BR   UNL     1       8.158  -4.026  26.571  0.00  0.00    -0.041 Br
ENDROOT
BRANCH   4  13
ATOM     13  C   UNL     1       8.952   2.233  23.507  0.00  0.00    +0.034 A 
ATOM     14  C   UNL     1      10.317   2.089  23.197  0.00  0.00    +0.024 A 
ATOM     15  C   UNL     1      11.205   3.170  23.277  0.00  0.00    +0.020 A 
ATOM     16  C   UNL     1      10.736   4.442  23.650  0.00  0.00    +0.052 A 
ATOM     17  C   UNL     1       9.376   4.601  23.924  0.00  0.00    +0.020 A 
ATOM     18  C   UNL     1       8.501   3.514  23.845  0.00  0.00    +0.024 A 
BRANCH  16  19
ATOM     19  C   UNL     1      11.642   5.556  23.763  0.00  0.00    +0.099 C 
ATOM     20  N   UNL     1      12.375   6.453  23.853  0.00  0.00    -0.191 NA
ENDBRANCH  16  19
ENDBRANCH   4  13
BRANCH   1  21
ATOM     21  O   UNL     1       7.365  -3.523  23.634  0.00  0.00    -0.436 OA
BRANCH  21  24
ATOM     22  C   UNL     1       4.676  -2.503  25.076  0.00  0.00    +0.047 C 
ATOM     23  C   UNL     1       4.900  -3.685  24.185  0.00  0.00    -0.007 A 
ATOM     24  C   UNL     1       6.073  -4.006  23.467  0.00  0.00    +0.136 A 
ATOM     25  C   UNL     1       5.995  -5.091  22.538  0.00  0.00    -0.007 A 
ATOM     26  C   UNL     1       7.134  -5.443  21.609  0.00  0.00    +0.047 C 
ATOM     27  C   UNL     1       4.826  -5.878  22.430  0.00  0.00    +0.025 A 
ATOM     28  C   UNL     1       3.714  -5.602  23.210  0.00  0.00    +0.052 A 
ATOM     29  C   UNL     1       3.755  -4.508  24.061  0.00  0.00    +0.025 A 
BRANCH  28  30
ATOM     30  C   UNL     1       2.522  -6.395  23.138  0.00  0.00    +0.099 C 
ATOM     31  N   UNL     1       1.559  -7.034  23.040  0.00  0.00    -0.191 NA
ENDBRANCH  28  30
ENDBRANCH  21  24
ENDBRANCH   1  21
TORSDOF 5
ENDMDL
MODEL 3
REMARK VINA RESULT:      -6.6      3.601     10.174
REMARK  Name = 
REMARK  7 active torsions:
REMARK  status: ('A' for Active; 'I' for Inactive)
REMARK    1  A    between atoms: C_1  and  C_2
REMARK    2  A    between atoms: C_4  and  C_27
REMARK    3  A    between atoms: C_6  and  C_7
REMARK    4  A    between atoms: C_8  and  O_9
REMARK    5  A    between atoms: O_9  and  C_10
REMARK    6  A    between atoms: N_17  and  C_18
REMARK    7  A    between atoms: C_21  and  C_24
REMARK                            x       y       z     vdW  Elec       q    Type
REMARK                         _______ _______ _______ _____ _____    ______ ____
ROOT
ATOM      1  C   UNL     1       6.978   3.155  25.063  0.00  0.00    +0.241 A 
ATOM      2  N   UNL     1       6.944   1.920  25.584  0.00  0.00    -0.178 NA
ATOM      3  C   UNL     1       5.930   1.101  25.270  0.00  0.00    +0.224 A 
ATOM      4  N   UNL     1       6.059  -0.226  25.701  0.00  0.00    -0.283 N 
ATOM      5  H   UNL     1       6.939  -0.320  26.190  0.00  0.00    +0.155 HD
ATOM      6  N   UNL     1       4.892   1.499  24.537  0.00  0.00    -0.198 NA
ATOM      7  C   UNL     1       4.877   2.767  24.104  0.00  0.00    +0.139 A 
ATOM      8  N   UNL     1       3.764   3.078  23.322  0.00  0.00    -0.342 N 
ATOM      9  H   UNL     1       3.140   2.274  23.335  0.00  0.00    +0.144 HD
ATOM     10  H   UNL     1       3.304   3.932  23.614  0.00  0.00    +0.144 HD
ATOM     11  C   UNL     1       5.909   3.660  24.348  0.00  0.00    +0.119 A 
ATOM     12 BR   UNL     1       5.831   5.451  23.743  0.00  0.00    -0.041 Br
ENDROOT
BRANCH   4  13
ATOM     13  C   UNL     1       5.551  -1.415  25.146  0.00  0.00    +0.034 A 
ATOM     14  C   UNL     1       6.077  -1.889  23.930  0.00  0.00    +0.024 A 
ATOM     15  C   UNL     1       5.580  -3.048  23.318  0.00  0.00    +0.020 A 
ATOM     16  C   UNL     1       4.548  -3.781  23.930  0.00  0.00    +0.052 A 
ATOM     17  C   UNL     1       4.046  -3.337  25.155  0.00  0.00    +0.020 A 
ATOM     18  C   UNL     1       4.548  -2.178  25.753  0.00  0.00    +0.024 A 
BRANCH  16  19
ATOM     19  C   UNL     1       4.008  -4.958  23.299  0.00  0.00    +0.099 C 
ATOM     20  N   UNL     1       3.576  -5.908  22.790  0.00  0.00    -0.191 NA
ENDBRANCH  16  19
ENDBRANCH   4  13
BRANCH   1  21
ATOM     21  O   UNL     1       8.059   4.002  25.305  0.00  0.00    -0.436 OA
BRANCH  21  24
ATOM     22  C   UNL     1       9.567   1.864  23.432  0.00  0.00    +0.047 C 
ATOM     23  C   UNL     1       9.934   3.276  23.767  0.00  0.00    -0.007 A 
ATOM     24  C   UNL     1       9.161   4.215  24.485  0.00  0.00    +0.136 A 
ATOM     25  C   UNL     1       9.641   5.562  24.528  0.00  0.00    -0.007 A 
ATOM     26  C   UNL     1       8.839   6.687  25.140  0.00  0.00    +0.047 C 
ATOM     27  C   UNL     1      10.893   5.909  23.973  0.00  0.00    +0.025 A 
ATOM     28  C   UNL     1      11.680   4.952  23.351  0.00  0.00    +0.052 A 
ATOM     29  C   UNL     1      11.190   3.660  23.240  0.00  0.00    +0.025 A 
BRANCH  28  30
ATOM     30  C   UNL     1      12.963   5.270  22.797  0.00  0.00    +0.099 C 
ATOM     31  N   UNL     1      13.989   5.517  22.313  0.00  0.00    -0.191 NA
ENDBRANCH  28  30
ENDBRANCH  21  24
ENDBRANCH   1  21
TORSDOF 5
ENDMDL
MODEL 4
REMARK VINA RESULT:      -6.5      3.561      9.429
REMARK  Name = 
REMARK  7 active torsions:
REMARK  status: ('A' for Active; 'I' for Inactive)
REMARK    1  A    between atoms: C_1  and  C_2
REMARK    2  A    between atoms: C_4  and  C_27
REMARK    3  A    between atoms: C_6  and  C_7
REMARK    4  A    between atoms: C_8  and  O_9
REMARK    5  A    between atoms: O_9  and  C_10
REMARK    6  A    between atoms: N_17  and  C_18
REMARK    7  A    between atoms: C_21  and  C_24
REMARK                            x       y       z     vdW  Elec       q    Type
REMARK                         _______ _______ _______ _____ _____    ______ ____
ROOT
ATOM      1  C   UNL     1       8.050   0.303  23.491  0.00  0.00    +0.241 A 
ATOM      2  N   UNL     1       6.949  -0.321  23.045  0.00  0.00    -0.178 NA
ATOM      3  C   UNL     1       6.925  -1.660  23.002  0.00  0.00    +0.224 A 
ATOM      4  N   UNL     1       5.684  -2.239  22.702  0.00  0.00    -0.283 N 
ATOM      5  H   UNL     1       5.008  -1.499  22.571  0.00  0.00    +0.155 HD
ATOM      6  N   UNL     1       7.991  -2.404  23.290  0.00  0.00    -0.198 NA
ATOM      7  C   UNL     1       9.122  -1.774  23.634  0.00  0.00    +0.139 A 
ATOM      8  N   UNL     1      10.172  -2.640  23.944  0.00  0.00    -0.342 N 
ATOM      9  H   UNL     1       9.865  -3.588  23.737  0.00  0.00    +0.144 HD
ATOM     10  H   UNL     1      11.034  -2.399  23.469  0.00  0.00    +0.144 HD
ATOM     11  C   UNL     1       9.214  -0.395  23.746  0.00  0.00    +0.119 A 
ATOM     12 BR   UNL     1      10.842   0.453  24.207  0.00  0.00    -0.041 Br
ENDROOT
BRANCH   4  13
ATOM     13  C   UNL     1       5.146  -3.483  23.083  0.00  0.00    +0.034 A 
ATOM     14  C   UNL     1       4.358  -3.567  24.245  0.00  0.00    +0.024 A 
ATOM     15  C   UNL     1       3.830  -4.789  24.686  0.00  0.00    +0.020 A 
ATOM     16  C   UNL     1       4.064  -5.964  23.951  0.00  0.00    +0.052 A 
ATOM     17  C   UNL     1       4.815  -5.882  22.776  0.00  0.00    +0.020 A 
ATOM     18  C   UNL     1       5.339  -4.659  22.350  0.00  0.00    +0.024 A 
BRANCH  16  19
ATOM     19  C   UNL     1       3.553  -7.231  24.408  0.00  0.00    +0.099 C 
ATOM     20  N   UNL     1       3.137  -8.251  24.777  0.00  0.00    -0.191 NA
ENDBRANCH  16  19
ENDBRANCH   4  13
BRANCH   1  21
ATOM     21  O   UNL     1       8.079   1.691  23.624  0.00  0.00    -0.436 OA
BRANCH  21  24
ATOM     22  C   UNL     1       6.455   0.841  26.269  0.00  0.00    +0.047 C 
ATOM     23  C   UNL     1       7.081   2.151  25.904  0.00  0.00    -0.007 A 
ATOM     24  C   UNL     1       7.902   2.427  24.789  0.00  0.00    +0.136 A 
ATOM     25  C   UNL     1       8.532   3.711  24.743  0.00  0.00    -0.007 A 
ATOM     26  C   UNL     1       9.544   4.078  23.682  0.00  0.00    +0.047 C 
ATOM     27  C   UNL     1       8.252   4.698  25.715  0.00  0.00    +0.025 A 
ATOM     28  C   UNL     1       7.371   4.437  26.753  0.00  0.00    +0.052 A 
ATOM     29  C   UNL     1       6.811   3.172  26.847  0.00  0.00    +0.025 A 
BRANCH  28  30
ATOM     30  C   UNL     1       7.050   5.425  27.741  0.00  0.00    +0.099 C 
ATOM     31  N   UNL     1       6.825   6.217  28.558  0.00  0.00    -0.191 NA
ENDBRANCH  28  30
ENDBRANCH  21  24
ENDBRANCH   1  21
TORSDOF 5
ENDMDL
MODEL 5
REMARK VINA RESULT:      -6.4      2.663      3.335
REMARK  Name = 
REMARK  7 active torsions:
REMARK  status: ('A' for Active; 'I' for Inactive)
REMARK    1  A    between atoms: C_1  and  C_2
REMARK    2  A    between atoms: C_4  and  C_27
REMARK    3  A    between atoms: C_6  and  C_7
REMARK    4  A    between atoms: C_8  and  O_9
REMARK    5  A    between atoms: O_9  and  C_10
REMARK    6  A    between atoms: N_17  and  C_18
REMARK    7  A    between atoms: C_21  and  C_24
REMARK                            x       y       z     vdW  Elec       q    Type
REMARK                         _______ _______ _______ _____ _____    ______ ____
ROOT
ATOM      1  C   UNL     1       7.230  -2.909  24.745  0.00  0.00    +0.241 A 
ATOM      2  N   UNL     1       6.452  -1.960  24.202  0.00  0.00    -0.178 NA
ATOM      3  C   UNL     1       6.689  -0.672  24.488  0.00  0.00    +0.224 A 
ATOM      4  N   UNL     1       5.959   0.264  23.743  0.00  0.00    -0.283 N 
ATOM      5  H   UNL     1       5.364  -0.235  23.097  0.00  0.00    +0.155 HD
ATOM      6  N   UNL     1       7.607  -0.295  25.376  0.00  0.00    -0.198 NA
ATOM      7  C   UNL     1       8.312  -1.251  25.996  0.00  0.00    +0.139 A 
ATOM      8  N   UNL     1       9.267  -0.754  26.885  0.00  0.00    -0.342 N 
ATOM      9  H   UNL     1       9.145   0.255  26.940  0.00  0.00    +0.144 HD
ATOM     10  H   UNL     1       9.228  -1.201  27.794  0.00  0.00    +0.144 HD
ATOM     11  C   UNL     1       8.158  -2.602  25.721  0.00  0.00    +0.119 A 
ATOM     12 BR   UNL     1       9.155  -3.919  26.644  0.00  0.00    -0.041 Br
ENDROOT
BRANCH   4  13
ATOM     13  C   UNL     1       6.288   1.578  23.364  0.00  0.00    +0.034 A 
ATOM     14  C   UNL     1       5.854   2.655  24.158  0.00  0.00    +0.024 A 
ATOM     15  C   UNL     1       6.125   3.984  23.804  0.00  0.00    +0.020 A 
ATOM     16  C   UNL     1       6.867   4.266  22.643  0.00  0.00    +0.052 A 
ATOM     17  C   UNL     1       7.333   3.202  21.870  0.00  0.00    +0.020 A 
ATOM     18  C   UNL     1       7.052   1.881  22.231  0.00  0.00    +0.024 A 
BRANCH  16  19
ATOM     19  C   UNL     1       7.129   5.628  22.252  0.00  0.00    +0.099 C 
ATOM     20  N   UNL     1       7.337   6.726  21.936  0.00  0.00    -0.191 NA
ENDBRANCH  16  19
ENDBRANCH   4  13
BRANCH   1  21
ATOM     21  O   UNL     1       7.061  -4.251  24.405  0.00  0.00    -0.436 OA
BRANCH  21  24
ATOM     22  C   UNL     1       5.925  -5.239  27.248  0.00  0.00    +0.047 C 
ATOM     23  C   UNL     1       5.506  -5.616  25.862  0.00  0.00    -0.007 A 
ATOM     24  C   UNL     1       5.947  -5.045  24.648  0.00  0.00    +0.136 A 
ATOM     25  C   UNL     1       5.273  -5.447  23.452  0.00  0.00    -0.007 A 
ATOM     26  C   UNL     1       5.553  -4.808  22.112  0.00  0.00    +0.047 C 
ATOM     27  C   UNL     1       4.285  -6.458  23.475  0.00  0.00    +0.025 A 
ATOM     28  C   UNL     1       3.929  -7.071  24.666  0.00  0.00    +0.052 A 
ATOM     29  C   UNL     1       4.526  -6.637  25.840  0.00  0.00    +0.025 A 
BRANCH  28  30
ATOM     30  C   UNL     1       2.946  -8.113  24.717  0.00  0.00    +0.099 C 
ATOM     31  N   UNL     1       2.123  -8.930  24.751  0.00  0.00    -0.191 NA
ENDBRANCH  28  30
ENDBRANCH  21  24
ENDBRANCH   1  21
TORSDOF 5
ENDMDL
MODEL 6
REMARK VINA RESULT:      -6.4      2.529      9.762
REMARK  Name = 
REMARK  7 active torsions:
REMARK  status: ('A' for Active; 'I' for Inactive)
REMARK    1  A    between atoms: C_1  and  C_2
REMARK    2  A    between atoms: C_4  and  C_27
REMARK    3  A    between atoms: C_6  and  C_7
REMARK    4  A    between atoms: C_8  and  O_9
REMARK    5  A    between atoms: O_9  and  C_10
REMARK    6  A    between atoms: N_17  and  C_18
REMARK    7  A    between atoms: C_21  and  C_24
REMARK                            x       y       z     vdW  Elec       q    Type
REMARK                         _______ _______ _______ _____ _____    ______ ____
ROOT
ATOM      1  C   UNL     1       7.103   0.791  24.111  0.00  0.00    +0.241 A 
ATOM      2  N   UNL     1       7.177  -0.415  23.526  0.00  0.00    -0.178 NA
ATOM      3  C   UNL     1       6.881  -1.510  24.240  0.00  0.00    +0.224 A 
ATOM      4  N   UNL     1       6.800  -2.708  23.515  0.00  0.00    -0.283 N 
ATOM      5  H   UNL     1       6.988  -2.507  22.543  0.00  0.00    +0.155 HD
ATOM      6  N   UNL     1       6.613  -1.463  25.543  0.00  0.00    -0.198 NA
ATOM      7  C   UNL     1       6.643  -0.269  26.148  0.00  0.00    +0.139 A 
ATOM      8  N   UNL     1       6.320  -0.320  27.505  0.00  0.00    -0.342 N 
ATOM      9  H   UNL     1       6.227  -1.300  27.765  0.00  0.00    +0.144 HD
ATOM     10  H   UNL     1       6.987   0.174  28.087  0.00  0.00    +0.144 HD
ATOM     11  C   UNL     1       6.895   0.915  25.470  0.00  0.00    +0.119 A 
ATOM     12 BR   UNL     1       6.958   2.577  26.373  0.00  0.00    -0.041 Br
ENDROOT
BRANCH   4  13
ATOM     13  C   UNL     1       6.032  -3.863  23.753  0.00  0.00    +0.034 A 
ATOM     14  C   UNL     1       4.861  -4.079  23.006  0.00  0.00    +0.024 A 
ATOM     15  C   UNL     1       4.043  -5.196  23.230  0.00  0.00    +0.020 A 
ATOM     16  C   UNL     1       4.398  -6.144  24.206  0.00  0.00    +0.052 A 
ATOM     17  C   UNL     1       5.579  -5.955  24.926  0.00  0.00    +0.020 A 
ATOM     18  C   UNL     1       6.383  -4.836  24.696  0.00  0.00    +0.024 A 
BRANCH  16  19
ATOM     19  C   UNL     1       3.553  -7.281  24.467  0.00  0.00    +0.099 C 
ATOM     20  N   UNL     1       2.873  -8.199  24.679  0.00  0.00    -0.191 NA
ENDBRANCH  16  19
ENDBRANCH   4  13
BRANCH   1  21
ATOM     21  O   UNL     1       7.327   1.955  23.375  0.00  0.00    -0.436 OA
BRANCH  21  24
ATOM     22  C   UNL     1      10.294   0.788  22.940  0.00  0.00    +0.047 C 
ATOM     23  C   UNL     1       9.843   2.186  23.226  0.00  0.00    -0.007 A 
ATOM     24  C   UNL     1       8.516   2.666  23.270  0.00  0.00    +0.136 A 
ATOM     25  C   UNL     1       8.335   4.081  23.386  0.00  0.00    -0.007 A 
ATOM     26  C   UNL     1       6.974   4.732  23.301  0.00  0.00    +0.047 C 
ATOM     27  C   UNL     1       9.438   4.947  23.564  0.00  0.00    +0.025 A 
ATOM     28  C   UNL     1      10.730   4.444  23.609  0.00  0.00    +0.052 A 
ATOM     29  C   UNL     1      10.920   3.083  23.425  0.00  0.00    +0.025 A 
BRANCH  28  30
ATOM     30  C   UNL     1      11.866   5.295  23.809  0.00  0.00    +0.099 C 
ATOM     31  N   UNL     1      12.794   5.964  24.004  0.00  0.00    -0.191 NA
ENDBRANCH  28  30
ENDBRANCH  21  24
ENDBRANCH   1  21
TORSDOF 5
ENDMDL
MODEL 7
REMARK VINA RESULT:      -6.2      2.725      9.457
REMARK  Name = 
REMARK  7 active torsions:
REMARK  status: ('A' for Active; 'I' for Inactive)
REMARK    1  A    between atoms: C_1  and  C_2
REMARK    2  A    between atoms: C_4  and  C_27
REMARK    3  A    between atoms: C_6  and  C_7
REMARK    4  A    between atoms: C_8  and  O_9
REMARK    5  A    between atoms: O_9  and  C_10
REMARK    6  A    between atoms: N_17  and  C_18
REMARK    7  A    between atoms: C_21  and  C_24
REMARK                            x       y       z     vdW  Elec       q    Type
REMARK                         _______ _______ _______ _____ _____    ______ ____
ROOT
ATOM      1  C   UNL     1       7.290  -2.017  22.974  0.00  0.00    +0.241 A 
ATOM      2  N   UNL     1       6.056  -2.484  22.731  0.00  0.00    -0.178 NA
ATOM      3  C   UNL     1       5.731  -3.722  23.131  0.00  0.00    +0.224 A 
ATOM      4  N   UNL     1       4.378  -4.068  23.008  0.00  0.00    -0.283 N 
ATOM      5  H   UNL     1       3.878  -3.278  22.625  0.00  0.00    +0.155 HD
ATOM      6  N   UNL     1       6.618  -4.553  23.673  0.00  0.00    -0.198 NA
ATOM      7  C   UNL     1       7.877  -4.121  23.819  0.00  0.00    +0.139 A 
ATOM      8  N   UNL     1       8.722  -5.053  24.422  0.00  0.00    -0.342 N 
ATOM      9  H   UNL     1       8.201  -5.920  24.532  0.00  0.00    +0.144 HD
ATOM     10  H   UNL     1       9.591  -5.183  23.915  0.00  0.00    +0.144 HD
ATOM     11  C   UNL     1       8.281  -2.839  23.473  0.00  0.00    +0.119 A 
ATOM     12 BR   UNL     1      10.078  -2.282  23.669  0.00  0.00    -0.041 Br
ENDROOT
BRANCH   4  13
ATOM     13  C   UNL     1       3.598  -4.962  23.764  0.00  0.00    +0.034 A 
ATOM     14  C   UNL     1       3.184  -4.594  25.057  0.00  0.00    +0.024 A 
ATOM     15  C   UNL     1       2.436  -5.464  25.863  0.00  0.00    +0.020 A 
ATOM     16  C   UNL     1       2.062  -6.729  25.377  0.00  0.00    +0.052 A 
ATOM     17  C   UNL     1       2.438  -7.087  24.080  0.00  0.00    +0.020 A 
ATOM     18  C   UNL     1       3.186  -6.212  23.288  0.00  0.00    +0.024 A 
BRANCH  16  19
ATOM     19  C   UNL     1       1.318  -7.644  26.204  0.00  0.00    +0.099 C 
ATOM     20  N   UNL     1       0.721  -8.383  26.873  0.00  0.00    -0.191 NA
ENDBRANCH  16  19
ENDBRANCH   4  13
BRANCH   1  21
ATOM     21  O   UNL     1       7.634  -0.707  22.643  0.00  0.00    -0.436 OA
BRANCH  21  24
ATOM     22  C   UNL     1       6.327  -0.218  25.542  0.00  0.00    +0.047 C 
ATOM     23  C   UNL     1       7.212   0.670  24.725  0.00  0.00    -0.007 A 
ATOM     24  C   UNL     1       7.871   0.346  23.519  0.00  0.00    +0.136 A 
ATOM     25  C   UNL     1       8.810   1.298  23.010  0.00  0.00    -0.007 A 
ATOM     26  C   UNL     1       9.682   1.013  21.809  0.00  0.00    +0.047 C 
ATOM     27  C   UNL     1       8.984   2.557  23.630  0.00  0.00    +0.025 A 
ATOM     28  C   UNL     1       8.260   2.891  24.764  0.00  0.00    +0.052 A 
ATOM     29  C   UNL     1       7.401   1.946  25.306  0.00  0.00    +0.025 A 
BRANCH  28  30
ATOM     30  C   UNL     1       8.399   4.167  25.403  0.00  0.00    +0.099 C 
ATOM     31  N   UNL     1       8.545   5.187  25.935  0.00  0.00    -0.191 NA
ENDBRANCH  28  30
ENDBRANCH  21  24
ENDBRANCH   1  21
TORSDOF 5
ENDMDL
MODEL 8
REMARK VINA RESULT:      -6.2      2.684      3.216
REMARK  Name = 
REMARK  7 active torsions:
REMARK  status: ('A' for Active; 'I' for Inactive)
REMARK    1  A    between atoms: C_1  and  C_2
REMARK    2  A    between atoms: C_4  and  C_27
REMARK    3  A    between atoms: C_6  and  C_7
REMARK    4  A    between atoms: C_8  and  O_9
REMARK    5  A    between atoms: O_9  and  C_10
REMARK    6  A    between atoms: N_17  and  C_18
REMARK    7  A    between atoms: C_21  and  C_24
REMARK                            x       y       z     vdW  Elec       q    Type
REMARK                         _______ _______ _______ _____ _____    ______ ____
ROOT
ATOM      1  C   UNL     1       7.424  -2.514  25.917  0.00  0.00    +0.241 A 
ATOM      2  N   UNL     1       7.111  -1.231  26.151  0.00  0.00    -0.178 NA
ATOM      3  C   UNL     1       7.758  -0.265  25.483  0.00  0.00    +0.224 A 
ATOM      4  N   UNL     1       7.251   1.033  25.644  0.00  0.00    -0.283 N 
ATOM      5  H   UNL     1       6.452   0.991  26.261  0.00  0.00    +0.155 HD
ATOM      6  N   UNL     1       8.777  -0.520  24.665  0.00  0.00    -0.198 NA
ATOM      7  C   UNL     1       9.156  -1.796  24.514  0.00  0.00    +0.139 A 
ATOM      8  N   UNL     1      10.211  -1.963  23.616  0.00  0.00    -0.342 N 
ATOM      9  H   UNL     1      10.534  -1.038  23.340  0.00  0.00    +0.144 HD
ATOM     10  H   UNL     1      10.957  -2.540  23.987  0.00  0.00    +0.144 HD
ATOM     11  C   UNL     1       8.509  -2.855  25.133  0.00  0.00    +0.119 A 
ATOM     12 BR   UNL     1       9.100  -4.639  24.914  0.00  0.00    -0.041 Br
ENDROOT
BRANCH   4  13
ATOM     13  C   UNL     1       7.273   2.131  24.764  0.00  0.00    +0.034 A 
ATOM     14  C   UNL     1       8.070   3.248  25.074  0.00  0.00    +0.024 A 
ATOM     15  C   UNL     1       8.098   4.381  24.249  0.00  0.00    +0.020 A 
ATOM     16  C   UNL     1       7.336   4.410  23.067  0.00  0.00    +0.052 A 
ATOM     17  C   UNL     1       6.571   3.291  22.734  0.00  0.00    +0.020 A 
ATOM     18  C   UNL     1       6.549   2.169  23.567  0.00  0.00    +0.024 A 
BRANCH  16  19
ATOM     19  C   UNL     1       7.333   5.579  22.224  0.00  0.00    +0.099 C 
ATOM     20  N   UNL     1       7.328   6.521  21.545  0.00  0.00    -0.191 NA
ENDBRANCH  16  19
ENDBRANCH   4  13
BRANCH   1  21
ATOM     21  O   UNL     1       6.716  -3.545  26.535  0.00  0.00    -0.436 OA
BRANCH  21  24
ATOM     22  C   UNL     1       5.307  -3.467  23.643  0.00  0.00    +0.047 C 
ATOM     23  C   UNL     1       5.235  -4.504  24.720  0.00  0.00    -0.007 A 
ATOM     24  C   UNL     1       5.986  -4.552  25.915  0.00  0.00    +0.136 A 
ATOM     25  C   UNL     1       5.875  -5.736  26.711  0.00  0.00    -0.007 A 
ATOM     26  C   UNL     1       6.731  -5.972  27.934  0.00  0.00    +0.047 C 
ATOM     27  C   UNL     1       4.965  -6.763  26.370  0.00  0.00    +0.025 A 
ATOM     28  C   UNL     1       4.170  -6.655  25.240  0.00  0.00    +0.052 A 
ATOM     29  C   UNL     1       4.322  -5.544  24.424  0.00  0.00    +0.025 A 
BRANCH  28  30
ATOM     30  C   UNL     1       3.222  -7.669  24.881  0.00  0.00    +0.099 C 
ATOM     31  N   UNL     1       2.486  -8.513  24.578  0.00  0.00    -0.191 NA
ENDBRANCH  28  30
ENDBRANCH  21  24
ENDBRANCH   1  21
TORSDOF 5
ENDMDL
MODEL 9
REMARK VINA RESULT:      -6.2      3.679      9.150
REMARK  Name = 
REMARK  7 active torsions:
REMARK  status: ('A' for Active; 'I' for Inactive)
REMARK    1  A    between atoms: C_1  and  C_2
REMARK    2  A    between atoms: C_4  and  C_27
REMARK    3  A    between atoms: C_6  and  C_7
REMARK    4  A    between atoms: C_8  and  O_9
REMARK    5  A    between atoms: O_9  and  C_10
REMARK    6  A    between atoms: N_17  and  C_18
REMARK    7  A    between atoms: C_21  and  C_24
REMARK                            x       y       z     vdW  Elec       q    Type
REMARK                         _______ _______ _______ _____ _____    ______ ____
ROOT
ATOM      1  C   UNL     1       8.020   0.350  23.420  0.00  0.00    +0.241 A 
ATOM      2  N   UNL     1       6.927  -0.298  22.989  0.00  0.00    -0.178 NA
ATOM      3  C   UNL     1       6.908  -1.638  23.007  0.00  0.00    +0.224 A 
ATOM      4  N   UNL     1       5.672  -2.235  22.719  0.00  0.00    -0.283 N 
ATOM      5  H   UNL     1       4.996  -1.505  22.546  0.00  0.00    +0.155 HD
ATOM      6  N   UNL     1       7.973  -2.364  23.342  0.00  0.00    -0.198 NA
ATOM      7  C   UNL     1       9.097  -1.715  23.671  0.00  0.00    +0.139 A 
ATOM      8  N   UNL     1      10.146  -2.561  24.034  0.00  0.00    -0.342 N 
ATOM      9  H   UNL     1       9.844  -3.519  23.867  0.00  0.00    +0.144 HD
ATOM     10  H   UNL     1      11.013  -2.338  23.559  0.00  0.00    +0.144 HD
ATOM     11  C   UNL     1       9.183  -0.331  23.721  0.00  0.00    +0.119 A 
ATOM     12 BR   UNL     1      10.802   0.543  24.163  0.00  0.00    -0.041 Br
ENDROOT
BRANCH   4  13
ATOM     13  C   UNL     1       5.134  -3.462  23.149  0.00  0.00    +0.034 A 
ATOM     14  C   UNL     1       5.387  -4.627  22.403  0.00  0.00    +0.024 A 
ATOM     15  C   UNL     1       4.844  -5.866  22.770  0.00  0.00    +0.020 A 
ATOM     16  C   UNL     1       4.045  -5.971  23.922  0.00  0.00    +0.052 A 
ATOM     17  C   UNL     1       3.819  -4.826  24.689  0.00  0.00    +0.020 A 
ATOM     18  C   UNL     1       4.363  -3.596  24.310  0.00  0.00    +0.024 A 
BRANCH  16  19
ATOM     19  C   UNL     1       3.457  -7.232  24.296  0.00  0.00    +0.099 C 
ATOM     20  N   UNL     1       2.986  -8.250  24.599  0.00  0.00    -0.191 NA
ENDBRANCH  16  19
ENDBRANCH   4  13
BRANCH   1  21
ATOM     21  O   UNL     1       8.043   1.743  23.490  0.00  0.00    -0.436 OA
BRANCH  21  24
ATOM     22  C   UNL     1       7.260   1.355  26.587  0.00  0.00    +0.047 C 
ATOM     23  C   UNL     1       6.753   2.344  25.583  0.00  0.00    -0.007 A 
ATOM     24  C   UNL     1       7.234   2.558  24.273  0.00  0.00    +0.136 A 
ATOM     25  C   UNL     1       6.711   3.681  23.559  0.00  0.00    -0.007 A 
ATOM     26  C   UNL     1       7.244   4.102  22.209  0.00  0.00    +0.047 C 
ATOM     27  C   UNL     1       5.673   4.473  24.101  0.00  0.00    +0.025 A 
ATOM     28  C   UNL     1       5.150   4.190  25.354  0.00  0.00    +0.052 A 
ATOM     29  C   UNL     1       5.701   3.148  26.084  0.00  0.00    +0.025 A 
BRANCH  28  30
ATOM     30  C   UNL     1       4.084   4.962  25.921  0.00  0.00    +0.099 C 
ATOM     31  N   UNL     1       3.235   5.580  26.415  0.00  0.00    -0.191 NA
ENDBRANCH  28  30
ENDBRANCH  21  24
ENDBRANCH   1  21
TORSDOF 5
ENDMDL
