MODEL 1
REMARK VINA RESULT:      -7.4      0.000      0.000
REMARK  Name = 
REMARK  6 active torsions:
REMARK  status: ('A' for Active; 'I' for Inactive)
REMARK    1  A    between atoms: O_1  and  C_2
REMARK    2  A    between atoms: C_2  and  C_4
REMARK    3  A    between atoms: C_6  and  O_7
REMARK    4  A    between atoms: O_7  and  C_8
REMARK    5  A    between atoms: C_11  and  C_15
REMARK    6  A    between atoms: C_21  and  N_22
REMARK                            x       y       z     vdW  Elec       q    Type
REMARK                         _______ _______ _______ _____ _____    ______ ____
ROOT
ATOM      1  C   UNL     1       6.328  -4.915  23.251  0.00  0.00    +0.139 A 
ATOM      2  C   UNL     1       5.789  -5.429  24.430  0.00  0.00    +0.287 A 
ATOM      3  C   UNL     1       6.425  -5.244  25.669  0.00  0.00    +0.089 A 
ATOM      4  C   UNL     1       7.637  -4.558  25.710  0.00  0.00    +0.053 A 
ATOM      5  C   UNL     1       8.194  -4.026  24.542  0.00  0.00    +0.130 A 
ATOM      6  C   UNL     1       7.493  -4.136  23.337  0.00  0.00    +0.068 A 
ENDROOT
BRANCH   2   7
ATOM      7  N   UNL     1       4.565  -6.187  24.421  0.00  0.00    +0.080 N 
ATOM      8  O   UNL     1       4.644  -7.400  24.215  0.00  0.00    +0.041 OA
ATOM      9  O   UNL     1       3.523  -5.535  24.587  0.00  0.00    -0.576 OA
ENDBRANCH   2   7
BRANCH   1  10
ATOM     10  C   UNL     1       5.799  -5.124  21.883  0.00  0.00    +0.344 C 
ATOM     11  O   UNL     1       5.650  -4.183  21.118  0.00  0.00    -0.245 OA
BRANCH  10  12
ATOM     12  O   UNL     1       5.678  -6.402  21.485  0.00  0.00    -0.477 OA
ATOM     13  H   UNL     1       6.486  -6.947  21.355  0.00  0.00    +0.295 HD
ENDBRANCH  10  12
ENDBRANCH   1  10
BRANCH   5  14
ATOM     14  O   UNL     1       9.407  -3.395  24.697  0.00  0.00    -0.455 OA
BRANCH  14  15
ATOM     15  C   UNL     1       9.624  -2.121  24.214  0.00  0.00    +0.147 A 
ATOM     16  C   UNL     1       9.351  -1.050  25.075  0.00  0.00    +0.084 A 
ATOM     17 CL   UNL     1       8.818  -1.315  26.697  0.00  0.00    -0.080 Cl
ATOM     18  C   UNL     1       9.513   0.271  24.644  0.00  0.00    +0.036 A 
ATOM     19  C   UNL     1       9.953   0.546  23.339  0.00  0.00    +0.056 A 
ATOM     20  C   UNL     1      10.283  -0.526  22.502  0.00  0.00    +0.016 A 
ATOM     21  C   UNL     1      10.155  -1.844  22.948  0.00  0.00    +0.048 A 
BRANCH  19  22
ATOM     22  C   UNL     1      10.075   1.975  22.865  0.00  0.00    +0.417 C 
ATOM     23  F   UNL     1      10.487   2.057  21.572  0.00  0.00    -0.166 F 
ATOM     24  F   UNL     1      10.976   2.687  23.595  0.00  0.00    -0.166 F 
ATOM     25  F   UNL     1       8.905   2.669  22.931  0.00  0.00    -0.166 F 
ENDBRANCH  19  22
ENDBRANCH  14  15
ENDBRANCH   5  14
TORSDOF 6
ENDMDL
MODEL 2
REMARK VINA RESULT:      -7.2      2.236      3.581
REMARK  Name = 
REMARK  6 active torsions:
REMARK  status: ('A' for Active; 'I' for Inactive)
REMARK    1  A    between atoms: O_1  and  C_2
REMARK    2  A    between atoms: C_2  and  C_4
REMARK    3  A    between atoms: C_6  and  O_7
REMARK    4  A    between atoms: O_7  and  C_8
REMARK    5  A    between atoms: C_11  and  C_15
REMARK    6  A    between atoms: C_21  and  N_22
REMARK                            x       y       z     vdW  Elec       q    Type
REMARK                         _______ _______ _______ _____ _____    ______ ____
ROOT
ATOM      1  C   UNL     1       8.908  -3.934  24.332  0.00  0.00    +0.139 A 
ATOM      2  C   UNL     1       7.690  -4.066  23.665  0.00  0.00    +0.287 A 
ATOM      3  C   UNL     1       7.318  -3.186  22.637  0.00  0.00    +0.089 A 
ATOM      4  C   UNL     1       8.175  -2.138  22.301  0.00  0.00    +0.053 A 
ATOM      5  C   UNL     1       9.405  -1.990  22.950  0.00  0.00    +0.130 A 
ATOM      6  C   UNL     1       9.798  -2.938  23.900  0.00  0.00    +0.068 A 
ENDROOT
BRANCH   2   7
ATOM      7  N   UNL     1       6.757  -5.104  24.018  0.00  0.00    +0.080 N 
ATOM      8  O   UNL     1       6.594  -6.026  23.214  0.00  0.00    +0.041 OA
ATOM      9  O   UNL     1       6.166  -4.957  25.098  0.00  0.00    -0.576 OA
ENDBRANCH   2   7
BRANCH   1  10
ATOM     10  C   UNL     1       9.366  -4.742  25.487  0.00  0.00    +0.344 C 
ATOM     11  O   UNL     1       9.085  -4.417  26.630  0.00  0.00    -0.245 OA
BRANCH  10  12
ATOM     12  O   UNL     1       9.930  -5.927  25.192  0.00  0.00    -0.477 OA
ATOM     13  H   UNL     1       9.774  -6.330  24.309  0.00  0.00    +0.295 HD
ENDBRANCH  10  12
ENDBRANCH   1  10
BRANCH   5  14
ATOM     14  O   UNL     1      10.155  -0.905  22.558  0.00  0.00    -0.455 OA
BRANCH  14  15
ATOM     15  C   UNL     1       9.655   0.379  22.624  0.00  0.00    +0.147 A 
ATOM     16  C   UNL     1       9.928   1.118  23.783  0.00  0.00    +0.084 A 
ATOM     17 CL   UNL     1      10.900   0.467  25.055  0.00  0.00    -0.080 Cl
ATOM     18  C   UNL     1       9.425   2.414  23.937  0.00  0.00    +0.036 A 
ATOM     19  C   UNL     1       8.637   2.997  22.932  0.00  0.00    +0.056 A 
ATOM     20  C   UNL     1       8.418   2.280  21.750  0.00  0.00    +0.016 A 
ATOM     21  C   UNL     1       8.953   1.000  21.584  0.00  0.00    +0.048 A 
BRANCH  19  22
ATOM     22  C   UNL     1       8.054   4.376  23.129  0.00  0.00    +0.417 C 
ATOM     23  F   UNL     1       9.006   5.303  23.419  0.00  0.00    -0.166 F 
ATOM     24  F   UNL     1       7.160   4.419  24.152  0.00  0.00    -0.166 F 
ATOM     25  F   UNL     1       7.394   4.847  22.034  0.00  0.00    -0.166 F 
ENDBRANCH  19  22
ENDBRANCH  14  15
ENDBRANCH   5  14
TORSDOF 6
ENDMDL
MODEL 3
REMARK VINA RESULT:      -7.1      5.052      7.444
REMARK  Name = 
REMARK  6 active torsions:
REMARK  status: ('A' for Active; 'I' for Inactive)
REMARK    1  A    between atoms: O_1  and  C_2
REMARK    2  A    between atoms: C_2  and  C_4
REMARK    3  A    between atoms: C_6  and  O_7
REMARK    4  A    between atoms: O_7  and  C_8
REMARK    5  A    between atoms: C_11  and  C_15
REMARK    6  A    between atoms: C_21  and  N_22
REMARK                            x       y       z     vdW  Elec       q    Type
REMARK                         _______ _______ _______ _____ _____    ______ ____
ROOT
ATOM      1  C   UNL     1       9.612   1.636  23.864  0.00  0.00    +0.139 A 
ATOM      2  C   UNL     1       8.541   2.016  24.673  0.00  0.00    +0.287 A 
ATOM      3  C   UNL     1       7.832   1.077  25.441  0.00  0.00    +0.089 A 
ATOM      4  C   UNL     1       8.193  -0.267  25.365  0.00  0.00    +0.053 A 
ATOM      5  C   UNL     1       9.269  -0.671  24.568  0.00  0.00    +0.130 A 
ATOM      6  C   UNL     1      10.022   0.293  23.891  0.00  0.00    +0.068 A 
ENDROOT
BRANCH   2   7
ATOM      7  N   UNL     1       8.107   3.387  24.738  0.00  0.00    +0.080 N 
ATOM      8  O   UNL     1       8.342   4.013  25.774  0.00  0.00    +0.041 OA
ATOM      9  O   UNL     1       7.496   3.810  23.745  0.00  0.00    -0.576 OA
ENDBRANCH   2   7
BRANCH   1  10
ATOM     10  C   UNL     1      10.371   2.517  22.946  0.00  0.00    +0.344 C 
ATOM     11  O   UNL     1      11.197   3.308  23.376  0.00  0.00    -0.245 OA
BRANCH  10  12
ATOM     12  O   UNL     1      10.234   2.260  21.634  0.00  0.00    -0.477 OA
ATOM     13  H   UNL     1      10.510   2.937  20.977  0.00  0.00    +0.295 HD
ENDBRANCH  10  12
ENDBRANCH   1  10
BRANCH   5  14
ATOM     14  O   UNL     1       9.516  -2.025  24.547  0.00  0.00    -0.455 OA
BRANCH  14  15
ATOM     15  C   UNL     1       8.699  -2.896  23.857  0.00  0.00    +0.147 A 
ATOM     16  C   UNL     1       8.593  -4.204  24.346  0.00  0.00    +0.084 A 
ATOM     17 CL   UNL     1       9.408  -4.693  25.790  0.00  0.00    -0.080 Cl
ATOM     18  C   UNL     1       7.810  -5.154  23.680  0.00  0.00    +0.036 A 
ATOM     19  C   UNL     1       7.118  -4.811  22.508  0.00  0.00    +0.056 A 
ATOM     20  C   UNL     1       7.177  -3.488  22.056  0.00  0.00    +0.016 A 
ATOM     21  C   UNL     1       7.929  -2.533  22.745  0.00  0.00    +0.048 A 
BRANCH  19  22
ATOM     22  C   UNL     1       6.318  -5.855  21.766  0.00  0.00    +0.417 C 
ATOM     23  F   UNL     1       5.014  -5.878  22.150  0.00  0.00    -0.166 F 
ATOM     24  F   UNL     1       6.794  -7.113  21.969  0.00  0.00    -0.166 F 
ATOM     25  F   UNL     1       6.308  -5.672  20.416  0.00  0.00    -0.166 F 
ENDBRANCH  19  22
ENDBRANCH  14  15
ENDBRANCH   5  14
TORSDOF 6
ENDMDL
MODEL 4
REMARK VINA RESULT:      -7.0      1.013      2.241
REMARK  Name = 
REMARK  6 active torsions:
REMARK  status: ('A' for Active; 'I' for Inactive)
REMARK    1  A    between atoms: O_1  and  C_2
REMARK    2  A    between atoms: C_2  and  C_4
REMARK    3  A    between atoms: C_6  and  O_7
REMARK    4  A    between atoms: O_7  and  C_8
REMARK    5  A    between atoms: C_11  and  C_15
REMARK    6  A    between atoms: C_21  and  N_22
REMARK                            x       y       z     vdW  Elec       q    Type
REMARK                         _______ _______ _______ _____ _____    ______ ____
ROOT
ATOM      1  C   UNL     1       6.283  -5.304  25.116  0.00  0.00    +0.139 A 
ATOM      2  C   UNL     1       5.872  -5.569  23.810  0.00  0.00    +0.287 A 
ATOM      3  C   UNL     1       6.662  -5.212  22.705  0.00  0.00    +0.089 A 
ATOM      4  C   UNL     1       7.869  -4.550  22.925  0.00  0.00    +0.053 A 
ATOM      5  C   UNL     1       8.307  -4.280  24.226  0.00  0.00    +0.130 A 
ATOM      6  C   UNL     1       7.552  -4.734  25.311  0.00  0.00    +0.068 A 
ENDROOT
BRANCH   2   7
ATOM      7  N   UNL     1       4.609  -6.206  23.542  0.00  0.00    +0.080 N 
ATOM      8  O   UNL     1       3.792  -5.590  22.853  0.00  0.00    +0.041 OA
ATOM      9  O   UNL     1       4.440  -7.317  24.065  0.00  0.00    -0.576 OA
ENDBRANCH   2   7
BRANCH   1  10
ATOM     10  C   UNL     1       5.497  -5.550  26.348  0.00  0.00    +0.344 C 
ATOM     11  O   UNL     1       4.722  -4.709  26.776  0.00  0.00    -0.245 OA
BRANCH  10  12
ATOM     12  O   UNL     1       5.549  -6.800  26.841  0.00  0.00    -0.477 OA
ATOM     13  H   UNL     1       5.838  -7.538  26.260  0.00  0.00    +0.295 HD
ENDBRANCH  10  12
ENDBRANCH   1  10
BRANCH   5  14
ATOM     14  O   UNL     1       9.497  -3.596  24.321  0.00  0.00    -0.455 OA
BRANCH  14  15
ATOM     15  C   UNL     1       9.610  -2.284  23.910  0.00  0.00    +0.147 A 
ATOM     16  C   UNL     1       9.270  -1.288  24.835  0.00  0.00    +0.084 A 
ATOM     17 CL   UNL     1       8.783  -1.685  26.445  0.00  0.00    -0.080 Cl
ATOM     18  C   UNL     1       9.325   0.064  24.479  0.00  0.00    +0.036 A 
ATOM     19  C   UNL     1       9.723   0.446  23.188  0.00  0.00    +0.056 A 
ATOM     20  C   UNL     1      10.121  -0.549  22.286  0.00  0.00    +0.016 A 
ATOM     21  C   UNL     1      10.100  -1.896  22.657  0.00  0.00    +0.048 A 
BRANCH  19  22
ATOM     22  C   UNL     1       9.730   1.904  22.796  0.00  0.00    +0.417 C 
ATOM     23  F   UNL     1      10.505   2.142  21.704  0.00  0.00    -0.166 F 
ATOM     24  F   UNL     1      10.214   2.703  23.785  0.00  0.00    -0.166 F 
ATOM     25  F   UNL     1       8.494   2.389  22.492  0.00  0.00    -0.166 F 
ENDBRANCH  19  22
ENDBRANCH  14  15
ENDBRANCH   5  14
TORSDOF 6
ENDMDL
MODEL 5
REMARK VINA RESULT:      -6.7      5.150      7.502
REMARK  Name = 
REMARK  6 active torsions:
REMARK  status: ('A' for Active; 'I' for Inactive)
REMARK    1  A    between atoms: O_1  and  C_2
REMARK    2  A    between atoms: C_2  and  C_4
REMARK    3  A    between atoms: C_6  and  O_7
REMARK    4  A    between atoms: O_7  and  C_8
REMARK    5  A    between atoms: C_11  and  C_15
REMARK    6  A    between atoms: C_21  and  N_22
REMARK                            x       y       z     vdW  Elec       q    Type
REMARK                         _______ _______ _______ _____ _____    ______ ____
ROOT
ATOM      1  C   UNL     1       9.324   0.597  22.998  0.00  0.00    +0.139 A 
ATOM      2  C   UNL     1       9.266   1.036  24.320  0.00  0.00    +0.287 A 
ATOM      3  C   UNL     1       9.298   0.134  25.395  0.00  0.00    +0.089 A 
ATOM      4  C   UNL     1       9.356  -1.233  25.128  0.00  0.00    +0.053 A 
ATOM      5  C   UNL     1       9.423  -1.698  23.811  0.00  0.00    +0.130 A 
ATOM      6  C   UNL     1       9.492  -0.777  22.761  0.00  0.00    +0.068 A 
ENDROOT
BRANCH   2   7
ATOM      7  N   UNL     1       9.154   2.437  24.635  0.00  0.00    +0.080 N 
ATOM      8  O   UNL     1      10.051   3.186  24.239  0.00  0.00    +0.041 OA
ATOM      9  O   UNL     1       8.170   2.763  25.316  0.00  0.00    -0.576 OA
ENDBRANCH   2   7
BRANCH   1  10
ATOM     10  C   UNL     1       9.207   1.444  21.788  0.00  0.00    +0.344 C 
ATOM     11  O   UNL     1       8.134   1.583  21.221  0.00  0.00    -0.245 OA
BRANCH  10  12
ATOM     12  O   UNL     1      10.287   2.182  21.477  0.00  0.00    -0.477 OA
ATOM     13  H   UNL     1      11.077   2.153  22.061  0.00  0.00    +0.295 HD
ENDBRANCH  10  12
ENDBRANCH   1  10
BRANCH   5  14
ATOM     14  O   UNL     1       9.447  -3.066  23.665  0.00  0.00    -0.455 OA
BRANCH  14  15
ATOM     15  C   UNL     1       8.484  -3.869  24.238  0.00  0.00    +0.147 A 
ATOM     16  C   UNL     1       7.255  -3.977  23.573  0.00  0.00    +0.084 A 
ATOM     17 CL   UNL     1       6.978  -3.181  22.064  0.00  0.00    -0.080 Cl
ATOM     18  C   UNL     1       6.217  -4.745  24.111  0.00  0.00    +0.036 A 
ATOM     19  C   UNL     1       6.389  -5.422  25.329  0.00  0.00    +0.056 A 
ATOM     20  C   UNL     1       7.637  -5.363  25.960  0.00  0.00    +0.016 A 
ATOM     21  C   UNL     1       8.684  -4.625  25.400  0.00  0.00    +0.048 A 
BRANCH  19  22
ATOM     22  C   UNL     1       5.247  -6.207  25.930  0.00  0.00    +0.417 C 
ATOM     23  F   UNL     1       5.583  -6.786  27.113  0.00  0.00    -0.166 F 
ATOM     24  F   UNL     1       4.830  -7.216  25.119  0.00  0.00    -0.166 F 
ATOM     25  F   UNL     1       4.144  -5.449  26.183  0.00  0.00    -0.166 F 
ENDBRANCH  19  22
ENDBRANCH  14  15
ENDBRANCH   5  14
TORSDOF 6
ENDMDL
MODEL 6
REMARK VINA RESULT:      -6.7      2.369      3.172
REMARK  Name = 
REMARK  6 active torsions:
REMARK  status: ('A' for Active; 'I' for Inactive)
REMARK    1  A    between atoms: O_1  and  C_2
REMARK    2  A    between atoms: C_2  and  C_4
REMARK    3  A    between atoms: C_6  and  O_7
REMARK    4  A    between atoms: O_7  and  C_8
REMARK    5  A    between atoms: C_11  and  C_15
REMARK    6  A    between atoms: C_21  and  N_22
REMARK                            x       y       z     vdW  Elec       q    Type
REMARK                         _______ _______ _______ _____ _____    ______ ____
ROOT
ATOM      1  C   UNL     1       5.664  -5.632  26.084  0.00  0.00    +0.139 A 
ATOM      2  C   UNL     1       6.539  -5.684  27.169  0.00  0.00    +0.287 A 
ATOM      3  C   UNL     1       7.869  -5.248  27.061  0.00  0.00    +0.089 A 
ATOM      4  C   UNL     1       8.329  -4.783  25.830  0.00  0.00    +0.053 A 
ATOM      5  C   UNL     1       7.468  -4.713  24.729  0.00  0.00    +0.130 A 
ATOM      6  C   UNL     1       6.123  -5.058  24.888  0.00  0.00    +0.068 A 
ENDROOT
BRANCH   2   7
ATOM      7  N   UNL     1       6.116  -6.206  28.442  0.00  0.00    +0.080 N 
ATOM      8  O   UNL     1       5.839  -7.407  28.506  0.00  0.00    +0.041 OA
ATOM      9  O   UNL     1       6.031  -5.382  29.365  0.00  0.00    -0.576 OA
ENDBRANCH   2   7
BRANCH   1  10
ATOM     10  C   UNL     1       4.275  -6.146  26.055  0.00  0.00    +0.344 C 
ATOM     11  O   UNL     1       3.331  -5.391  25.877  0.00  0.00    -0.245 OA
BRANCH  10  12
ATOM     12  O   UNL     1       4.140  -7.483  26.044  0.00  0.00    -0.477 OA
ATOM     13  H   UNL     1       3.317  -7.884  25.684  0.00  0.00    +0.295 HD
ENDBRANCH  10  12
ENDBRANCH   1  10
BRANCH   5  14
ATOM     14  O   UNL     1       8.037  -4.265  23.559  0.00  0.00    -0.455 OA
BRANCH  14  15
ATOM     15  C   UNL     1       8.492  -2.970  23.427  0.00  0.00    +0.147 A 
ATOM     16  C   UNL     1       7.595  -2.022  22.916  0.00  0.00    +0.084 A 
ATOM     17 CL   UNL     1       5.968  -2.445  22.521  0.00  0.00    -0.080 Cl
ATOM     18  C   UNL     1       7.995  -0.695  22.721  0.00  0.00    +0.036 A 
ATOM     19  C   UNL     1       9.303  -0.291  23.034  0.00  0.00    +0.056 A 
ATOM     20  C   UNL     1      10.177  -1.226  23.602  0.00  0.00    +0.016 A 
ATOM     21  C   UNL     1       9.763  -2.541  23.829  0.00  0.00    +0.048 A 
BRANCH  19  22
ATOM     22  C   UNL     1       9.742   1.130  22.772  0.00  0.00    +0.417 C 
ATOM     23  F   UNL     1       8.742   2.027  22.980  0.00  0.00    -0.166 F 
ATOM     24  F   UNL     1      10.155   1.315  21.489  0.00  0.00    -0.166 F 
ATOM     25  F   UNL     1      10.778   1.531  23.561  0.00  0.00    -0.166 F 
ENDBRANCH  19  22
ENDBRANCH  14  15
ENDBRANCH   5  14
TORSDOF 6
ENDMDL
MODEL 7
REMARK VINA RESULT:      -6.6      5.105      7.593
REMARK  Name = 
REMARK  6 active torsions:
REMARK  status: ('A' for Active; 'I' for Inactive)
REMARK    1  A    between atoms: O_1  and  C_2
REMARK    2  A    between atoms: C_2  and  C_4
REMARK    3  A    between atoms: C_6  and  O_7
REMARK    4  A    between atoms: O_7  and  C_8
REMARK    5  A    between atoms: C_11  and  C_15
REMARK    6  A    between atoms: C_21  and  N_22
REMARK                            x       y       z     vdW  Elec       q    Type
REMARK                         _______ _______ _______ _____ _____    ______ ____
ROOT
ATOM      1  C   UNL     1       8.834   0.143  24.043  0.00  0.00    +0.139 A 
ATOM      2  C   UNL     1       9.404   0.443  22.806  0.00  0.00    +0.287 A 
ATOM      3  C   UNL     1      10.040  -0.542  22.033  0.00  0.00    +0.089 A 
ATOM      4  C   UNL     1      10.129  -1.840  22.534  0.00  0.00    +0.053 A 
ATOM      5  C   UNL     1       9.558  -2.167  23.768  0.00  0.00    +0.130 A 
ATOM      6  C   UNL     1       8.843  -1.194  24.473  0.00  0.00    +0.068 A 
ENDROOT
BRANCH   2   7
ATOM      7  N   UNL     1       9.376   1.782  22.279  0.00  0.00    +0.080 N 
ATOM      8  O   UNL     1       8.412   2.103  21.578  0.00  0.00    +0.041 OA
ATOM      9  O   UNL     1      10.356   2.492  22.551  0.00  0.00    -0.576 OA
ENDBRANCH   2   7
BRANCH   1  10
ATOM     10  C   UNL     1       8.221   1.112  24.982  0.00  0.00    +0.344 C 
ATOM     11  O   UNL     1       7.168   0.857  25.546  0.00  0.00    -0.245 OA
BRANCH  10  12
ATOM     12  O   UNL     1       8.975   2.175  25.309  0.00  0.00    -0.477 OA
ATOM     13  H   UNL     1       9.369   2.727  24.597  0.00  0.00    +0.295 HD
ENDBRANCH  10  12
ENDBRANCH   1  10
BRANCH   5  14
ATOM     14  O   UNL     1       9.733  -3.469  24.176  0.00  0.00    -0.455 OA
BRANCH  14  15
ATOM     15  C   UNL     1       8.759  -4.139  24.887  0.00  0.00    +0.147 A 
ATOM     16  C   UNL     1       7.645  -4.603  24.173  0.00  0.00    +0.084 A 
ATOM     17 CL   UNL     1       7.523  -4.394  22.462  0.00  0.00    -0.080 Cl
ATOM     18  C   UNL     1       6.600  -5.260  24.832  0.00  0.00    +0.036 A 
ATOM     19  C   UNL     1       6.649  -5.467  26.220  0.00  0.00    +0.056 A 
ATOM     20  C   UNL     1       7.791  -5.057  26.919  0.00  0.00    +0.016 A 
ATOM     21  C   UNL     1       8.849  -4.434  26.253  0.00  0.00    +0.048 A 
BRANCH  19  22
ATOM     22  C   UNL     1       5.494  -6.130  26.930  0.00  0.00    +0.417 C 
ATOM     23  F   UNL     1       4.468  -5.269  27.165  0.00  0.00    -0.166 F 
ATOM     24  F   UNL     1       5.851  -6.632  28.142  0.00  0.00    -0.166 F 
ATOM     25  F   UNL     1       4.957  -7.172  26.235  0.00  0.00    -0.166 F 
ENDBRANCH  19  22
ENDBRANCH  14  15
ENDBRANCH   5  14
TORSDOF 6
ENDMDL
MODEL 8
REMARK VINA RESULT:      -6.6      2.670      3.925
REMARK  Name = 
REMARK  6 active torsions:
REMARK  status: ('A' for Active; 'I' for Inactive)
REMARK    1  A    between atoms: O_1  and  C_2
REMARK    2  A    between atoms: C_2  and  C_4
REMARK    3  A    between atoms: C_6  and  O_7
REMARK    4  A    between atoms: O_7  and  C_8
REMARK    5  A    between atoms: C_11  and  C_15
REMARK    6  A    between atoms: C_21  and  N_22
REMARK                            x       y       z     vdW  Elec       q    Type
REMARK                         _______ _______ _______ _____ _____    ______ ____
ROOT
ATOM      1  C   UNL     1       8.621  -4.189  24.225  0.00  0.00    +0.139 A 
ATOM      2  C   UNL     1       7.694  -4.239  23.184  0.00  0.00    +0.287 A 
ATOM      3  C   UNL     1       7.528  -3.164  22.296  0.00  0.00    +0.089 A 
ATOM      4  C   UNL     1       8.288  -2.010  22.484  0.00  0.00    +0.053 A 
ATOM      5  C   UNL     1       9.230  -1.939  23.515  0.00  0.00    +0.130 A 
ATOM      6  C   UNL     1       9.448  -3.058  24.324  0.00  0.00    +0.068 A 
ENDROOT
BRANCH   2   7
ATOM      7  N   UNL     1       6.856  -5.394  22.990  0.00  0.00    +0.080 N 
ATOM      8  O   UNL     1       7.249  -6.261  22.206  0.00  0.00    +0.041 OA
ATOM      9  O   UNL     1       5.782  -5.395  23.610  0.00  0.00    -0.576 OA
ENDBRANCH   2   7
BRANCH   1  10
ATOM     10  C   UNL     1       8.819  -5.218  25.272  0.00  0.00    +0.344 C 
ATOM     11  O   UNL     1       7.969  -5.413  26.128  0.00  0.00    -0.245 OA
BRANCH  10  12
ATOM     12  O   UNL     1       9.877  -6.031  25.108  0.00  0.00    -0.477 OA
ATOM     13  H   UNL     1      10.472  -6.211  25.870  0.00  0.00    +0.295 HD
ENDBRANCH  10  12
ENDBRANCH   1  10
BRANCH   5  14
ATOM     14  O   UNL     1       9.900  -0.742  23.624  0.00  0.00    -0.455 OA
BRANCH  14  15
ATOM     15  C   UNL     1       9.303   0.371  24.179  0.00  0.00    +0.147 A 
ATOM     16  C   UNL     1       9.402   1.576  23.470  0.00  0.00    +0.084 A 
ATOM     17 CL   UNL     1      10.190   1.653  21.935  0.00  0.00    -0.080 Cl
ATOM     18  C   UNL     1       8.852   2.754  23.987  0.00  0.00    +0.036 A 
ATOM     19  C   UNL     1       8.191   2.749  25.226  0.00  0.00    +0.056 A 
ATOM     20  C   UNL     1       8.041   1.532  25.902  0.00  0.00    +0.016 A 
ATOM     21  C   UNL     1       8.559   0.351  25.365  0.00  0.00    +0.048 A 
BRANCH  19  22
ATOM     22  C   UNL     1       7.647   4.035  25.801  0.00  0.00    +0.417 C 
ATOM     23  F   UNL     1       6.630   4.545  25.056  0.00  0.00    -0.166 F 
ATOM     24  F   UNL     1       8.591   5.011  25.871  0.00  0.00    -0.166 F 
ATOM     25  F   UNL     1       7.154   3.897  27.064  0.00  0.00    -0.166 F 
ENDBRANCH  19  22
ENDBRANCH  14  15
ENDBRANCH   5  14
TORSDOF 6
ENDMDL
MODEL 9
REMARK VINA RESULT:      -6.5      5.057      7.629
REMARK  Name = 
REMARK  6 active torsions:
REMARK  status: ('A' for Active; 'I' for Inactive)
REMARK    1  A    between atoms: O_1  and  C_2
REMARK    2  A    between atoms: C_2  and  C_4
REMARK    3  A    between atoms: C_6  and  O_7
REMARK    4  A    between atoms: O_7  and  C_8
REMARK    5  A    between atoms: C_11  and  C_15
REMARK    6  A    between atoms: C_21  and  N_22
REMARK                            x       y       z     vdW  Elec       q    Type
REMARK                         _______ _______ _______ _____ _____    ______ ____
ROOT
ATOM      1  C   UNL     1       9.188  -0.207  23.810  0.00  0.00    +0.139 A 
ATOM      2  C   UNL     1       9.080   0.029  22.439  0.00  0.00    +0.287 A 
ATOM      3  C   UNL     1       8.931  -1.024  21.523  0.00  0.00    +0.089 A 
ATOM      4  C   UNL     1       8.922  -2.335  21.997  0.00  0.00    +0.053 A 
ATOM      5  C   UNL     1       9.019  -2.597  23.367  0.00  0.00    +0.130 A 
ATOM      6  C   UNL     1       9.066  -1.529  24.268  0.00  0.00    +0.068 A 
ENDROOT
BRANCH   2   7
ATOM      7  N   UNL     1       9.137   1.366  21.908  0.00  0.00    +0.080 N 
ATOM      8  O   UNL     1       8.079   1.879  21.535  0.00  0.00    +0.041 OA
ATOM      9  O   UNL     1      10.266   1.875  21.839  0.00  0.00    -0.576 OA
ENDBRANCH   2   7
BRANCH   1  10
ATOM     10  C   UNL     1       9.439   0.811  24.856  0.00  0.00    +0.344 C 
ATOM     11  O   UNL     1       8.575   1.617  25.168  0.00  0.00    -0.245 OA
BRANCH  10  12
ATOM     12  O   UNL     1      10.579   0.671  25.555  0.00  0.00    -0.477 OA
ATOM     13  H   UNL     1      10.950  -0.228  25.701  0.00  0.00    +0.295 HD
ENDBRANCH  10  12
ENDBRANCH   1  10
BRANCH   5  14
ATOM     14  O   UNL     1       9.029  -3.928  23.718  0.00  0.00    -0.455 OA
BRANCH  14  15
ATOM     15  C   UNL     1       7.907  -4.548  24.226  0.00  0.00    +0.147 A 
ATOM     16  C   UNL     1       7.879  -4.800  25.604  0.00  0.00    +0.084 A 
ATOM     17 CL   UNL     1       9.174  -4.304  26.635  0.00  0.00    -0.080 Cl
ATOM     18  C   UNL     1       6.790  -5.458  26.187  0.00  0.00    +0.036 A 
ATOM     19  C   UNL     1       5.704  -5.875  25.400  0.00  0.00    +0.056 A 
ATOM     20  C   UNL     1       5.708  -5.567  24.034  0.00  0.00    +0.016 A 
ATOM     21  C   UNL     1       6.780  -4.878  23.462  0.00  0.00    +0.048 A 
BRANCH  19  22
ATOM     22  C   UNL     1       4.557  -6.630  26.028  0.00  0.00    +0.417 C 
ATOM     23  F   UNL     1       4.053  -7.586  25.202  0.00  0.00    -0.166 F 
ATOM     24  F   UNL     1       3.514  -5.816  26.344  0.00  0.00    -0.166 F 
ATOM     25  F   UNL     1       4.897  -7.270  27.181  0.00  0.00    -0.166 F 
ENDBRANCH  19  22
ENDBRANCH  14  15
ENDBRANCH   5  14
TORSDOF 6
ENDMDL
