MODEL 1
REMARK VINA RESULT:      -7.2      0.000      0.000
REMARK  Name = 
REMARK  7 active torsions:
REMARK  status: ('A' for Active; 'I' for Inactive)
REMARK    1  A    between atoms: C_1  and  C_2
REMARK    2  A    between atoms: C_2  and  N_3
REMARK    3  A    between atoms: C_10  and  C_11
REMARK    4  A    between atoms: N_13  and  C_14
REMARK    5  A    between atoms: C_14  and  C_15
REMARK    6  A    between atoms: C_21  and  N_22
REMARK    7  A    between atoms: N_22  and  C_23
REMARK                            x       y       z     vdW  Elec       q    Type
REMARK                         _______ _______ _______ _____ _____    ______ ____
ROOT
ATOM      1  N   UNL     1      10.095  -0.331  23.937  0.00  0.00    -0.247 N 
ATOM      2  C   UNL     1       9.344  -1.264  24.605  0.00  0.00    +0.160 A 
ATOM      3  N   UNL     1       9.068  -1.265  25.919  0.00  0.00    -0.235 NA
ATOM      4  C   UNL     1       8.392  -2.377  26.293  0.00  0.00    +0.128 A 
ATOM      5  C   UNL     1       7.930  -3.412  25.461  0.00  0.00    +0.076 A 
ATOM      6  C   UNL     1       8.178  -3.340  24.060  0.00  0.00    +0.053 A 
ATOM      7  C   UNL     1       8.961  -2.212  23.667  0.00  0.00    +0.060 A 
ATOM      8  C   UNL     1       9.530  -1.719  22.462  0.00  0.00    +0.146 A 
ATOM      9  N   UNL     1      10.209  -0.578  22.613  0.00  0.00    -0.177 NA
ENDROOT
BRANCH   5  10
ATOM     10  C   UNL     1       7.378  -4.603  26.179  0.00  0.00    +0.248 C 
ATOM     11  N   UNL     1       6.242  -4.403  26.951  0.00  0.00    -0.307 N 
ATOM     12  H   UNL     1       5.732  -3.532  26.912  0.00  0.00    +0.149 HD
ATOM     13  O   UNL     1       7.951  -5.686  26.130  0.00  0.00    -0.270 OA
BRANCH  11  14
ATOM     14  C   UNL     1       5.642  -5.466  27.738  0.00  0.00    +0.139 C 
BRANCH  14  15
ATOM     15  C   UNL     1       4.433  -6.092  27.076  0.00  0.00    -0.030 A 
ATOM     16  C   UNL     1       3.175  -6.062  27.697  0.00  0.00    +0.005 A 
ATOM     17  C   UNL     1       2.081  -6.728  27.132  0.00  0.00    +0.000 A 
ATOM     18  C   UNL     1       2.229  -7.430  25.937  0.00  0.00    +0.000 A 
ATOM     19  C   UNL     1       3.470  -7.465  25.305  0.00  0.00    +0.000 A 
ATOM     20  C   UNL     1       4.563  -6.799  25.869  0.00  0.00    +0.005 A 
ENDBRANCH  14  15
ENDBRANCH  11  14
ENDBRANCH   5  10
BRANCH   1  22
ATOM     21  C   UNL     1      10.540   2.091  23.791  0.00  0.00    +0.029 C 
ATOM     22  C   UNL     1      10.797   0.791  24.528  0.00  0.00    +0.142 C 
ENDBRANCH   1  22
BRANCH   6  23
ATOM     23  N   UNL     1       7.793  -4.233  23.067  0.00  0.00    -0.340 N 
ATOM     24  H   UNL     1       8.556  -4.832  22.769  0.00  0.00    +0.146 HD
BRANCH  23  25
ATOM     25  C   UNL     1       6.842  -3.965  21.972  0.00  0.00    +0.075 C 
ATOM     26  C   UNL     1       5.650  -3.149  22.519  0.00  0.00    +0.050 C 
ATOM     27  C   UNL     1       4.675  -3.995  23.337  0.00  0.00    +0.161 C 
ATOM     28  O   UNL     1       4.284  -5.178  22.644  0.00  0.00    -0.380 OA
ATOM     29  C   UNL     1       5.398  -5.994  22.286  0.00  0.00    +0.161 C 
ATOM     30  C   UNL     1       6.301  -5.240  21.324  0.00  0.00    +0.050 C 
ENDBRANCH  23  25
ENDBRANCH   6  23
TORSDOF 6
ENDMDL
MODEL 2
REMARK VINA RESULT:      -7.1      2.516      7.927
REMARK  Name = 
REMARK  7 active torsions:
REMARK  status: ('A' for Active; 'I' for Inactive)
REMARK    1  A    between atoms: C_1  and  C_2
REMARK    2  A    between atoms: C_2  and  N_3
REMARK    3  A    between atoms: C_10  and  C_11
REMARK    4  A    between atoms: N_13  and  C_14
REMARK    5  A    between atoms: C_14  and  C_15
REMARK    6  A    between atoms: C_21  and  N_22
REMARK    7  A    between atoms: N_22  and  C_23
REMARK                            x       y       z     vdW  Elec       q    Type
REMARK                         _______ _______ _______ _____ _____    ______ ____
ROOT
ATOM      1  N   UNL     1       2.910  -5.403  23.546  0.00  0.00    -0.247 N 
ATOM      2  C   UNL     1       4.127  -4.874  23.200  0.00  0.00    +0.160 A 
ATOM      3  N   UNL     1       4.942  -5.329  22.235  0.00  0.00    -0.235 NA
ATOM      4  C   UNL     1       6.118  -4.658  22.208  0.00  0.00    +0.128 A 
ATOM      5  C   UNL     1       6.488  -3.559  23.003  0.00  0.00    +0.076 A 
ATOM      6  C   UNL     1       5.566  -3.056  23.966  0.00  0.00    +0.053 A 
ATOM      7  C   UNL     1       4.356  -3.808  24.058  0.00  0.00    +0.060 A 
ATOM      8  C   UNL     1       3.185  -3.787  24.863  0.00  0.00    +0.146 A 
ATOM      9  N   UNL     1       2.302  -4.740  24.555  0.00  0.00    -0.177 NA
ENDROOT
BRANCH   5  10
ATOM     10  C   UNL     1       7.920  -3.143  22.880  0.00  0.00    +0.248 C 
ATOM     11  N   UNL     1       8.187  -2.025  22.101  0.00  0.00    -0.307 N 
ATOM     12  H   UNL     1       7.440  -1.439  21.755  0.00  0.00    +0.149 HD
ATOM     13  O   UNL     1       8.813  -3.805  23.398  0.00  0.00    -0.270 OA
BRANCH  11  14
ATOM     14  C   UNL     1       9.539  -1.552  21.860  0.00  0.00    +0.139 C 
BRANCH  14  15
ATOM     15  C   UNL     1       9.850  -0.244  22.557  0.00  0.00    -0.030 A 
ATOM     16  C   UNL     1       9.848   0.967  21.849  0.00  0.00    +0.005 A 
ATOM     17  C   UNL     1      10.233   2.160  22.472  0.00  0.00    +0.000 A 
ATOM     18  C   UNL     1      10.623   2.158  23.810  0.00  0.00    +0.000 A 
ATOM     19  C   UNL     1      10.624   0.965  24.528  0.00  0.00    +0.000 A 
ATOM     20  C   UNL     1      10.239  -0.227  23.906  0.00  0.00    +0.005 A 
ENDBRANCH  14  15
ENDBRANCH  11  14
ENDBRANCH   5  10
BRANCH   1  22
ATOM     21  C   UNL     1       0.838  -6.398  22.650  0.00  0.00    +0.029 C 
ATOM     22  C   UNL     1       2.302  -6.596  22.992  0.00  0.00    +0.142 C 
ENDBRANCH   1  22
BRANCH   6  23
ATOM     23  N   UNL     1       5.720  -1.976  24.828  0.00  0.00    -0.340 N 
ATOM     24  H   UNL     1       6.280  -1.234  24.422  0.00  0.00    +0.146 HD
BRANCH  23  25
ATOM     25  C   UNL     1       5.870  -2.043  26.293  0.00  0.00    +0.075 C 
ATOM     26  C   UNL     1       6.040  -0.614  26.854  0.00  0.00    +0.050 C 
ATOM     27  C   UNL     1       7.434  -0.038  26.605  0.00  0.00    +0.161 C 
ATOM     28  O   UNL     1       8.463  -0.937  27.014  0.00  0.00    -0.380 OA
ATOM     29  C   UNL     1       8.374  -2.202  26.361  0.00  0.00    +0.161 C 
ATOM     30  C   UNL     1       7.069  -2.884  26.734  0.00  0.00    +0.050 C 
ENDBRANCH  23  25
ENDBRANCH   6  23
TORSDOF 6
ENDMDL
MODEL 3
REMARK VINA RESULT:      -7.0      2.461      7.823
REMARK  Name = 
REMARK  7 active torsions:
REMARK  status: ('A' for Active; 'I' for Inactive)
REMARK    1  A    between atoms: C_1  and  C_2
REMARK    2  A    between atoms: C_2  and  N_3
REMARK    3  A    between atoms: C_10  and  C_11
REMARK    4  A    between atoms: N_13  and  C_14
REMARK    5  A    between atoms: C_14  and  C_15
REMARK    6  A    between atoms: C_21  and  N_22
REMARK    7  A    between atoms: N_22  and  C_23
REMARK                            x       y       z     vdW  Elec       q    Type
REMARK                         _______ _______ _______ _____ _____    ______ ____
ROOT
ATOM      1  N   UNL     1       2.800  -6.603  23.595  0.00  0.00    -0.247 N 
ATOM      2  C   UNL     1       4.008  -5.958  23.673  0.00  0.00    +0.160 A 
ATOM      3  N   UNL     1       4.532  -5.142  22.745  0.00  0.00    -0.235 NA
ATOM      4  C   UNL     1       5.785  -4.745  23.069  0.00  0.00    +0.128 A 
ATOM      5  C   UNL     1       6.493  -5.041  24.247  0.00  0.00    +0.076 A 
ATOM      6  C   UNL     1       5.875  -5.849  25.244  0.00  0.00    +0.053 A 
ATOM      7  C   UNL     1       4.586  -6.340  24.876  0.00  0.00    +0.060 A 
ATOM      8  C   UNL     1       3.609  -7.204  25.440  0.00  0.00    +0.146 A 
ATOM      9  N   UNL     1       2.523  -7.362  24.678  0.00  0.00    -0.177 NA
ENDROOT
BRANCH   5  10
ATOM     10  C   UNL     1       7.929  -4.620  24.245  0.00  0.00    +0.248 C 
ATOM     11  N   UNL     1       8.197  -3.294  23.933  0.00  0.00    -0.307 N 
ATOM     12  H   UNL     1       7.452  -2.616  23.855  0.00  0.00    +0.149 HD
ATOM     13  O   UNL     1       8.822  -5.435  24.449  0.00  0.00    -0.270 OA
BRANCH  11  14
ATOM     14  C   UNL     1       9.550  -2.776  23.846  0.00  0.00    +0.139 C 
BRANCH  14  15
ATOM     15  C   UNL     1       9.622  -1.380  23.266  0.00  0.00    -0.030 A 
ATOM     16  C   UNL     1       9.291  -1.138  21.924  0.00  0.00    +0.005 A 
ATOM     17  C   UNL     1       9.455   0.134  21.364  0.00  0.00    +0.000 A 
ATOM     18  C   UNL     1       9.949   1.182  22.138  0.00  0.00    +0.000 A 
ATOM     19  C   UNL     1      10.277   0.961  23.473  0.00  0.00    +0.000 A 
ATOM     20  C   UNL     1      10.113  -0.310  24.034  0.00  0.00    +0.005 A 
ENDBRANCH  14  15
ENDBRANCH  11  14
ENDBRANCH   5  10
BRANCH   1  22
ATOM     21  C   UNL     1       0.656  -5.747  22.725  0.00  0.00    +0.029 C 
ATOM     22  C   UNL     1       1.890  -6.590  22.467  0.00  0.00    +0.142 C 
ENDBRANCH   1  22
BRANCH   6  23
ATOM     23  N   UNL     1       6.383  -6.238  26.478  0.00  0.00    -0.340 N 
ATOM     24  H   UNL     1       6.072  -7.166  26.749  0.00  0.00    +0.146 HD
BRANCH  23  25
ATOM     25  C   UNL     1       6.600  -5.366  27.647  0.00  0.00    +0.075 C 
ATOM     26  C   UNL     1       6.404  -6.188  28.940  0.00  0.00    +0.050 C 
ATOM     27  C   UNL     1       4.934  -6.462  29.253  0.00  0.00    +0.161 C 
ATOM     28  O   UNL     1       4.147  -5.273  29.209  0.00  0.00    -0.380 OA
ATOM     29  C   UNL     1       4.224  -4.615  27.946  0.00  0.00    +0.161 C 
ATOM     30  C   UNL     1       5.652  -4.167  27.684  0.00  0.00    +0.050 C 
ENDBRANCH  23  25
ENDBRANCH   6  23
TORSDOF 6
ENDMDL
MODEL 4
REMARK VINA RESULT:      -6.9      2.073      7.029
REMARK  Name = 
REMARK  7 active torsions:
REMARK  status: ('A' for Active; 'I' for Inactive)
REMARK    1  A    between atoms: C_1  and  C_2
REMARK    2  A    between atoms: C_2  and  N_3
REMARK    3  A    between atoms: C_10  and  C_11
REMARK    4  A    between atoms: N_13  and  C_14
REMARK    5  A    between atoms: C_14  and  C_15
REMARK    6  A    between atoms: C_21  and  N_22
REMARK    7  A    between atoms: N_22  and  C_23
REMARK                            x       y       z     vdW  Elec       q    Type
REMARK                         _______ _______ _______ _____ _____    ______ ____
ROOT
ATOM      1  N   UNL     1       4.682  -5.122  28.555  0.00  0.00    -0.247 N 
ATOM      2  C   UNL     1       5.768  -5.074  27.719  0.00  0.00    +0.160 A 
ATOM      3  N   UNL     1       6.945  -5.690  27.913  0.00  0.00    -0.235 NA
ATOM      4  C   UNL     1       7.850  -5.363  26.962  0.00  0.00    +0.128 A 
ATOM      5  C   UNL     1       7.643  -4.549  25.834  0.00  0.00    +0.076 A 
ATOM      6  C   UNL     1       6.359  -3.972  25.621  0.00  0.00    +0.053 A 
ATOM      7  C   UNL     1       5.420  -4.245  26.662  0.00  0.00    +0.060 A 
ATOM      8  C   UNL     1       4.084  -3.874  26.971  0.00  0.00    +0.146 A 
ATOM      9  N   UNL     1       3.626  -4.406  28.108  0.00  0.00    -0.177 NA
ENDROOT
BRANCH   5  10
ATOM     10  C   UNL     1       8.879  -4.214  25.060  0.00  0.00    +0.248 C 
ATOM     11  N   UNL     1       8.970  -2.929  24.543  0.00  0.00    -0.307 N 
ATOM     12  H   UNL     1       8.303  -2.214  24.800  0.00  0.00    +0.149 HD
ATOM     13  O   UNL     1       9.736  -5.065  24.846  0.00  0.00    -0.270 OA
BRANCH  11  14
ATOM     14  C   UNL     1      10.093  -2.498  23.730  0.00  0.00    +0.139 C 
BRANCH  14  15
ATOM     15  C   UNL     1       9.928  -1.100  23.171  0.00  0.00    -0.030 A 
ATOM     16  C   UNL     1       9.403  -0.894  21.886  0.00  0.00    +0.005 A 
ATOM     17  C   UNL     1       9.346   0.391  21.335  0.00  0.00    +0.000 A 
ATOM     18  C   UNL     1       9.809   1.487  22.060  0.00  0.00    +0.000 A 
ATOM     19  C   UNL     1      10.327   1.300  23.339  0.00  0.00    +0.000 A 
ATOM     20  C   UNL     1      10.385   0.017  23.891  0.00  0.00    +0.005 A 
ENDBRANCH  14  15
ENDBRANCH  11  14
ENDBRANCH   5  10
BRANCH   1  22
ATOM     21  C   UNL     1       3.688  -6.981  29.836  0.00  0.00    +0.029 C 
ATOM     22  C   UNL     1       4.617  -5.782  29.843  0.00  0.00    +0.142 C 
ENDBRANCH   1  22
BRANCH   6  23
ATOM     23  N   UNL     1       5.937  -3.165  24.570  0.00  0.00    -0.340 N 
ATOM     24  H   UNL     1       5.737  -2.215  24.868  0.00  0.00    +0.146 HD
BRANCH  23  25
ATOM     25  C   UNL     1       5.088  -3.578  23.438  0.00  0.00    +0.075 C 
ATOM     26  C   UNL     1       5.031  -5.121  23.379  0.00  0.00    +0.050 C 
ATOM     27  C   UNL     1       6.310  -5.742  22.817  0.00  0.00    +0.161 C 
ATOM     28  O   UNL     1       6.701  -5.139  21.586  0.00  0.00    -0.380 OA
ATOM     29  C   UNL     1       6.899  -3.731  21.706  0.00  0.00    +0.161 C 
ATOM     30  C   UNL     1       5.591  -3.058  22.091  0.00  0.00    +0.050 C 
ENDBRANCH  23  25
ENDBRANCH   6  23
TORSDOF 6
ENDMDL
MODEL 5
REMARK VINA RESULT:      -6.8      3.557      5.346
REMARK  Name = 
REMARK  7 active torsions:
REMARK  status: ('A' for Active; 'I' for Inactive)
REMARK    1  A    between atoms: C_1  and  C_2
REMARK    2  A    between atoms: C_2  and  N_3
REMARK    3  A    between atoms: C_10  and  C_11
REMARK    4  A    between atoms: N_13  and  C_14
REMARK    5  A    between atoms: C_14  and  C_15
REMARK    6  A    between atoms: C_21  and  N_22
REMARK    7  A    between atoms: N_22  and  C_23
REMARK                            x       y       z     vdW  Elec       q    Type
REMARK                         _______ _______ _______ _____ _____    ______ ____
ROOT
ATOM      1  N   UNL     1      10.542   3.748  23.664  0.00  0.00    -0.247 N 
ATOM      2  C   UNL     1      10.344   2.477  24.139  0.00  0.00    +0.160 A 
ATOM      3  N   UNL     1      11.254   1.490  24.164  0.00  0.00    -0.235 NA
ATOM      4  C   UNL     1      10.722   0.322  24.596  0.00  0.00    +0.128 A 
ATOM      5  C   UNL     1       9.411   0.103  25.055  0.00  0.00    +0.076 A 
ATOM      6  C   UNL     1       8.494   1.192  25.084  0.00  0.00    +0.053 A 
ATOM      7  C   UNL     1       9.021   2.409  24.554  0.00  0.00    +0.060 A 
ATOM      8  C   UNL     1       8.536   3.718  24.293  0.00  0.00    +0.146 A 
ATOM      9  N   UNL     1       9.449   4.537  23.764  0.00  0.00    -0.177 NA
ENDROOT
BRANCH   5  10
ATOM     10  C   UNL     1       9.055  -1.332  25.291  0.00  0.00    +0.248 C 
ATOM     11  N   UNL     1       9.401  -2.239  24.298  0.00  0.00    -0.307 N 
ATOM     12  H   UNL     1       9.992  -1.966  23.525  0.00  0.00    +0.149 HD
ATOM     13  O   UNL     1       8.430  -1.667  26.291  0.00  0.00    -0.270 OA
BRANCH  11  14
ATOM     14  C   UNL     1       9.065  -3.648  24.384  0.00  0.00    +0.139 C 
BRANCH  14  15
ATOM     15  C   UNL     1       7.961  -4.061  23.433  0.00  0.00    -0.030 A 
ATOM     16  C   UNL     1       7.741  -5.412  23.126  0.00  0.00    +0.005 A 
ATOM     17  C   UNL     1       6.788  -5.783  22.171  0.00  0.00    +0.000 A 
ATOM     18  C   UNL     1       6.040  -4.810  21.512  0.00  0.00    +0.000 A 
ATOM     19  C   UNL     1       6.242  -3.464  21.809  0.00  0.00    +0.000 A 
ATOM     20  C   UNL     1       7.194  -3.092  22.764  0.00  0.00    +0.005 A 
ENDBRANCH  14  15
ENDBRANCH  11  14
ENDBRANCH   5  10
BRANCH   1  22
ATOM     21  C   UNL     1      12.288   5.490  23.713  0.00  0.00    +0.029 C 
ATOM     22  C   UNL     1      11.744   4.251  23.029  0.00  0.00    +0.142 C 
ENDBRANCH   1  22
BRANCH   6  23
ATOM     23  N   UNL     1       7.173   1.199  25.517  0.00  0.00    -0.340 N 
ATOM     24  H   UNL     1       7.086   0.942  26.495  0.00  0.00    +0.146 HD
BRANCH  23  25
ATOM     25  C   UNL     1       5.994   0.790  24.732  0.00  0.00    +0.075 C 
ATOM     26  C   UNL     1       4.932   1.911  24.785  0.00  0.00    +0.050 C 
ATOM     27  C   UNL     1       4.189   1.963  26.120  0.00  0.00    +0.161 C 
ATOM     28  O   UNL     1       3.687   0.684  26.502  0.00  0.00    -0.380 OA
ATOM     29  C   UNL     1       4.716  -0.299  26.597  0.00  0.00    +0.161 C 
ATOM     30  C   UNL     1       5.359  -0.506  25.235  0.00  0.00    +0.050 C 
ENDBRANCH  23  25
ENDBRANCH   6  23
TORSDOF 6
ENDMDL
MODEL 6
REMARK VINA RESULT:      -6.7      2.631      7.901
REMARK  Name = 
REMARK  7 active torsions:
REMARK  status: ('A' for Active; 'I' for Inactive)
REMARK    1  A    between atoms: C_1  and  C_2
REMARK    2  A    between atoms: C_2  and  N_3
REMARK    3  A    between atoms: C_10  and  C_11
REMARK    4  A    between atoms: N_13  and  C_14
REMARK    5  A    between atoms: C_14  and  C_15
REMARK    6  A    between atoms: C_21  and  N_22
REMARK    7  A    between atoms: N_22  and  C_23
REMARK                            x       y       z     vdW  Elec       q    Type
REMARK                         _______ _______ _______ _____ _____    ______ ____
ROOT
ATOM      1  N   UNL     1       4.153  -6.081  25.195  0.00  0.00    -0.247 N 
ATOM      2  C   UNL     1       5.209  -5.422  24.619  0.00  0.00    +0.160 A 
ATOM      3  N   UNL     1       5.973  -5.876  23.613  0.00  0.00    -0.235 NA
ATOM      4  C   UNL     1       7.000  -5.038  23.339  0.00  0.00    +0.128 A 
ATOM      5  C   UNL     1       7.262  -3.791  23.933  0.00  0.00    +0.076 A 
ATOM      6  C   UNL     1       6.385  -3.306  24.946  0.00  0.00    +0.053 A 
ATOM      7  C   UNL     1       5.346  -4.220  25.299  0.00  0.00    +0.060 A 
ATOM      8  C   UNL     1       4.292  -4.268  26.251  0.00  0.00    +0.146 A 
ATOM      9  N   UNL     1       3.560  -5.384  26.190  0.00  0.00    -0.177 NA
ENDROOT
BRANCH   5  10
ATOM     10  C   UNL     1       8.574  -3.175  23.560  0.00  0.00    +0.248 C 
ATOM     11  N   UNL     1       8.561  -2.233  22.541  0.00  0.00    -0.307 N 
ATOM     12  H   UNL     1       7.691  -1.876  22.171  0.00  0.00    +0.149 HD
ATOM     13  O   UNL     1       9.614  -3.542  24.097  0.00  0.00    -0.270 OA
BRANCH  11  14
ATOM     14  C   UNL     1       9.774  -1.603  22.052  0.00  0.00    +0.139 C 
BRANCH  14  15
ATOM     15  C   UNL     1       9.990  -0.209  22.601  0.00  0.00    -0.030 A 
ATOM     16  C   UNL     1       9.713   0.924  21.821  0.00  0.00    +0.005 A 
ATOM     17  C   UNL     1      10.008   2.208  22.295  0.00  0.00    +0.000 A 
ATOM     18  C   UNL     1      10.580   2.377  23.554  0.00  0.00    +0.000 A 
ATOM     19  C   UNL     1      10.856   1.263  24.343  0.00  0.00    +0.000 A 
ATOM     20  C   UNL     1      10.561  -0.021  23.871  0.00  0.00    +0.005 A 
ENDBRANCH  14  15
ENDBRANCH  11  14
ENDBRANCH   5  10
BRANCH   1  22
ATOM     21  C   UNL     1       2.402  -7.435  24.104  0.00  0.00    +0.029 C 
ATOM     22  C   UNL     1       3.704  -7.423  24.882  0.00  0.00    +0.142 C 
ENDBRANCH   1  22
BRANCH   6  23
ATOM     23  N   UNL     1       6.446  -2.103  25.639  0.00  0.00    -0.340 N 
ATOM     24  H   UNL     1       6.430  -2.235  26.645  0.00  0.00    +0.146 HD
BRANCH  23  25
ATOM     25  C   UNL     1       5.815  -0.832  25.239  0.00  0.00    +0.075 C 
ATOM     26  C   UNL     1       6.913   0.190  24.872  0.00  0.00    +0.050 C 
ATOM     27  C   UNL     1       7.617   0.773  26.097  0.00  0.00    +0.161 C 
ATOM     28  O   UNL     1       6.689   1.258  27.066  0.00  0.00    -0.380 OA
ATOM     29  C   UNL     1       5.782   0.248  27.505  0.00  0.00    +0.161 C 
ATOM     30  C   UNL     1       4.936  -0.229  26.335  0.00  0.00    +0.050 C 
ENDBRANCH  23  25
ENDBRANCH   6  23
TORSDOF 6
ENDMDL
MODEL 7
REMARK VINA RESULT:      -6.5      4.361      7.143
REMARK  Name = 
REMARK  7 active torsions:
REMARK  status: ('A' for Active; 'I' for Inactive)
REMARK    1  A    between atoms: C_1  and  C_2
REMARK    2  A    between atoms: C_2  and  N_3
REMARK    3  A    between atoms: C_10  and  C_11
REMARK    4  A    between atoms: N_13  and  C_14
REMARK    5  A    between atoms: C_14  and  C_15
REMARK    6  A    between atoms: C_21  and  N_22
REMARK    7  A    between atoms: N_22  and  C_23
REMARK                            x       y       z     vdW  Elec       q    Type
REMARK                         _______ _______ _______ _____ _____    ______ ____
ROOT
ATOM      1  N   UNL     1      11.009   5.347  23.730  0.00  0.00    -0.247 N 
ATOM      2  C   UNL     1      10.456   4.096  23.619  0.00  0.00    +0.160 A 
ATOM      3  N   UNL     1      11.125   2.932  23.620  0.00  0.00    -0.235 NA
ATOM      4  C   UNL     1      10.308   1.879  23.387  0.00  0.00    +0.128 A 
ATOM      5  C   UNL     1       8.911   1.904  23.230  0.00  0.00    +0.076 A 
ATOM      6  C   UNL     1       8.226   3.151  23.310  0.00  0.00    +0.053 A 
ATOM      7  C   UNL     1       9.088   4.277  23.473  0.00  0.00    +0.060 A 
ATOM      8  C   UNL     1       8.943   5.689  23.537  0.00  0.00    +0.146 A 
ATOM      9  N   UNL     1      10.096   6.343  23.701  0.00  0.00    -0.177 NA
ENDROOT
BRANCH   5  10
ATOM     10  C   UNL     1       8.298   0.609  22.798  0.00  0.00    +0.248 C 
ATOM     11  N   UNL     1       9.164  -0.379  22.351  0.00  0.00    -0.307 N 
ATOM     12  H   UNL     1      10.165  -0.281  22.452  0.00  0.00    +0.149 HD
ATOM     13  O   UNL     1       7.080   0.465  22.784  0.00  0.00    -0.270 OA
BRANCH  11  14
ATOM     14  C   UNL     1       8.691  -1.659  21.856  0.00  0.00    +0.139 C 
BRANCH  14  15
ATOM     15  C   UNL     1       8.578  -2.716  22.934  0.00  0.00    -0.030 A 
ATOM     16  C   UNL     1       9.539  -2.813  23.952  0.00  0.00    +0.005 A 
ATOM     17  C   UNL     1       9.488  -3.852  24.888  0.00  0.00    +0.000 A 
ATOM     18  C   UNL     1       8.474  -4.806  24.821  0.00  0.00    +0.000 A 
ATOM     19  C   UNL     1       7.509  -4.721  23.821  0.00  0.00    +0.000 A 
ATOM     20  C   UNL     1       7.559  -3.682  22.885  0.00  0.00    +0.005 A 
ENDBRANCH  14  15
ENDBRANCH  11  14
ENDBRANCH   5  10
BRANCH   1  22
ATOM     21  C   UNL     1      13.096   5.591  22.438  0.00  0.00    +0.029 C 
ATOM     22  C   UNL     1      12.422   5.659  23.795  0.00  0.00    +0.142 C 
ENDBRANCH   1  22
BRANCH   6  23
ATOM     23  N   UNL     1       6.861   3.396  23.208  0.00  0.00    -0.340 N 
ATOM     24  H   UNL     1       6.637   4.026  22.445  0.00  0.00    +0.146 HD
BRANCH  23  25
ATOM     25  C   UNL     1       5.912   3.526  24.329  0.00  0.00    +0.075 C 
ATOM     26  C   UNL     1       4.651   2.684  24.030  0.00  0.00    +0.050 C 
ATOM     27  C   UNL     1       3.730   3.337  23.000  0.00  0.00    +0.161 C 
ATOM     28  O   UNL     1       3.443   4.695  23.326  0.00  0.00    -0.380 OA
ATOM     29  C   UNL     1       4.623   5.489  23.442  0.00  0.00    +0.161 C 
ATOM     30  C   UNL     1       5.482   4.971  24.584  0.00  0.00    +0.050 C 
ENDBRANCH  23  25
ENDBRANCH   6  23
TORSDOF 6
ENDMDL
MODEL 8
REMARK VINA RESULT:      -6.5      3.195      5.396
REMARK  Name = 
REMARK  7 active torsions:
REMARK  status: ('A' for Active; 'I' for Inactive)
REMARK    1  A    between atoms: C_1  and  C_2
REMARK    2  A    between atoms: C_2  and  N_3
REMARK    3  A    between atoms: C_10  and  C_11
REMARK    4  A    between atoms: N_13  and  C_14
REMARK    5  A    between atoms: C_14  and  C_15
REMARK    6  A    between atoms: C_21  and  N_22
REMARK    7  A    between atoms: N_22  and  C_23
REMARK                            x       y       z     vdW  Elec       q    Type
REMARK                         _______ _______ _______ _____ _____    ______ ____
ROOT
ATOM      1  N   UNL     1       9.404   4.724  24.266  0.00  0.00    -0.247 N 
ATOM      2  C   UNL     1       9.546   3.375  24.065  0.00  0.00    +0.160 A 
ATOM      3  N   UNL     1      10.424   2.786  23.236  0.00  0.00    -0.235 NA
ATOM      4  C   UNL     1      10.246   1.445  23.181  0.00  0.00    +0.128 A 
ATOM      5  C   UNL     1       9.333   0.677  23.925  0.00  0.00    +0.076 A 
ATOM      6  C   UNL     1       8.468   1.329  24.850  0.00  0.00    +0.053 A 
ATOM      7  C   UNL     1       8.591   2.751  24.856  0.00  0.00    +0.060 A 
ATOM      8  C   UNL     1       7.951   3.842  25.504  0.00  0.00    +0.146 A 
ATOM      9  N   UNL     1       8.441   5.036  25.161  0.00  0.00    -0.177 NA
ENDROOT
BRANCH   5  10
ATOM     10  C   UNL     1       9.234  -0.760  23.517  0.00  0.00    +0.248 C 
ATOM     11  N   UNL     1       9.719  -1.704  24.411  0.00  0.00    -0.307 N 
ATOM     12  H   UNL     1       9.991  -1.444  25.348  0.00  0.00    +0.149 HD
ATOM     13  O   UNL     1       8.799  -1.070  22.412  0.00  0.00    -0.270 OA
BRANCH  11  14
ATOM     14  C   UNL     1       9.729  -3.124  24.109  0.00  0.00    +0.139 C 
BRANCH  14  15
ATOM     15  C   UNL     1       8.618  -3.891  24.796  0.00  0.00    -0.030 A 
ATOM     16  C   UNL     1       8.749  -4.312  26.128  0.00  0.00    +0.005 A 
ATOM     17  C   UNL     1       7.765  -5.106  26.728  0.00  0.00    +0.000 A 
ATOM     18  C   UNL     1       6.636  -5.488  26.006  0.00  0.00    +0.000 A 
ATOM     19  C   UNL     1       6.488  -5.073  24.684  0.00  0.00    +0.000 A 
ATOM     20  C   UNL     1       7.471  -4.279  24.084  0.00  0.00    +0.005 A 
ENDBRANCH  14  15
ENDBRANCH  11  14
ENDBRANCH   5  10
BRANCH   1  22
ATOM     21  C   UNL     1      11.520   5.983  24.110  0.00  0.00    +0.029 C 
ATOM     22  C   UNL     1      10.117   5.776  23.571  0.00  0.00    +0.142 C 
ENDBRANCH   1  22
BRANCH   6  23
ATOM     23  N   UNL     1       7.519   0.763  25.693  0.00  0.00    -0.340 N 
ATOM     24  H   UNL     1       7.929   0.112  26.355  0.00  0.00    +0.146 HD
BRANCH  23  25
ATOM     25  C   UNL     1       6.141   0.385  25.329  0.00  0.00    +0.075 C 
ATOM     26  C   UNL     1       5.161   0.956  26.377  0.00  0.00    +0.050 C 
ATOM     27  C   UNL     1       5.169   0.171  27.689  0.00  0.00    +0.161 C 
ATOM     28  O   UNL     1       5.020  -1.230  27.474  0.00  0.00    -0.380 OA
ATOM     29  C   UNL     1       6.034  -1.763  26.624  0.00  0.00    +0.161 C 
ATOM     30  C   UNL     1       5.938  -1.129  25.246  0.00  0.00    +0.050 C 
ENDBRANCH  23  25
ENDBRANCH   6  23
TORSDOF 6
ENDMDL
MODEL 9
REMARK VINA RESULT:      -6.5      2.770      5.271
REMARK  Name = 
REMARK  7 active torsions:
REMARK  status: ('A' for Active; 'I' for Inactive)
REMARK    1  A    between atoms: C_1  and  C_2
REMARK    2  A    between atoms: C_2  and  N_3
REMARK    3  A    between atoms: C_10  and  C_11
REMARK    4  A    between atoms: N_13  and  C_14
REMARK    5  A    between atoms: C_14  and  C_15
REMARK    6  A    between atoms: C_21  and  N_22
REMARK    7  A    between atoms: N_22  and  C_23
REMARK                            x       y       z     vdW  Elec       q    Type
REMARK                         _______ _______ _______ _____ _____    ______ ____
ROOT
ATOM      1  N   UNL     1       9.274   4.389  24.464  0.00  0.00    -0.247 N 
ATOM      2  C   UNL     1       9.448   3.078  24.100  0.00  0.00    +0.160 A 
ATOM      3  N   UNL     1      10.371   2.610  23.245  0.00  0.00    -0.235 NA
ATOM      4  C   UNL     1      10.220   1.285  23.012  0.00  0.00    +0.128 A 
ATOM      5  C   UNL     1       9.288   0.418  23.610  0.00  0.00    +0.076 A 
ATOM      6  C   UNL     1       8.372   0.937  24.569  0.00  0.00    +0.053 A 
ATOM      7  C   UNL     1       8.470   2.348  24.761  0.00  0.00    +0.060 A 
ATOM      8  C   UNL     1       7.783   3.340  25.511  0.00  0.00    +0.146 A 
ATOM      9  N   UNL     1       8.266   4.574  25.346  0.00  0.00    -0.177 NA
ENDROOT
BRANCH   5  10
ATOM     10  C   UNL     1       9.232  -0.955  23.018  0.00  0.00    +0.248 C 
ATOM     11  N   UNL     1       7.973  -1.492  22.788  0.00  0.00    -0.307 N 
ATOM     12  H   UNL     1       7.140  -0.927  22.879  0.00  0.00    +0.149 HD
ATOM     13  O   UNL     1      10.260  -1.591  22.810  0.00  0.00    -0.270 OA
BRANCH  11  14
ATOM     14  C   UNL     1       7.785  -2.834  22.268  0.00  0.00    +0.139 C 
BRANCH  14  15
ATOM     15  C   UNL     1       6.722  -3.621  23.005  0.00  0.00    -0.030 A 
ATOM     16  C   UNL     1       7.040  -4.813  23.673  0.00  0.00    +0.005 A 
ATOM     17  C   UNL     1       6.039  -5.589  24.267  0.00  0.00    +0.000 A 
ATOM     18  C   UNL     1       4.707  -5.183  24.206  0.00  0.00    +0.000 A 
ATOM     19  C   UNL     1       4.376  -3.999  23.552  0.00  0.00    +0.000 A 
ATOM     20  C   UNL     1       5.376  -3.222  22.958  0.00  0.00    +0.005 A 
ENDBRANCH  14  15
ENDBRANCH  11  14
ENDBRANCH   5  10
BRANCH   1  22
ATOM     21  C   UNL     1       9.079   6.593  23.372  0.00  0.00    +0.029 C 
ATOM     22  C   UNL     1       9.999   5.530  23.942  0.00  0.00    +0.142 C 
ENDBRANCH   1  22
BRANCH   6  23
ATOM     23  N   UNL     1       7.396   0.257  25.289  0.00  0.00    -0.340 N 
ATOM     24  H   UNL     1       6.458   0.566  25.055  0.00  0.00    +0.146 HD
BRANCH  23  25
ATOM     25  C   UNL     1       7.497  -0.191  26.689  0.00  0.00    +0.075 C 
ATOM     26  C   UNL     1       8.693  -1.159  26.831  0.00  0.00    +0.050 C 
ATOM     27  C   UNL     1       8.401  -2.551  26.269  0.00  0.00    +0.161 C 
ATOM     28  O   UNL     1       7.176  -3.082  26.768  0.00  0.00    -0.380 OA
ATOM     29  C   UNL     1       6.060  -2.239  26.485  0.00  0.00    +0.161 C 
ATOM     30  C   UNL     1       6.236  -0.901  27.184  0.00  0.00    +0.050 C 
ENDBRANCH  23  25
ENDBRANCH   6  23
TORSDOF 6
ENDMDL
