MODEL 1
REMARK VINA RESULT:      -6.1      0.000      0.000
REMARK  Name = 
REMARK  3 active torsions:
REMARK  status: ('A' for Active; 'I' for Inactive)
REMARK    1  A    between atoms: O_1  and  C_2
REMARK    2  A    between atoms: C_6  and  O_7
REMARK    3  A    between atoms: C_12  and  O_13
REMARK                            x       y       z     vdW  Elec       q    Type
REMARK                         _______ _______ _______ _____ _____    ______ ____
ROOT
ATOM      1  C   UNL     1       8.880  -4.033  24.457  0.00  0.00    +0.121 A 
ATOM      2  C   UNL     1       8.851  -4.557  25.745  0.00  0.00    +0.091 A 
ATOM      3  C   UNL     1       7.749  -5.303  26.159  0.00  0.00    +0.132 A 
ATOM      4  C   UNL     1       6.676  -5.527  25.286  0.00  0.00    +0.074 A 
ATOM      5  C   UNL     1       5.510  -6.315  25.717  0.00  0.00    +0.194 C 
ATOM      6  C   UNL     1       4.406  -6.523  24.766  0.00  0.00    +0.101 C 
ATOM      7  C   UNL     1       4.432  -6.021  23.527  0.00  0.00    +0.168 C 
ATOM      8  C   UNL     1       5.601  -5.215  23.054  0.00  0.00    +0.228 C 
ATOM      9  O   UNL     1       5.648  -4.744  21.924  0.00  0.00    -0.283 OA
ATOM     10  O   UNL     1       5.455  -6.790  26.847  0.00  0.00    -0.287 OA
ATOM     11  C   UNL     1       6.717  -4.996  23.996  0.00  0.00    +0.043 A 
ATOM     12  C   UNL     1       7.825  -4.245  23.577  0.00  0.00    +0.058 A 
ENDROOT
BRANCH   1  13
ATOM     13  O   UNL     1       9.975  -3.309  24.091  0.00  0.00    -0.507 OA
ATOM     14  H   UNL     1       9.881  -2.396  24.413  0.00  0.00    +0.292 HD
ENDBRANCH   1  13
BRANCH   3  15
ATOM     15  O   UNL     1       7.788  -5.788  27.439  0.00  0.00    -0.506 OA
ATOM     16  H   UNL     1       7.039  -6.412  27.564  0.00  0.00    +0.292 HD
ENDBRANCH   3  15
BRANCH   7  17
ATOM     17  O   UNL     1       3.393  -6.221  22.638  0.00  0.00    -0.503 OA
ATOM     18  H   UNL     1       2.963  -5.374  22.432  0.00  0.00    +0.292 HD
ENDBRANCH   7  17
TORSDOF 3
ENDMDL
MODEL 2
REMARK VINA RESULT:      -5.8      0.687      4.093
REMARK  Name = 
REMARK  3 active torsions:
REMARK  status: ('A' for Active; 'I' for Inactive)
REMARK    1  A    between atoms: O_1  and  C_2
REMARK    2  A    between atoms: C_6  and  O_7
REMARK    3  A    between atoms: C_12  and  O_13
REMARK                            x       y       z     vdW  Elec       q    Type
REMARK                         _______ _______ _______ _____ _____    ______ ____
ROOT
ATOM      1  C   UNL     1       4.398  -6.325  23.795  0.00  0.00    +0.121 A 
ATOM      2  C   UNL     1       4.338  -6.759  25.114  0.00  0.00    +0.091 A 
ATOM      3  C   UNL     1       5.378  -6.450  25.988  0.00  0.00    +0.132 A 
ATOM      4  C   UNL     1       6.479  -5.705  25.546  0.00  0.00    +0.074 A 
ATOM      5  C   UNL     1       7.580  -5.375  26.464  0.00  0.00    +0.194 C 
ATOM      6  C   UNL     1       8.716  -4.591  25.953  0.00  0.00    +0.101 C 
ATOM      7  C   UNL     1       8.776  -4.172  24.686  0.00  0.00    +0.168 C 
ATOM      8  C   UNL     1       7.676  -4.489  23.723  0.00  0.00    +0.228 C 
ATOM      9  O   UNL     1       7.709  -4.115  22.556  0.00  0.00    -0.283 OA
ATOM     10  O   UNL     1       7.556  -5.744  27.634  0.00  0.00    -0.287 OA
ATOM     11  C   UNL     1       6.528  -5.275  24.219  0.00  0.00    +0.043 A 
ATOM     12  C   UNL     1       5.482  -5.585  23.337  0.00  0.00    +0.058 A 
ENDROOT
BRANCH   1  13
ATOM     13  O   UNL     1       3.362  -6.648  22.971  0.00  0.00    -0.507 OA
ATOM     14  H   UNL     1       2.546  -6.730  23.494  0.00  0.00    +0.292 HD
ENDBRANCH   1  13
BRANCH   3  15
ATOM     15  O   UNL     1       5.252  -6.910  27.272  0.00  0.00    -0.506 OA
ATOM     16  H   UNL     1       5.218  -6.141  27.882  0.00  0.00    +0.292 HD
ENDBRANCH   3  15
BRANCH   7  17
ATOM     17  O   UNL     1       9.846  -3.434  24.212  0.00  0.00    -0.503 OA
ATOM     18  H   UNL     1      10.587  -3.482  24.839  0.00  0.00    +0.292 HD
ENDBRANCH   7  17
TORSDOF 3
ENDMDL
MODEL 3
REMARK VINA RESULT:      -5.8      4.354      6.290
REMARK  Name = 
REMARK  3 active torsions:
REMARK  status: ('A' for Active; 'I' for Inactive)
REMARK    1  A    between atoms: O_1  and  C_2
REMARK    2  A    between atoms: C_6  and  O_7
REMARK    3  A    between atoms: C_12  and  O_13
REMARK                            x       y       z     vdW  Elec       q    Type
REMARK                         _______ _______ _______ _____ _____    ______ ____
ROOT
ATOM      1  C   UNL     1       9.973   1.698  22.743  0.00  0.00    +0.121 A 
ATOM      2  C   UNL     1       9.312   2.248  23.836  0.00  0.00    +0.091 A 
ATOM      3  C   UNL     1       8.834   1.412  24.842  0.00  0.00    +0.132 A 
ATOM      4  C   UNL     1       9.015   0.025  24.759  0.00  0.00    +0.074 A 
ATOM      5  C   UNL     1       8.512  -0.863  25.819  0.00  0.00    +0.194 C 
ATOM      6  C   UNL     1       8.727  -2.313  25.687  0.00  0.00    +0.101 C 
ATOM      7  C   UNL     1       9.362  -2.845  24.637  0.00  0.00    +0.168 C 
ATOM      8  C   UNL     1       9.886  -1.973  23.541  0.00  0.00    +0.228 C 
ATOM      9  O   UNL     1      10.471  -2.437  22.569  0.00  0.00    -0.283 OA
ATOM     10  O   UNL     1       7.926  -0.408  26.795  0.00  0.00    -0.287 OA
ATOM     11  C   UNL     1       9.680  -0.515  23.657  0.00  0.00    +0.043 A 
ATOM     12  C   UNL     1      10.163   0.325  22.642  0.00  0.00    +0.058 A 
ENDROOT
BRANCH   1  13
ATOM     13  O   UNL     1      10.426   2.549  21.780  0.00  0.00    -0.507 OA
ATOM     14  H   UNL     1       9.967   2.364  20.943  0.00  0.00    +0.292 HD
ENDBRANCH   1  13
BRANCH   3  15
ATOM     15  O   UNL     1       8.193   2.022  25.888  0.00  0.00    -0.506 OA
ATOM     16  H   UNL     1       7.514   2.635  25.529  0.00  0.00    +0.292 HD
ENDBRANCH   3  15
BRANCH   7  17
ATOM     17  O   UNL     1       9.561  -4.208  24.520  0.00  0.00    -0.503 OA
ATOM     18  H   UNL     1       8.889  -4.688  25.032  0.00  0.00    +0.292 HD
ENDBRANCH   7  17
TORSDOF 3
ENDMDL
MODEL 4
REMARK VINA RESULT:      -5.7      4.188      5.930
REMARK  Name = 
REMARK  3 active torsions:
REMARK  status: ('A' for Active; 'I' for Inactive)
REMARK    1  A    between atoms: O_1  and  C_2
REMARK    2  A    between atoms: C_6  and  O_7
REMARK    3  A    between atoms: C_12  and  O_13
REMARK                            x       y       z     vdW  Elec       q    Type
REMARK                         _______ _______ _______ _____ _____    ______ ____
ROOT
ATOM      1  C   UNL     1       9.293   1.361  22.035  0.00  0.00    +0.121 A 
ATOM      2  C   UNL     1       7.986   1.712  22.355  0.00  0.00    +0.091 A 
ATOM      3  C   UNL     1       7.157   0.781  22.978  0.00  0.00    +0.132 A 
ATOM      4  C   UNL     1       7.633  -0.501  23.284  0.00  0.00    +0.074 A 
ATOM      5  C   UNL     1       6.763  -1.487  23.942  0.00  0.00    +0.194 C 
ATOM      6  C   UNL     1       7.308  -2.822  24.244  0.00  0.00    +0.101 C 
ATOM      7  C   UNL     1       8.564  -3.161  23.938  0.00  0.00    +0.168 C 
ATOM      8  C   UNL     1       9.478  -2.184  23.267  0.00  0.00    +0.228 C 
ATOM      9  O   UNL     1      10.633  -2.471  22.977  0.00  0.00    -0.283 OA
ATOM     10  O   UNL     1       5.606  -1.208  24.237  0.00  0.00    -0.287 OA
ATOM     11  C   UNL     1       8.947  -0.841  22.958  0.00  0.00    +0.043 A 
ATOM     12  C   UNL     1       9.784   0.095  22.330  0.00  0.00    +0.058 A 
ENDROOT
BRANCH   1  13
ATOM     13  O   UNL     1      10.071   2.299  21.425  0.00  0.00    -0.507 OA
ATOM     14  H   UNL     1       9.608   2.645  20.643  0.00  0.00    +0.292 HD
ENDBRANCH   1  13
BRANCH   3  15
ATOM     15  O   UNL     1       5.883   1.194  23.263  0.00  0.00    -0.506 OA
ATOM     16  H   UNL     1       5.738   2.077  22.856  0.00  0.00    +0.292 HD
ENDBRANCH   3  15
BRANCH   7  17
ATOM     17  O   UNL     1       9.071  -4.415  24.224  0.00  0.00    -0.503 OA
ATOM     18  H   UNL     1       8.351  -5.013  24.488  0.00  0.00    +0.292 HD
ENDBRANCH   7  17
TORSDOF 3
ENDMDL
MODEL 5
REMARK VINA RESULT:      -5.6      0.928      3.404
REMARK  Name = 
REMARK  3 active torsions:
REMARK  status: ('A' for Active; 'I' for Inactive)
REMARK    1  A    between atoms: O_1  and  C_2
REMARK    2  A    between atoms: C_6  and  O_7
REMARK    3  A    between atoms: C_12  and  O_13
REMARK                            x       y       z     vdW  Elec       q    Type
REMARK                         _______ _______ _______ _____ _____    ______ ____
ROOT
ATOM      1  C   UNL     1       8.593  -3.338  23.734  0.00  0.00    +0.121 A 
ATOM      2  C   UNL     1       7.744  -3.196  22.642  0.00  0.00    +0.091 A 
ATOM      3  C   UNL     1       6.524  -3.869  22.628  0.00  0.00    +0.132 A 
ATOM      4  C   UNL     1       6.150  -4.684  23.705  0.00  0.00    +0.074 A 
ATOM      5  C   UNL     1       4.863  -5.397  23.696  0.00  0.00    +0.194 C 
ATOM      6  C   UNL     1       4.514  -6.241  24.850  0.00  0.00    +0.101 C 
ATOM      7  C   UNL     1       5.329  -6.380  25.900  0.00  0.00    +0.168 C 
ATOM      8  C   UNL     1       6.646  -5.671  25.944  0.00  0.00    +0.228 C 
ATOM      9  O   UNL     1       7.409  -5.782  26.896  0.00  0.00    -0.283 OA
ATOM     10  O   UNL     1       4.092  -5.292  22.747  0.00  0.00    -0.287 OA
ATOM     11  C   UNL     1       7.011  -4.819  24.794  0.00  0.00    +0.043 A 
ATOM     12  C   UNL     1       8.240  -4.142  24.811  0.00  0.00    +0.058 A 
ENDROOT
BRANCH   1  13
ATOM     13  O   UNL     1       9.778  -2.664  23.709  0.00  0.00    -0.507 OA
ATOM     14  H   UNL     1       9.949  -2.346  22.807  0.00  0.00    +0.292 HD
ENDBRANCH   1  13
BRANCH   3  15
ATOM     15  O   UNL     1       5.738  -3.683  21.521  0.00  0.00    -0.506 OA
ATOM     16  H   UNL     1       5.170  -2.895  21.666  0.00  0.00    +0.292 HD
ENDBRANCH   3  15
BRANCH   7  17
ATOM     17  O   UNL     1       4.995  -7.174  26.982  0.00  0.00    -0.503 OA
ATOM     18  H   UNL     1       4.323  -7.826  26.722  0.00  0.00    +0.292 HD
ENDBRANCH   7  17
TORSDOF 3
ENDMDL
MODEL 6
REMARK VINA RESULT:      -5.6      1.414      4.183
REMARK  Name = 
REMARK  3 active torsions:
REMARK  status: ('A' for Active; 'I' for Inactive)
REMARK    1  A    between atoms: O_1  and  C_2
REMARK    2  A    between atoms: C_6  and  O_7
REMARK    3  A    between atoms: C_12  and  O_13
REMARK                            x       y       z     vdW  Elec       q    Type
REMARK                         _______ _______ _______ _____ _____    ______ ____
ROOT
ATOM      1  C   UNL     1       7.228  -5.488  26.602  0.00  0.00    +0.121 A 
ATOM      2  C   UNL     1       5.960  -5.805  26.129  0.00  0.00    +0.091 A 
ATOM      3  C   UNL     1       5.533  -5.290  24.907  0.00  0.00    +0.132 A 
ATOM      4  C   UNL     1       6.374  -4.458  24.155  0.00  0.00    +0.074 A 
ATOM      5  C   UNL     1       5.930  -3.912  22.863  0.00  0.00    +0.194 C 
ATOM      6  C   UNL     1       6.848  -3.042  22.110  0.00  0.00    +0.101 C 
ATOM      7  C   UNL     1       8.068  -2.736  22.563  0.00  0.00    +0.168 C 
ATOM      8  C   UNL     1       8.553  -3.273  23.872  0.00  0.00    +0.228 C 
ATOM      9  O   UNL     1       9.667  -3.006  24.308  0.00  0.00    -0.283 OA
ATOM     10  O   UNL     1       4.817  -4.173  22.419  0.00  0.00    -0.287 OA
ATOM     11  C   UNL     1       7.645  -4.147  24.641  0.00  0.00    +0.043 A 
ATOM     12  C   UNL     1       8.076  -4.665  25.872  0.00  0.00    +0.058 A 
ENDROOT
BRANCH   1  13
ATOM     13  O   UNL     1       7.607  -6.012  27.802  0.00  0.00    -0.507 OA
ATOM     14  H   UNL     1       7.901  -6.930  27.676  0.00  0.00    +0.292 HD
ENDBRANCH   1  13
BRANCH   3  15
ATOM     15  O   UNL     1       4.273  -5.644  24.502  0.00  0.00    -0.506 OA
ATOM     16  H   UNL     1       4.325  -6.494  24.013  0.00  0.00    +0.292 HD
ENDBRANCH   3  15
BRANCH   7  17
ATOM     17  O   UNL     1       8.926  -1.919  21.850  0.00  0.00    -0.503 OA
ATOM     18  H   UNL     1       9.670  -2.439  21.504  0.00  0.00    +0.292 HD
ENDBRANCH   7  17
TORSDOF 3
ENDMDL
MODEL 7
REMARK VINA RESULT:      -5.5      1.814      4.001
REMARK  Name = 
REMARK  3 active torsions:
REMARK  status: ('A' for Active; 'I' for Inactive)
REMARK    1  A    between atoms: O_1  and  C_2
REMARK    2  A    between atoms: C_6  and  O_7
REMARK    3  A    between atoms: C_12  and  O_13
REMARK                            x       y       z     vdW  Elec       q    Type
REMARK                         _______ _______ _______ _____ _____    ______ ____
ROOT
ATOM      1  C   UNL     1       9.453  -2.431  23.073  0.00  0.00    +0.121 A 
ATOM      2  C   UNL     1       8.205  -2.278  22.479  0.00  0.00    +0.091 A 
ATOM      3  C   UNL     1       7.094  -2.900  23.045  0.00  0.00    +0.132 A 
ATOM      4  C   UNL     1       7.227  -3.674  24.206  0.00  0.00    +0.074 A 
ATOM      5  C   UNL     1       6.058  -4.332  24.808  0.00  0.00    +0.194 C 
ATOM      6  C   UNL     1       6.248  -5.135  26.027  0.00  0.00    +0.101 C 
ATOM      7  C   UNL     1       7.446  -5.283  26.600  0.00  0.00    +0.168 C 
ATOM      8  C   UNL     1       8.658  -4.629  26.015  0.00  0.00    +0.228 C 
ATOM      9  O   UNL     1       9.767  -4.751  26.522  0.00  0.00    -0.283 OA
ATOM     10  O   UNL     1       4.944  -4.216  24.308  0.00  0.00    -0.287 OA
ATOM     11  C   UNL     1       8.485  -3.820  24.792  0.00  0.00    +0.043 A 
ATOM     12  C   UNL     1       9.606  -3.195  24.224  0.00  0.00    +0.058 A 
ENDROOT
BRANCH   1  13
ATOM     13  O   UNL     1      10.515  -1.808  22.489  0.00  0.00    -0.507 OA
ATOM     14  H   UNL     1      10.424  -1.853  21.522  0.00  0.00    +0.292 HD
ENDBRANCH   1  13
BRANCH   3  15
ATOM     15  O   UNL     1       5.897  -2.706  22.408  0.00  0.00    -0.506 OA
ATOM     16  H   UNL     1       5.600  -1.783  22.566  0.00  0.00    +0.292 HD
ENDBRANCH   3  15
BRANCH   7  17
ATOM     17  O   UNL     1       7.618  -6.038  27.746  0.00  0.00    -0.503 OA
ATOM     18  H   UNL     1       8.563  -6.107  27.960  0.00  0.00    +0.292 HD
ENDBRANCH   7  17
TORSDOF 3
ENDMDL
MODEL 8
REMARK VINA RESULT:      -5.5      1.328      5.203
REMARK  Name = 
REMARK  3 active torsions:
REMARK  status: ('A' for Active; 'I' for Inactive)
REMARK    1  A    between atoms: O_1  and  C_2
REMARK    2  A    between atoms: C_6  and  O_7
REMARK    3  A    between atoms: C_12  and  O_13
REMARK                            x       y       z     vdW  Elec       q    Type
REMARK                         _______ _______ _______ _____ _____    ______ ____
ROOT
ATOM      1  C   UNL     1       3.912  -7.001  25.560  0.00  0.00    +0.121 A 
ATOM      2  C   UNL     1       3.892  -6.584  24.233  0.00  0.00    +0.091 A 
ATOM      3  C   UNL     1       4.965  -5.854  23.726  0.00  0.00    +0.132 A 
ATOM      4  C   UNL     1       6.059  -5.539  24.544  0.00  0.00    +0.074 A 
ATOM      5  C   UNL     1       7.195  -4.770  24.014  0.00  0.00    +0.194 C 
ATOM      6  C   UNL     1       8.322  -4.463  24.910  0.00  0.00    +0.101 C 
ATOM      7  C   UNL     1       8.343  -4.862  26.186  0.00  0.00    +0.168 C 
ATOM      8  C   UNL     1       7.205  -5.647  26.759  0.00  0.00    +0.228 C 
ATOM      9  O   UNL     1       7.201  -6.024  27.925  0.00  0.00    -0.283 OA
ATOM     10  O   UNL     1       7.208  -4.388  22.848  0.00  0.00    -0.287 OA
ATOM     11  C   UNL     1       6.067  -5.963  25.873  0.00  0.00    +0.043 A 
ATOM     12  C   UNL     1       4.988  -6.699  26.387  0.00  0.00    +0.058 A 
ENDROOT
BRANCH   1  13
ATOM     13  O   UNL     1       2.843  -7.712  26.018  0.00  0.00    -0.507 OA
ATOM     14  H   UNL     1       2.842  -7.703  26.990  0.00  0.00    +0.292 HD
ENDBRANCH   1  13
BRANCH   3  15
ATOM     15  O   UNL     1       4.879  -5.477  22.413  0.00  0.00    -0.506 OA
ATOM     16  H   UNL     1       4.910  -6.282  21.850  0.00  0.00    +0.292 HD
ENDBRANCH   3  15
BRANCH   7  17
ATOM     17  O   UNL     1       9.404  -4.572  27.023  0.00  0.00    -0.503 OA
ATOM     18  H   UNL     1      10.073  -5.275  26.969  0.00  0.00    +0.292 HD
ENDBRANCH   7  17
TORSDOF 3
ENDMDL
MODEL 9
REMARK VINA RESULT:      -5.4      1.406      3.512
REMARK  Name = 
REMARK  3 active torsions:
REMARK  status: ('A' for Active; 'I' for Inactive)
REMARK    1  A    between atoms: O_1  and  C_2
REMARK    2  A    between atoms: C_6  and  O_7
REMARK    3  A    between atoms: C_12  and  O_13
REMARK                            x       y       z     vdW  Elec       q    Type
REMARK                         _______ _______ _______ _____ _____    ______ ____
ROOT
ATOM      1  C   UNL     1       6.151  -5.359  21.680  0.00  0.00    +0.121 A 
ATOM      2  C   UNL     1       7.151  -4.507  22.138  0.00  0.00    +0.091 A 
ATOM      3  C   UNL     1       7.377  -4.385  23.507  0.00  0.00    +0.132 A 
ATOM      4  C   UNL     1       6.606  -5.115  24.422  0.00  0.00    +0.074 A 
ATOM      5  C   UNL     1       6.841  -4.991  25.869  0.00  0.00    +0.194 C 
ATOM      6  C   UNL     1       6.006  -5.778  26.791  0.00  0.00    +0.101 C 
ATOM      7  C   UNL     1       5.044  -6.597  26.353  0.00  0.00    +0.168 C 
ATOM      8  C   UNL     1       4.777  -6.749  24.889  0.00  0.00    +0.228 C 
ATOM      9  O   UNL     1       3.901  -7.494  24.465  0.00  0.00    -0.283 OA
ATOM     10  O   UNL     1       7.715  -4.248  26.303  0.00  0.00    -0.287 OA
ATOM     11  C   UNL     1       5.606  -5.966  23.950  0.00  0.00    +0.043 A 
ATOM     12  C   UNL     1       5.376  -6.091  22.572  0.00  0.00    +0.058 A 
ENDROOT
BRANCH   1  13
ATOM     13  O   UNL     1       5.961  -5.449  20.334  0.00  0.00    -0.507 OA
ATOM     14  H   UNL     1       5.015  -5.343  20.134  0.00  0.00    +0.292 HD
ENDBRANCH   1  13
BRANCH   3  15
ATOM     15  O   UNL     1       8.377  -3.529  23.886  0.00  0.00    -0.506 OA
ATOM     16  H   UNL     1       8.913  -3.959  24.588  0.00  0.00    +0.292 HD
ENDBRANCH   3  15
BRANCH   7  17
ATOM     17  O   UNL     1       4.263  -7.335  27.225  0.00  0.00    -0.503 OA
ATOM     18  H   UNL     1       4.709  -7.415  28.084  0.00  0.00    +0.292 HD
ENDBRANCH   7  17
TORSDOF 3
ENDMDL
