MODEL 1
REMARK VINA RESULT:      -6.3      0.000      0.000
REMARK  Name = 
REMARK  7 active torsions:
REMARK  status: ('A' for Active; 'I' for Inactive)
REMARK    1  A    between atoms: CA_2  and  N_3
REMARK    2  A    between atoms: CA_2  and  C_4
REMARK    3  A    between atoms: CA_2  and  C_16
REMARK    4  A    between atoms: C_4  and  C_5
REMARK    5  A    between atoms: C_8  and  C_9
REMARK    6  A    between atoms: C_9  and  C_10
REMARK    7  A    between atoms: C_16  and  O_17
REMARK                            x       y       z     vdW  Elec       q    Type
REMARK                         _______ _______ _______ _____ _____    ______ ____
ROOT
ATOM      1  C   UNL     1       9.162  -2.538  24.162  0.00  0.00    -0.045 A 
ATOM      2  C   UNL     1       8.932  -1.653  25.226  0.00  0.00    +0.004 A 
ATOM      3  C   UNL     1       9.446  -0.355  25.198  0.00  0.00    +0.004 A 
ATOM      4  C   UNL     1      10.198   0.084  24.101  0.00  0.00    -0.039 A 
ATOM      5  C   UNL     1      10.339  -0.760  22.997  0.00  0.00    +0.004 A 
ATOM      6  C   UNL     1       9.810  -2.051  23.020  0.00  0.00    +0.004 A 
ENDROOT
BRANCH   1   7
ATOM      7  C   UNL     1       8.720  -3.981  24.285  0.00  0.00    +0.065 C 
BRANCH   7   8
ATOM      8  CA  UNL     1       9.042  -4.685  25.621  0.00  0.00    +0.165 C 
BRANCH   8   9
ATOM      9  N   UNL     1      10.160  -5.640  25.413  0.00  0.00    -0.318 NA
ATOM     10  H1  UNL     1      10.986  -5.421  25.965  0.00  0.00    +0.119 HD
ATOM     11  H2  UNL     1       9.887  -6.618  25.429  0.00  0.00    +0.119 HD
ENDBRANCH   8   9
BRANCH   8  12
ATOM     12  C   UNL     1       7.798  -5.382  26.227  0.00  0.00    +0.322 C 
ATOM     13  OXT UNL     1       6.718  -5.506  25.673  0.00  0.00    -0.249 OA
BRANCH  12  14
ATOM     14  O   UNL     1       7.990  -5.836  27.492  0.00  0.00    -0.480 OA
ATOM     15  H   UNL     1       7.668  -5.179  28.137  0.00  0.00    +0.295 HD
ENDBRANCH  12  14
ENDBRANCH   8  12
ENDBRANCH   7   8
ENDBRANCH   1   7
BRANCH   4  16
ATOM     16  C   UNL     1      10.880   1.428  24.125  0.00  0.00    +0.148 C 
BRANCH  16  17
ATOM     17  C   UNL     1      10.327   2.466  23.163  0.00  0.00    +0.394 C 
ATOM     18  F   UNL     1      10.880   3.680  23.401  0.00  0.00    -0.170 F 
ATOM     19  F   UNL     1       8.989   2.600  23.330  0.00  0.00    -0.170 F 
ATOM     20  F   UNL     1      10.541   2.173  21.864  0.00  0.00    -0.170 F 
ENDBRANCH  16  17
ENDBRANCH   4  16
TORSDOF 7
ENDMDL
MODEL 2
REMARK VINA RESULT:      -6.0      1.371      1.721
REMARK  Name = 
REMARK  7 active torsions:
REMARK  status: ('A' for Active; 'I' for Inactive)
REMARK    1  A    between atoms: CA_2  and  N_3
REMARK    2  A    between atoms: CA_2  and  C_4
REMARK    3  A    between atoms: CA_2  and  C_16
REMARK    4  A    between atoms: C_4  and  C_5
REMARK    5  A    between atoms: C_8  and  C_9
REMARK    6  A    between atoms: C_9  and  C_10
REMARK    7  A    between atoms: C_16  and  O_17
REMARK                            x       y       z     vdW  Elec       q    Type
REMARK                         _______ _______ _______ _____ _____    ______ ____
ROOT
ATOM      1  C   UNL     1       8.577  -3.156  23.764  0.00  0.00    -0.045 A 
ATOM      2  C   UNL     1       7.455  -2.413  23.371  0.00  0.00    +0.004 A 
ATOM      3  C   UNL     1       7.556  -1.039  23.139  0.00  0.00    +0.004 A 
ATOM      4  C   UNL     1       8.784  -0.385  23.292  0.00  0.00    -0.039 A 
ATOM      5  C   UNL     1       9.923  -1.141  23.582  0.00  0.00    +0.004 A 
ATOM      6  C   UNL     1       9.823  -2.517  23.796  0.00  0.00    +0.004 A 
ENDROOT
BRANCH   1   7
ATOM      7  C   UNL     1       8.409  -4.611  24.151  0.00  0.00    +0.065 C 
BRANCH   7   8
ATOM      8  CA  UNL     1       8.760  -4.977  25.610  0.00  0.00    +0.165 C 
BRANCH   8   9
ATOM      9  N   UNL     1       9.853  -5.982  25.612  0.00  0.00    -0.318 NA
ATOM     10  H1  UNL     1      10.551  -5.818  26.334  0.00  0.00    +0.119 HD
ATOM     11  H2  UNL     1       9.540  -6.945  25.535  0.00  0.00    +0.119 HD
ENDBRANCH   8   9
BRANCH   8  12
ATOM     12  C   UNL     1       7.523  -5.473  26.400  0.00  0.00    +0.322 C 
ATOM     13  OXT UNL     1       6.365  -5.387  26.025  0.00  0.00    -0.249 OA
BRANCH  12  14
ATOM     14  O   UNL     1       7.828  -6.004  27.611  0.00  0.00    -0.480 OA
ATOM     15  H   UNL     1       8.106  -6.933  27.511  0.00  0.00    +0.295 HD
ENDBRANCH  12  14
ENDBRANCH   8  12
ENDBRANCH   7   8
ENDBRANCH   1   7
BRANCH   4  16
ATOM     16  C   UNL     1       8.874   1.117  23.188  0.00  0.00    +0.148 C 
BRANCH  16  17
ATOM     17  C   UNL     1       9.226   1.664  21.816  0.00  0.00    +0.394 C 
ATOM     18  F   UNL     1       8.389   2.674  21.475  0.00  0.00    -0.170 F 
ATOM     19  F   UNL     1       9.088   0.700  20.874  0.00  0.00    -0.170 F 
ATOM     20  F   UNL     1      10.487   2.135  21.724  0.00  0.00    -0.170 F 
ENDBRANCH  16  17
ENDBRANCH   4  16
TORSDOF 7
ENDMDL
MODEL 3
REMARK VINA RESULT:      -5.9      1.874      2.338
REMARK  Name = 
REMARK  7 active torsions:
REMARK  status: ('A' for Active; 'I' for Inactive)
REMARK    1  A    between atoms: CA_2  and  N_3
REMARK    2  A    between atoms: CA_2  and  C_4
REMARK    3  A    between atoms: CA_2  and  C_16
REMARK    4  A    between atoms: C_4  and  C_5
REMARK    5  A    between atoms: C_8  and  C_9
REMARK    6  A    between atoms: C_9  and  C_10
REMARK    7  A    between atoms: C_16  and  O_17
REMARK                            x       y       z     vdW  Elec       q    Type
REMARK                         _______ _______ _______ _____ _____    ______ ____
ROOT
ATOM      1  C   UNL     1       8.633  -3.812  23.978  0.00  0.00    -0.045 A 
ATOM      2  C   UNL     1       9.785  -3.037  24.177  0.00  0.00    +0.004 A 
ATOM      3  C   UNL     1      10.053  -1.937  23.358  0.00  0.00    +0.004 A 
ATOM      4  C   UNL     1       9.172  -1.591  22.327  0.00  0.00    -0.039 A 
ATOM      5  C   UNL     1       7.975  -2.298  22.195  0.00  0.00    +0.004 A 
ATOM      6  C   UNL     1       7.700  -3.386  23.025  0.00  0.00    +0.004 A 
ENDROOT
BRANCH   1   7
ATOM      7  C   UNL     1       8.442  -5.081  24.782  0.00  0.00    +0.065 C 
BRANCH   7   8
ATOM      8  CA  UNL     1       7.444  -5.004  25.958  0.00  0.00    +0.165 C 
BRANCH   8   9
ATOM      9  N   UNL     1       8.091  -5.535  27.184  0.00  0.00    -0.318 NA
ATOM     10  H1  UNL     1       8.647  -4.842  27.680  0.00  0.00    +0.119 HD
ATOM     11  H2  UNL     1       7.480  -6.091  27.776  0.00  0.00    +0.119 HD
ENDBRANCH   8   9
BRANCH   8  12
ATOM     12  C   UNL     1       6.117  -5.739  25.645  0.00  0.00    +0.322 C 
ATOM     13  OXT UNL     1       5.454  -5.597  24.631  0.00  0.00    -0.249 OA
BRANCH  12  14
ATOM     14  O   UNL     1       5.704  -6.566  26.640  0.00  0.00    -0.480 OA
ATOM     15  H   UNL     1       5.076  -7.223  26.290  0.00  0.00    +0.295 HD
ENDBRANCH  12  14
ENDBRANCH   8  12
ENDBRANCH   7   8
ENDBRANCH   1   7
BRANCH   4  16
ATOM     16  C   UNL     1       9.524  -0.500  21.348  0.00  0.00    +0.148 C 
BRANCH  16  17
ATOM     17  C   UNL     1       9.190   0.916  21.787  0.00  0.00    +0.394 C 
ATOM     18  F   UNL     1      10.304   1.687  21.802  0.00  0.00    -0.170 F 
ATOM     19  F   UNL     1       8.693   0.913  23.048  0.00  0.00    -0.170 F 
ATOM     20  F   UNL     1       8.283   1.530  21.001  0.00  0.00    -0.170 F 
ENDBRANCH  16  17
ENDBRANCH   4  16
TORSDOF 7
ENDMDL
MODEL 4
REMARK VINA RESULT:      -5.8      2.903      3.241
REMARK  Name = 
REMARK  7 active torsions:
REMARK  status: ('A' for Active; 'I' for Inactive)
REMARK    1  A    between atoms: CA_2  and  N_3
REMARK    2  A    between atoms: CA_2  and  C_4
REMARK    3  A    between atoms: CA_2  and  C_16
REMARK    4  A    between atoms: C_4  and  C_5
REMARK    5  A    between atoms: C_8  and  C_9
REMARK    6  A    between atoms: C_9  and  C_10
REMARK    7  A    between atoms: C_16  and  O_17
REMARK                            x       y       z     vdW  Elec       q    Type
REMARK                         _______ _______ _______ _____ _____    ______ ____
ROOT
ATOM      1  C   UNL     1       8.025  -1.892  22.703  0.00  0.00    -0.045 A 
ATOM      2  C   UNL     1       7.358  -0.706  23.043  0.00  0.00    +0.004 A 
ATOM      3  C   UNL     1       7.962   0.536  22.835  0.00  0.00    +0.004 A 
ATOM      4  C   UNL     1       9.244   0.614  22.279  0.00  0.00    -0.039 A 
ATOM      5  C   UNL     1       9.866  -0.560  21.844  0.00  0.00    +0.004 A 
ATOM      6  C   UNL     1       9.253  -1.799  22.037  0.00  0.00    +0.004 A 
ENDROOT
BRANCH   1   7
ATOM      7  C   UNL     1       7.409  -3.225  23.074  0.00  0.00    +0.065 C 
BRANCH   7   8
ATOM      8  CA  UNL     1       6.692  -3.989  21.939  0.00  0.00    +0.165 C 
BRANCH   8   9
ATOM      9  N   UNL     1       5.242  -3.674  21.978  0.00  0.00    -0.318 NA
ATOM     10  H1  UNL     1       4.733  -4.199  22.686  0.00  0.00    +0.119 HD
ATOM     11  H2  UNL     1       5.026  -2.682  21.949  0.00  0.00    +0.119 HD
ENDBRANCH   8   9
BRANCH   8  12
ATOM     12  C   UNL     1       6.950  -5.515  22.010  0.00  0.00    +0.322 C 
ATOM     13  OXT UNL     1       7.979  -6.039  22.405  0.00  0.00    -0.249 OA
BRANCH  12  14
ATOM     14  O   UNL     1       5.916  -6.264  21.549  0.00  0.00    -0.480 OA
ATOM     15  H   UNL     1       6.153  -7.209  21.565  0.00  0.00    +0.295 HD
ENDBRANCH  12  14
ENDBRANCH   8  12
ENDBRANCH   7   8
ENDBRANCH   1   7
BRANCH   4  16
ATOM     16  C   UNL     1       9.963   1.936  22.186  0.00  0.00    +0.148 C 
BRANCH  16  17
ATOM     17  C   UNL     1      10.545   2.464  23.485  0.00  0.00    +0.394 C 
ATOM     18  F   UNL     1      11.138   1.466  24.184  0.00  0.00    -0.170 F 
ATOM     19  F   UNL     1       9.563   2.969  24.271  0.00  0.00    -0.170 F 
ATOM     20  F   UNL     1      11.462   3.439  23.316  0.00  0.00    -0.170 F 
ENDBRANCH  16  17
ENDBRANCH   4  16
TORSDOF 7
ENDMDL
MODEL 5
REMARK VINA RESULT:      -5.6      1.361      1.870
REMARK  Name = 
REMARK  7 active torsions:
REMARK  status: ('A' for Active; 'I' for Inactive)
REMARK    1  A    between atoms: CA_2  and  N_3
REMARK    2  A    between atoms: CA_2  and  C_4
REMARK    3  A    between atoms: CA_2  and  C_16
REMARK    4  A    between atoms: C_4  and  C_5
REMARK    5  A    between atoms: C_8  and  C_9
REMARK    6  A    between atoms: C_9  and  C_10
REMARK    7  A    between atoms: C_16  and  O_17
REMARK                            x       y       z     vdW  Elec       q    Type
REMARK                         _______ _______ _______ _____ _____    ______ ____
ROOT
ATOM      1  C   UNL     1       8.541  -2.092  24.471  0.00  0.00    -0.045 A 
ATOM      2  C   UNL     1       9.412  -1.944  23.383  0.00  0.00    +0.004 A 
ATOM      3  C   UNL     1      10.234  -0.820  23.275  0.00  0.00    +0.004 A 
ATOM      4  C   UNL     1      10.200   0.177  24.257  0.00  0.00    -0.039 A 
ATOM      5  C   UNL     1       9.410  -0.018  25.392  0.00  0.00    +0.004 A 
ATOM      6  C   UNL     1       8.603  -1.151  25.507  0.00  0.00    +0.004 A 
ENDROOT
BRANCH   1   7
ATOM      7  C   UNL     1       7.558  -3.244  24.488  0.00  0.00    +0.065 C 
BRANCH   7   8
ATOM      8  CA  UNL     1       8.110  -4.621  24.057  0.00  0.00    +0.165 C 
BRANCH   8   9
ATOM      9  N   UNL     1       7.002  -5.441  23.506  0.00  0.00    -0.318 NA
ATOM     10  H1  UNL     1       6.086  -5.172  23.858  0.00  0.00    +0.119 HD
ATOM     11  H2  UNL     1       7.044  -5.584  22.501  0.00  0.00    +0.119 HD
ENDBRANCH   8   9
BRANCH   8  12
ATOM     12  C   UNL     1       8.837  -5.346  25.217  0.00  0.00    +0.322 C 
ATOM     13  OXT UNL     1       8.301  -5.786  26.222  0.00  0.00    -0.249 OA
BRANCH  12  14
ATOM     14  O   UNL     1      10.182  -5.432  25.048  0.00  0.00    -0.480 OA
ATOM     15  H   UNL     1      10.404  -5.385  24.101  0.00  0.00    +0.295 HD
ENDBRANCH  12  14
ENDBRANCH   8  12
ENDBRANCH   7   8
ENDBRANCH   1   7
BRANCH   4  16
ATOM     16  C   UNL     1      10.971   1.460  24.077  0.00  0.00    +0.148 C 
BRANCH  16  17
ATOM     17  C   UNL     1      10.377   2.456  23.096  0.00  0.00    +0.394 C 
ATOM     18  F   UNL     1      10.946   3.677  23.251  0.00  0.00    -0.170 F 
ATOM     19  F   UNL     1       9.049   2.606  23.323  0.00  0.00    -0.170 F 
ATOM     20  F   UNL     1      10.524   2.103  21.803  0.00  0.00    -0.170 F 
ENDBRANCH  16  17
ENDBRANCH   4  16
TORSDOF 7
ENDMDL
MODEL 6
REMARK VINA RESULT:      -5.6      5.506      7.073
REMARK  Name = 
REMARK  7 active torsions:
REMARK  status: ('A' for Active; 'I' for Inactive)
REMARK    1  A    between atoms: CA_2  and  N_3
REMARK    2  A    between atoms: CA_2  and  C_4
REMARK    3  A    between atoms: CA_2  and  C_16
REMARK    4  A    between atoms: C_4  and  C_5
REMARK    5  A    between atoms: C_8  and  C_9
REMARK    6  A    between atoms: C_9  and  C_10
REMARK    7  A    between atoms: C_16  and  O_17
REMARK                            x       y       z     vdW  Elec       q    Type
REMARK                         _______ _______ _______ _____ _____    ______ ____
ROOT
ATOM      1  C   UNL     1      10.129  -0.131  24.333  0.00  0.00    -0.045 A 
ATOM      2  C   UNL     1       9.395  -0.271  25.520  0.00  0.00    +0.004 A 
ATOM      3  C   UNL     1       8.738  -1.468  25.814  0.00  0.00    +0.004 A 
ATOM      4  C   UNL     1       8.805  -2.548  24.925  0.00  0.00    -0.039 A 
ATOM      5  C   UNL     1       9.619  -2.445  23.795  0.00  0.00    +0.004 A 
ATOM      6  C   UNL     1      10.290  -1.253  23.512  0.00  0.00    +0.004 A 
ENDROOT
BRANCH   1   7
ATOM      7  C   UNL     1      10.708   1.221  23.971  0.00  0.00    +0.065 C 
BRANCH   7   8
ATOM      8  CA  UNL     1       9.777   2.180  23.196  0.00  0.00    +0.165 C 
BRANCH   8   9
ATOM      9  N   UNL     1      10.103   2.113  21.749  0.00  0.00    -0.318 NA
ATOM     10  H1  UNL     1      10.295   1.170  21.421  0.00  0.00    +0.119 HD
ATOM     11  H2  UNL     1       9.482   2.652  21.152  0.00  0.00    +0.119 HD
ENDBRANCH   8   9
BRANCH   8  12
ATOM     12  C   UNL     1       9.854   3.630  23.735  0.00  0.00    +0.322 C 
ATOM     13  OXT UNL     1       9.087   4.123  24.546  0.00  0.00    -0.249 OA
BRANCH  12  14
ATOM     14  O   UNL     1      10.861   4.360  23.193  0.00  0.00    -0.480 OA
ATOM     15  H   UNL     1      11.203   3.920  22.393  0.00  0.00    +0.295 HD
ENDBRANCH  12  14
ENDBRANCH   8  12
ENDBRANCH   7   8
ENDBRANCH   1   7
BRANCH   4  16
ATOM     16  C   UNL     1       7.981  -3.789  25.160  0.00  0.00    +0.148 C 
BRANCH  16  17
ATOM     17  C   UNL     1       8.713  -4.956  25.801  0.00  0.00    +0.394 C 
ATOM     18  F   UNL     1       7.831  -5.844  26.322  0.00  0.00    -0.170 F 
ATOM     19  F   UNL     1       9.489  -4.522  26.823  0.00  0.00    -0.170 F 
ATOM     20  F   UNL     1       9.512  -5.632  24.951  0.00  0.00    -0.170 F 
ENDBRANCH  16  17
ENDBRANCH   4  16
TORSDOF 7
ENDMDL
MODEL 7
REMARK VINA RESULT:      -5.6      5.277      6.936
REMARK  Name = 
REMARK  7 active torsions:
REMARK  status: ('A' for Active; 'I' for Inactive)
REMARK    1  A    between atoms: CA_2  and  N_3
REMARK    2  A    between atoms: CA_2  and  C_4
REMARK    3  A    between atoms: CA_2  and  C_16
REMARK    4  A    between atoms: C_4  and  C_5
REMARK    5  A    between atoms: C_8  and  C_9
REMARK    6  A    between atoms: C_9  and  C_10
REMARK    7  A    between atoms: C_16  and  O_17
REMARK                            x       y       z     vdW  Elec       q    Type
REMARK                         _______ _______ _______ _____ _____    ______ ____
ROOT
ATOM      1  C   UNL     1       9.387  -1.447  22.729  0.00  0.00    -0.045 A 
ATOM      2  C   UNL     1       8.153  -1.903  22.243  0.00  0.00    +0.004 A 
ATOM      3  C   UNL     1       7.581  -3.077  22.740  0.00  0.00    +0.004 A 
ATOM      4  C   UNL     1       8.232  -3.814  23.736  0.00  0.00    -0.039 A 
ATOM      5  C   UNL     1       9.408  -3.306  24.294  0.00  0.00    +0.004 A 
ATOM      6  C   UNL     1       9.969  -2.124  23.808  0.00  0.00    +0.004 A 
ENDROOT
BRANCH   1   7
ATOM      7  C   UNL     1      10.052  -0.256  22.071  0.00  0.00    +0.065 C 
BRANCH   7   8
ATOM      8  CA  UNL     1       9.629   1.137  22.587  0.00  0.00    +0.165 C 
BRANCH   8   9
ATOM      9  N   UNL     1       9.554   2.080  21.443  0.00  0.00    -0.318 NA
ATOM     10  H1  UNL     1       9.273   3.020  21.712  0.00  0.00    +0.119 HD
ATOM     11  H2  UNL     1      10.348   2.039  20.811  0.00  0.00    +0.119 HD
ENDBRANCH   8   9
BRANCH   8  12
ATOM     12  C   UNL     1      10.574   1.658  23.699  0.00  0.00    +0.322 C 
ATOM     13  OXT UNL     1      10.926   1.024  24.681  0.00  0.00    -0.249 OA
BRANCH  12  14
ATOM     14  O   UNL     1      10.975   2.942  23.515  0.00  0.00    -0.480 OA
ATOM     15  H   UNL     1      11.323   3.059  22.612  0.00  0.00    +0.295 HD
ENDBRANCH  12  14
ENDBRANCH   8  12
ENDBRANCH   7   8
ENDBRANCH   1   7
BRANCH   4  16
ATOM     16  C   UNL     1       7.699  -5.154  24.174  0.00  0.00    +0.148 C 
BRANCH  16  17
ATOM     17  C   UNL     1       7.136  -5.213  25.584  0.00  0.00    +0.394 C 
ATOM     18  F   UNL     1       8.071  -5.670  26.452  0.00  0.00    -0.170 F 
ATOM     19  F   UNL     1       6.091  -6.074  25.638  0.00  0.00    -0.170 F 
ATOM     20  F   UNL     1       6.700  -4.024  26.047  0.00  0.00    -0.170 F 
ENDBRANCH  16  17
ENDBRANCH   4  16
TORSDOF 7
ENDMDL
MODEL 8
REMARK VINA RESULT:      -5.5      1.788      2.194
REMARK  Name = 
REMARK  7 active torsions:
REMARK  status: ('A' for Active; 'I' for Inactive)
REMARK    1  A    between atoms: CA_2  and  N_3
REMARK    2  A    between atoms: CA_2  and  C_4
REMARK    3  A    between atoms: CA_2  and  C_16
REMARK    4  A    between atoms: C_4  and  C_5
REMARK    5  A    between atoms: C_8  and  C_9
REMARK    6  A    between atoms: C_9  and  C_10
REMARK    7  A    between atoms: C_16  and  O_17
REMARK                            x       y       z     vdW  Elec       q    Type
REMARK                         _______ _______ _______ _____ _____    ______ ____
ROOT
ATOM      1  C   UNL     1       7.543  -2.784  24.689  0.00  0.00    -0.045 A 
ATOM      2  C   UNL     1       8.163  -1.717  25.355  0.00  0.00    +0.004 A 
ATOM      3  C   UNL     1       8.970  -0.814  24.659  0.00  0.00    +0.004 A 
ATOM      4  C   UNL     1       9.167  -0.959  23.281  0.00  0.00    -0.039 A 
ATOM      5  C   UNL     1       8.468  -1.958  22.599  0.00  0.00    +0.004 A 
ATOM      6  C   UNL     1       7.649  -2.849  23.294  0.00  0.00    +0.004 A 
ENDROOT
BRANCH   1   7
ATOM      7  C   UNL     1       6.797  -3.830  25.490  0.00  0.00    +0.065 C 
BRANCH   7   8
ATOM      8  CA  UNL     1       7.470  -5.215  25.604  0.00  0.00    +0.165 C 
BRANCH   8   9
ATOM      9  N   UNL     1       6.850  -5.970  26.722  0.00  0.00    -0.318 NA
ATOM     10  H1  UNL     1       7.015  -5.550  27.633  0.00  0.00    +0.119 HD
ATOM     11  H2  UNL     1       5.890  -6.257  26.554  0.00  0.00    +0.119 HD
ENDBRANCH   8   9
BRANCH   8  12
ATOM     12  C   UNL     1       9.007  -5.104  25.769  0.00  0.00    +0.322 C 
ATOM     13  OXT UNL     1       9.825  -5.246  24.875  0.00  0.00    -0.249 OA
BRANCH  12  14
ATOM     14  O   UNL     1       9.401  -4.861  27.045  0.00  0.00    -0.480 OA
ATOM     15  H   UNL     1       8.623  -4.754  27.622  0.00  0.00    +0.295 HD
ENDBRANCH  12  14
ENDBRANCH   8  12
ENDBRANCH   7   8
ENDBRANCH   1   7
BRANCH   4  16
ATOM     16  C   UNL     1      10.150  -0.081  22.548  0.00  0.00    +0.148 C 
BRANCH  16  17
ATOM     17  C   UNL     1       9.570   1.169  21.909  0.00  0.00    +0.394 C 
ATOM     18  F   UNL     1       8.630   1.724  22.712  0.00  0.00    -0.170 F 
ATOM     19  F   UNL     1       8.959   0.860  20.739  0.00  0.00    -0.170 F 
ATOM     20  F   UNL     1      10.487   2.121  21.642  0.00  0.00    -0.170 F 
ENDBRANCH  16  17
ENDBRANCH   4  16
TORSDOF 7
ENDMDL
MODEL 9
REMARK VINA RESULT:      -5.5      2.047      2.917
REMARK  Name = 
REMARK  7 active torsions:
REMARK  status: ('A' for Active; 'I' for Inactive)
REMARK    1  A    between atoms: CA_2  and  N_3
REMARK    2  A    between atoms: CA_2  and  C_4
REMARK    3  A    between atoms: CA_2  and  C_16
REMARK    4  A    between atoms: C_4  and  C_5
REMARK    5  A    between atoms: C_8  and  C_9
REMARK    6  A    between atoms: C_9  and  C_10
REMARK    7  A    between atoms: C_16  and  O_17
REMARK                            x       y       z     vdW  Elec       q    Type
REMARK                         _______ _______ _______ _____ _____    ______ ____
ROOT
ATOM      1  C   UNL     1      10.123  -0.602  23.149  0.00  0.00    -0.045 A 
ATOM      2  C   UNL     1      10.349   0.019  24.386  0.00  0.00    +0.004 A 
ATOM      3  C   UNL     1      10.476   1.407  24.474  0.00  0.00    +0.004 A 
ATOM      4  C   UNL     1      10.377   2.200  23.325  0.00  0.00    -0.039 A 
ATOM      5  C   UNL     1      10.049   1.593  22.110  0.00  0.00    +0.004 A 
ATOM      6  C   UNL     1       9.905   0.208  22.028  0.00  0.00    +0.004 A 
ENDROOT
BRANCH   1   7
ATOM      7  C   UNL     1      10.135  -2.114  23.062  0.00  0.00    +0.065 C 
BRANCH   7   8
ATOM      8  CA  UNL     1       9.196  -2.864  24.031  0.00  0.00    +0.165 C 
BRANCH   8   9
ATOM      9  N   UNL     1       9.873  -4.094  24.514  0.00  0.00    -0.318 NA
ATOM     10  H1  UNL     1       9.704  -4.288  25.498  0.00  0.00    +0.119 HD
ATOM     11  H2  UNL     1       9.774  -4.898  23.900  0.00  0.00    +0.119 HD
ENDBRANCH   8   9
BRANCH   8  12
ATOM     12  C   UNL     1       7.824  -3.180  23.385  0.00  0.00    +0.322 C 
ATOM     13  OXT UNL     1       7.567  -3.091  22.196  0.00  0.00    -0.249 OA
BRANCH  12  14
ATOM     14  O   UNL     1       6.872  -3.548  24.280  0.00  0.00    -0.480 OA
ATOM     15  H   UNL     1       7.105  -4.402  24.686  0.00  0.00    +0.295 HD
ENDBRANCH  12  14
ENDBRANCH   8  12
ENDBRANCH   7   8
ENDBRANCH   1   7
BRANCH   4  16
ATOM     16  C   UNL     1      10.659   3.680  23.385  0.00  0.00    +0.148 C 
BRANCH  16  17
ATOM     17  C   UNL     1       9.488   4.560  23.787  0.00  0.00    +0.394 C 
ATOM     18  F   UNL     1       8.392   4.265  23.047  0.00  0.00    -0.170 F 
ATOM     19  F   UNL     1       9.779   5.864  23.561  0.00  0.00    -0.170 F 
ATOM     20  F   UNL     1       9.142   4.447  25.086  0.00  0.00    -0.170 F 
ENDBRANCH  16  17
ENDBRANCH   4  16
TORSDOF 7
ENDMDL
