MODEL 1
REMARK VINA RESULT:      -4.8      0.000      0.000
REMARK  Name = 
REMARK  5 active torsions:
REMARK  status: ('A' for Active; 'I' for Inactive)
REMARK    1  A    between atoms: O_1  and  C_2
REMARK    2  A    between atoms: C_2  and  C_4
REMARK    3  A    between atoms: C_2  and  C_7
REMARK    4  A    between atoms: C_7  and  C_12
REMARK    5  A    between atoms: C_8  and  C_9
REMARK                            x       y       z     vdW  Elec       q    Type
REMARK                         _______ _______ _______ _____ _____    ______ ____
ROOT
ATOM      1  C   UNL     1       8.881  -3.868  24.471  0.00  0.00    +0.010 C 
ATOM      2  C   UNL     1       9.609  -2.767  24.160  0.00  0.00    +0.032 C 
ENDROOT
BRANCH   1   3
ATOM      3  C   UNL     1       7.858  -4.571  23.534  0.00  0.00    +0.071 C 
ATOM      4  O   UNL     1       8.157  -5.727  23.096  0.00  0.00    -0.545 OA
ATOM      5  O   UNL     1       6.725  -3.997  23.446  0.00  0.00    -0.545 OA
ENDBRANCH   1   3
BRANCH   2   6
ATOM      6  C   UNL     1       9.711  -1.796  22.972  0.00  0.00    +0.065 C 
ATOM      7  O   UNL     1       8.617  -1.179  22.732  0.00  0.00    -0.545 OA
ATOM      8  O   UNL     1      10.748  -1.811  22.254  0.00  0.00    -0.545 OA
ENDBRANCH   2   6
BRANCH   1   9
ATOM      9  C   UNL     1       9.135  -4.568  25.805  0.00  0.00    +0.192 C 
BRANCH   9  10
ATOM     10  C   UNL     1       7.889  -4.793  26.755  0.00  0.00    +0.075 C 
ATOM     11  O   UNL     1       7.184  -3.764  27.029  0.00  0.00    -0.547 OA
ATOM     12  O   UNL     1       7.574  -6.002  27.010  0.00  0.00    -0.547 OA
ENDBRANCH   9  10
BRANCH   9  13
ATOM     13  O   UNL     1       9.835  -5.822  25.570  0.00  0.00    -0.381 OA
ATOM     14  H   UNL     1       9.074  -6.388  25.300  0.00  0.00    +0.211 HD
ENDBRANCH   9  13
ENDBRANCH   1   9
TORSDOF 5
ENDMDL
MODEL 2
REMARK VINA RESULT:      -4.7      1.543      3.588
REMARK  Name = 
REMARK  5 active torsions:
REMARK  status: ('A' for Active; 'I' for Inactive)
REMARK    1  A    between atoms: O_1  and  C_2
REMARK    2  A    between atoms: C_2  and  C_4
REMARK    3  A    between atoms: C_2  and  C_7
REMARK    4  A    between atoms: C_7  and  C_12
REMARK    5  A    between atoms: C_8  and  C_9
REMARK                            x       y       z     vdW  Elec       q    Type
REMARK                         _______ _______ _______ _____ _____    ______ ____
ROOT
ATOM      1  C   UNL     1       8.169  -3.733  23.718  0.00  0.00    +0.010 C 
ATOM      2  C   UNL     1       8.618  -2.588  23.145  0.00  0.00    +0.032 C 
ENDROOT
BRANCH   1   3
ATOM      3  C   UNL     1       8.880  -4.511  24.861  0.00  0.00    +0.071 C 
ATOM      4  O   UNL     1       8.705  -4.102  26.052  0.00  0.00    -0.545 OA
ATOM      5  O   UNL     1       9.422  -5.609  24.508  0.00  0.00    -0.545 OA
ENDBRANCH   1   3
BRANCH   2   6
ATOM      6  C   UNL     1       9.865  -1.695  23.264  0.00  0.00    +0.065 C 
ATOM      7  O   UNL     1      10.677  -1.836  22.287  0.00  0.00    -0.545 OA
ATOM      8  O   UNL     1      10.067  -1.063  24.336  0.00  0.00    -0.545 OA
ENDBRANCH   2   6
BRANCH   1   9
ATOM      9  C   UNL     1       6.802  -4.277  23.306  0.00  0.00    +0.192 C 
BRANCH   9  10
ATOM     10  C   UNL     1       6.633  -4.755  21.807  0.00  0.00    +0.075 C 
ATOM     11  O   UNL     1       7.243  -5.827  21.475  0.00  0.00    -0.547 OA
ATOM     12  O   UNL     1       5.753  -4.151  21.109  0.00  0.00    -0.547 OA
ENDBRANCH   9  10
BRANCH   9  13
ATOM     13  O   UNL     1       6.400  -5.327  24.229  0.00  0.00    -0.381 OA
ATOM     14  H   UNL     1       6.335  -4.801  25.061  0.00  0.00    +0.211 HD
ENDBRANCH   9  13
ENDBRANCH   1   9
TORSDOF 5
ENDMDL
MODEL 3
REMARK VINA RESULT:      -4.6      1.090      2.873
REMARK  Name = 
REMARK  5 active torsions:
REMARK  status: ('A' for Active; 'I' for Inactive)
REMARK    1  A    between atoms: O_1  and  C_2
REMARK    2  A    between atoms: C_2  and  C_4
REMARK    3  A    between atoms: C_2  and  C_7
REMARK    4  A    between atoms: C_7  and  C_12
REMARK    5  A    between atoms: C_8  and  C_9
REMARK                            x       y       z     vdW  Elec       q    Type
REMARK                         _______ _______ _______ _____ _____    ______ ____
ROOT
ATOM      1  C   UNL     1       8.530  -4.286  24.246  0.00  0.00    +0.010 C 
ATOM      2  C   UNL     1       7.671  -5.059  23.537  0.00  0.00    +0.032 C 
ENDROOT
BRANCH   1   3
ATOM      3  C   UNL     1       9.058  -2.889  23.813  0.00  0.00    +0.071 C 
ATOM      4  O   UNL     1       8.236  -1.919  23.820  0.00  0.00    -0.545 OA
ATOM      5  O   UNL     1      10.322  -2.811  23.674  0.00  0.00    -0.545 OA
ENDBRANCH   1   3
BRANCH   2   6
ATOM      6  C   UNL     1       6.978  -4.989  22.166  0.00  0.00    +0.065 C 
ATOM      7  O   UNL     1       6.047  -4.115  22.118  0.00  0.00    -0.545 OA
ATOM      8  O   UNL     1       7.241  -5.867  21.299  0.00  0.00    -0.545 OA
ENDBRANCH   2   6
BRANCH   1   9
ATOM      9  C   UNL     1       8.954  -4.743  25.641  0.00  0.00    +0.192 C 
BRANCH   9  10
ATOM     10  C   UNL     1       7.829  -4.826  26.751  0.00  0.00    +0.075 C 
ATOM     11  O   UNL     1       7.193  -3.747  27.004  0.00  0.00    -0.547 OA
ATOM     12  O   UNL     1       7.511  -5.992  27.158  0.00  0.00    -0.547 OA
ENDBRANCH   9  10
BRANCH   9  13
ATOM     13  O   UNL     1       9.672  -6.005  25.542  0.00  0.00    -0.381 OA
ATOM     14  H   UNL     1       9.252  -6.370  24.727  0.00  0.00    +0.211 HD
ENDBRANCH   9  13
ENDBRANCH   1   9
TORSDOF 5
ENDMDL
MODEL 4
REMARK VINA RESULT:      -4.5      1.826      3.152
REMARK  Name = 
REMARK  5 active torsions:
REMARK  status: ('A' for Active; 'I' for Inactive)
REMARK    1  A    between atoms: O_1  and  C_2
REMARK    2  A    between atoms: C_2  and  C_4
REMARK    3  A    between atoms: C_2  and  C_7
REMARK    4  A    between atoms: C_7  and  C_12
REMARK    5  A    between atoms: C_8  and  C_9
REMARK                            x       y       z     vdW  Elec       q    Type
REMARK                         _______ _______ _______ _____ _____    ______ ____
ROOT
ATOM      1  C   UNL     1       7.835  -4.829  24.951  0.00  0.00    +0.010 C 
ATOM      2  C   UNL     1       7.025  -5.079  23.892  0.00  0.00    +0.032 C 
ENDROOT
BRANCH   1   3
ATOM      3  C   UNL     1       9.267  -4.227  24.872  0.00  0.00    +0.071 C 
ATOM      4  O   UNL     1      10.247  -5.007  25.084  0.00  0.00    -0.545 OA
ATOM      5  O   UNL     1       9.327  -3.040  24.412  0.00  0.00    -0.545 OA
ENDBRANCH   1   3
BRANCH   2   6
ATOM      6  C   UNL     1       7.129  -4.983  22.361  0.00  0.00    +0.065 C 
ATOM      7  O   UNL     1       7.038  -3.785  21.926  0.00  0.00    -0.545 OA
ATOM      8  O   UNL     1       7.115  -6.043  21.677  0.00  0.00    -0.545 OA
ENDBRANCH   2   6
BRANCH   1   9
ATOM      9  C   UNL     1       7.291  -5.044  26.363  0.00  0.00    +0.192 C 
BRANCH   9  10
ATOM     10  C   UNL     1       5.788  -5.521  26.496  0.00  0.00    +0.075 C 
ATOM     11  O   UNL     1       5.599  -6.769  26.696  0.00  0.00    -0.547 OA
ATOM     12  O   UNL     1       4.904  -4.608  26.592  0.00  0.00    -0.547 OA
ENDBRANCH   9  10
BRANCH   9  13
ATOM     13  O   UNL     1       8.180  -5.933  27.095  0.00  0.00    -0.381 OA
ATOM     14  H   UNL     1       9.015  -5.411  27.044  0.00  0.00    +0.211 HD
ENDBRANCH   9  13
ENDBRANCH   1   9
TORSDOF 5
ENDMDL
MODEL 5
REMARK VINA RESULT:      -4.4      2.293      5.070
REMARK  Name = 
REMARK  5 active torsions:
REMARK  status: ('A' for Active; 'I' for Inactive)
REMARK    1  A    between atoms: O_1  and  C_2
REMARK    2  A    between atoms: C_2  and  C_4
REMARK    3  A    between atoms: C_2  and  C_7
REMARK    4  A    between atoms: C_7  and  C_12
REMARK    5  A    between atoms: C_8  and  C_9
REMARK                            x       y       z     vdW  Elec       q    Type
REMARK                         _______ _______ _______ _____ _____    ______ ____
ROOT
ATOM      1  C   UNL     1       8.372  -2.323  22.673  0.00  0.00    +0.010 C 
ATOM      2  C   UNL     1       7.270  -2.938  22.177  0.00  0.00    +0.032 C 
ENDROOT
BRANCH   1   3
ATOM      3  C   UNL     1       9.019  -2.606  24.059  0.00  0.00    +0.071 C 
ATOM      4  O   UNL     1      10.003  -3.410  24.098  0.00  0.00    -0.545 OA
ATOM      5  O   UNL     1       8.618  -1.852  25.004  0.00  0.00    -0.545 OA
ENDBRANCH   1   3
BRANCH   2   6
ATOM      6  C   UNL     1       6.250  -3.975  22.677  0.00  0.00    +0.065 C 
ATOM      7  O   UNL     1       5.068  -3.769  22.237  0.00  0.00    -0.545 OA
ATOM      8  O   UNL     1       6.596  -4.795  23.571  0.00  0.00    -0.545 OA
ENDBRANCH   2   6
BRANCH   1   9
ATOM      9  C   UNL     1       9.133  -1.341  21.784  0.00  0.00    +0.192 C 
BRANCH   9  10
ATOM     10  C   UNL     1       8.920   0.203  22.062  0.00  0.00    +0.075 C 
ATOM     11  O   UNL     1       9.846   0.989  21.666  0.00  0.00    -0.547 OA
ATOM     12  O   UNL     1       7.767   0.557  22.475  0.00  0.00    -0.547 OA
ENDBRANCH   9  10
BRANCH   9  13
ATOM     13  O   UNL     1      10.549  -1.674  21.792  0.00  0.00    -0.381 OA
ATOM     14  H   UNL     1      10.490  -2.642  21.973  0.00  0.00    +0.211 HD
ENDBRANCH   9  13
ENDBRANCH   1   9
TORSDOF 5
ENDMDL
MODEL 6
REMARK VINA RESULT:      -4.4      3.074      4.988
REMARK  Name = 
REMARK  5 active torsions:
REMARK  status: ('A' for Active; 'I' for Inactive)
REMARK    1  A    between atoms: O_1  and  C_2
REMARK    2  A    between atoms: C_2  and  C_4
REMARK    3  A    between atoms: C_2  and  C_7
REMARK    4  A    between atoms: C_7  and  C_12
REMARK    5  A    between atoms: C_8  and  C_9
REMARK                            x       y       z     vdW  Elec       q    Type
REMARK                         _______ _______ _______ _____ _____    ______ ____
ROOT
ATOM      1  C   UNL     1       9.814   0.372  22.942  0.00  0.00    +0.010 C 
ATOM      2  C   UNL     1      10.526   1.315  23.607  0.00  0.00    +0.032 C 
ENDROOT
BRANCH   1   3
ATOM      3  C   UNL     1       8.547   0.637  22.080  0.00  0.00    +0.071 C 
ATOM      4  O   UNL     1       8.717   0.918  20.852  0.00  0.00    -0.545 OA
ATOM      5  O   UNL     1       7.441   0.358  22.648  0.00  0.00    -0.545 OA
ENDBRANCH   1   3
BRANCH   2   6
ATOM      6  C   UNL     1      10.414   2.829  23.858  0.00  0.00    +0.065 C 
ATOM      7  O   UNL     1       9.305   3.166  24.397  0.00  0.00    -0.545 OA
ATOM      8  O   UNL     1      11.292   3.597  23.380  0.00  0.00    -0.545 OA
ENDBRANCH   2   6
BRANCH   1   9
ATOM      9  C   UNL     1      10.327  -1.067  22.928  0.00  0.00    +0.192 C 
BRANCH   9  10
ATOM     10  C   UNL     1       9.787  -2.040  24.053  0.00  0.00    +0.075 C 
ATOM     11  O   UNL     1       8.892  -1.571  24.835  0.00  0.00    -0.547 OA
ATOM     12  O   UNL     1      10.136  -3.263  23.968  0.00  0.00    -0.547 OA
ENDBRANCH   9  10
BRANCH   9  13
ATOM     13  O   UNL     1      10.121  -1.643  21.607  0.00  0.00    -0.381 OA
ATOM     14  H   UNL     1       9.134  -1.655  21.585  0.00  0.00    +0.211 HD
ENDBRANCH   9  13
ENDBRANCH   1   9
TORSDOF 5
ENDMDL
MODEL 7
REMARK VINA RESULT:      -4.4      1.972      4.784
REMARK  Name = 
REMARK  5 active torsions:
REMARK  status: ('A' for Active; 'I' for Inactive)
REMARK    1  A    between atoms: O_1  and  C_2
REMARK    2  A    between atoms: C_2  and  C_4
REMARK    3  A    between atoms: C_2  and  C_7
REMARK    4  A    between atoms: C_7  and  C_12
REMARK    5  A    between atoms: C_8  and  C_9
REMARK                            x       y       z     vdW  Elec       q    Type
REMARK                         _______ _______ _______ _____ _____    ______ ____
ROOT
ATOM      1  C   UNL     1       6.899  -5.143  24.425  0.00  0.00    +0.010 C 
ATOM      2  C   UNL     1       6.291  -5.315  25.624  0.00  0.00    +0.032 C 
ENDROOT
BRANCH   1   3
ATOM      3  C   UNL     1       8.356  -4.644  24.212  0.00  0.00    +0.071 C 
ATOM      4  O   UNL     1       8.539  -3.392  24.092  0.00  0.00    -0.545 OA
ATOM      5  O   UNL     1       9.257  -5.531  24.370  0.00  0.00    -0.545 OA
ENDBRANCH   1   3
BRANCH   2   6
ATOM      6  C   UNL     1       6.647  -5.072  27.101  0.00  0.00    +0.065 C 
ATOM      7  O   UNL     1       6.126  -4.004  27.573  0.00  0.00    -0.545 OA
ATOM      8  O   UNL     1       7.517  -5.800  27.651  0.00  0.00    -0.545 OA
ENDBRANCH   2   6
BRANCH   1   9
ATOM      9  C   UNL     1       6.160  -5.566  23.156  0.00  0.00    +0.192 C 
BRANCH   9  10
ATOM     10  C   UNL     1       5.099  -4.552  22.563  0.00  0.00    +0.075 C 
ATOM     11  O   UNL     1       5.531  -3.704  21.710  0.00  0.00    -0.547 OA
ATOM     12  O   UNL     1       3.874  -4.784  22.829  0.00  0.00    -0.547 OA
ENDBRANCH   9  10
BRANCH   9  13
ATOM     13  O   UNL     1       7.124  -5.954  22.138  0.00  0.00    -0.381 OA
ATOM     14  H   UNL     1       6.619  -6.679  21.699  0.00  0.00    +0.211 HD
ENDBRANCH   9  13
ENDBRANCH   1   9
TORSDOF 5
ENDMDL
MODEL 8
REMARK VINA RESULT:      -4.4      1.597      4.532
REMARK  Name = 
REMARK  5 active torsions:
REMARK  status: ('A' for Active; 'I' for Inactive)
REMARK    1  A    between atoms: O_1  and  C_2
REMARK    2  A    between atoms: C_2  and  C_4
REMARK    3  A    between atoms: C_2  and  C_7
REMARK    4  A    between atoms: C_7  and  C_12
REMARK    5  A    between atoms: C_8  and  C_9
REMARK                            x       y       z     vdW  Elec       q    Type
REMARK                         _______ _______ _______ _____ _____    ______ ____
ROOT
ATOM      1  C   UNL     1       8.018  -3.663  23.401  0.00  0.00    +0.010 C 
ATOM      2  C   UNL     1       8.072  -4.822  24.103  0.00  0.00    +0.032 C 
ENDROOT
BRANCH   1   3
ATOM      3  C   UNL     1       8.944  -2.432  23.616  0.00  0.00    +0.071 C 
ATOM      4  O   UNL     1       8.434  -1.397  24.150  0.00  0.00    -0.545 OA
ATOM      5  O   UNL     1      10.182  -2.647  23.408  0.00  0.00    -0.545 OA
ENDBRANCH   1   3
BRANCH   2   6
ATOM      6  C   UNL     1       8.874  -5.368  25.296  0.00  0.00    +0.065 C 
ATOM      7  O   UNL     1       8.136  -5.723  26.278  0.00  0.00    -0.545 OA
ATOM      8  O   UNL     1      10.131  -5.265  25.290  0.00  0.00    -0.545 OA
ENDBRANCH   2   6
BRANCH   1   9
ATOM      9  C   UNL     1       7.052  -3.559  22.222  0.00  0.00    +0.192 C 
BRANCH   9  10
ATOM     10  C   UNL     1       6.208  -4.848  21.860  0.00  0.00    +0.075 C 
ATOM     11  O   UNL     1       4.979  -4.845  22.210  0.00  0.00    -0.547 OA
ATOM     12  O   UNL     1       6.760  -5.694  21.081  0.00  0.00    -0.547 OA
ENDBRANCH   9  10
BRANCH   9  13
ATOM     13  O   UNL     1       6.180  -2.409  22.408  0.00  0.00    -0.381 OA
ATOM     14  H   UNL     1       6.117  -2.408  23.393  0.00  0.00    +0.211 HD
ENDBRANCH   9  13
ENDBRANCH   1   9
TORSDOF 5
ENDMDL
MODEL 9
REMARK VINA RESULT:      -4.3      2.402      5.562
REMARK  Name = 
REMARK  5 active torsions:
REMARK  status: ('A' for Active; 'I' for Inactive)
REMARK    1  A    between atoms: O_1  and  C_2
REMARK    2  A    between atoms: C_2  and  C_4
REMARK    3  A    between atoms: C_2  and  C_7
REMARK    4  A    between atoms: C_7  and  C_12
REMARK    5  A    between atoms: C_8  and  C_9
REMARK                            x       y       z     vdW  Elec       q    Type
REMARK                         _______ _______ _______ _____ _____    ______ ____
ROOT
ATOM      1  C   UNL     1       9.714  -1.018  24.212  0.00  0.00    +0.010 C 
ATOM      2  C   UNL     1       9.810  -2.337  23.916  0.00  0.00    +0.032 C 
ENDROOT
BRANCH   1   3
ATOM      3  C   UNL     1       8.875  -0.410  25.373  0.00  0.00    +0.071 C 
ATOM      4  O   UNL     1       9.073  -0.865  26.544  0.00  0.00    -0.545 OA
ATOM      5  O   UNL     1       8.201   0.626  25.065  0.00  0.00    -0.545 OA
ENDBRANCH   1   3
BRANCH   2   6
ATOM      6  C   UNL     1       9.190  -3.646  24.434  0.00  0.00    +0.065 C 
ATOM      7  O   UNL     1      10.062  -4.541  24.707  0.00  0.00    -0.545 OA
ATOM      8  O   UNL     1       7.939  -3.795  24.385  0.00  0.00    -0.545 OA
ENDBRANCH   2   6
BRANCH   1   9
ATOM      9  C   UNL     1      10.569  -0.021  23.431  0.00  0.00    +0.192 C 
BRANCH   9  10
ATOM     10  C   UNL     1       9.940   0.601  22.118  0.00  0.00    +0.075 C 
ATOM     11  O   UNL     1      10.141   1.847  21.921  0.00  0.00    -0.547 OA
ATOM     12  O   UNL     1       9.457  -0.220  21.270  0.00  0.00    -0.547 OA
ENDBRANCH   9  10
BRANCH   9  13
ATOM     13  O   UNL     1      11.031   1.029  24.326  0.00  0.00    -0.381 OA
ATOM     14  H   UNL     1      10.323   0.985  25.012  0.00  0.00    +0.211 HD
ENDBRANCH   9  13
ENDBRANCH   1   9
TORSDOF 5
ENDMDL
