MODEL 1
REMARK VINA RESULT:      -7.6      0.000      0.000
REMARK  Name = 
REMARK  9 active torsions:
REMARK  status: ('A' for Active; 'I' for Inactive)
REMARK    1  A    between atoms: O_1  and  C_2
REMARK    2  A    between atoms: C_2  and  C_4
REMARK    3  A    between atoms: C_4  and  C_6
REMARK    4  A    between atoms: C_4  and  N_13
REMARK    5  A    between atoms: C_6  and  C_7
REMARK    6  A    between atoms: N_13  and  C_14
REMARK    7  A    between atoms: C_14  and  C_15
REMARK    8  A    between atoms: C_19  and  C_21
REMARK    9  A    between atoms: C_25  and  C_27
REMARK                            x       y       z     vdW  Elec       q    Type
REMARK                         _______ _______ _______ _____ _____    ______ ____
ROOT
ATOM      1  N   UNL     1       7.824  -1.523  24.203  0.00  0.00    -0.279 N 
ATOM      2  C   UNL     1       8.586  -0.369  24.523  0.00  0.00    +0.249 C 
ATOM      3  O   UNL     1       9.547  -0.437  25.278  0.00  0.00    -0.270 OA
ENDROOT
BRANCH   2   4
ATOM      4  C   UNL     1       8.315   1.010  23.967  0.00  0.00    +0.055 A 
ATOM      5  C   UNL     1       8.569   1.306  22.611  0.00  0.00    +0.054 A 
ATOM      6 CL   UNL     1       9.283   0.208  21.469  0.00  0.00    -0.083 Cl
ATOM      7  C   UNL     1       8.262   2.567  22.079  0.00  0.00    +0.040 A 
ATOM      8  C   UNL     1       7.730   3.554  22.895  0.00  0.00    +0.042 A 
ATOM      9 CL   UNL     1       7.413   5.115  22.252  0.00  0.00    -0.083 Cl
ATOM     10  C   UNL     1       7.444   3.274  24.227  0.00  0.00    +0.021 A 
ATOM     11  C   UNL     1       7.692   1.998  24.747  0.00  0.00    +0.016 A 
ENDBRANCH   2   4
BRANCH   1  12
ATOM     12  C   UNL     1       8.296  -2.899  24.702  0.00  0.00    +0.189 C 
BRANCH  12  13
ATOM     13  C   UNL     1       9.725  -3.453  24.356  0.00  0.00    +0.326 C 
ATOM     14  O   UNL     1      10.162  -4.507  24.806  0.00  0.00    -0.249 OA
BRANCH  13  15
ATOM     15  O   UNL     1      10.503  -2.722  23.530  0.00  0.00    -0.479 OA
ATOM     16  H   UNL     1      11.431  -2.635  23.787  0.00  0.00    +0.295 HD
ENDBRANCH  13  15
ENDBRANCH  12  13
BRANCH  12  17
ATOM     17  C   UNL     1       8.155  -3.188  26.233  0.00  0.00    +0.069 C 
BRANCH  17  18
ATOM     18  C   UNL     1       6.968  -4.031  26.672  0.00  0.00    -0.045 A 
ATOM     19  C   UNL     1       6.910  -5.372  26.263  0.00  0.00    +0.004 A 
ATOM     20  C   UNL     1       5.823  -6.174  26.614  0.00  0.00    +0.000 A 
ATOM     21  C   UNL     1       4.782  -5.649  27.379  0.00  0.00    +0.000 A 
ATOM     22  C   UNL     1       4.830  -4.332  27.800  0.00  0.00    +0.000 A 
ATOM     23  C   UNL     1       5.916  -3.529  27.453  0.00  0.00    +0.004 A 
ENDBRANCH  17  18
ENDBRANCH  12  17
ENDBRANCH   1  12
BRANCH   1  24
ATOM     24  C   UNL     1       6.447  -1.460  23.685  0.00  0.00    +0.144 C 
BRANCH  24  25
ATOM     25  C   UNL     1       5.648  -2.700  23.396  0.00  0.00    -0.030 A 
ATOM     26  C   UNL     1       6.207  -3.636  22.500  0.00  0.00    +0.017 A 
ATOM     27  C   UNL     1       5.708  -4.943  22.395  0.00  0.00    +0.055 A 
ATOM     28  C   UNL     1       4.601  -5.295  23.175  0.00  0.00    +0.012 A 
ATOM     29  C   UNL     1       3.999  -4.356  24.018  0.00  0.00    +0.001 A 
ATOM     30  C   UNL     1       4.521  -3.065  24.134  0.00  0.00    +0.005 A 
BRANCH  27  31
ATOM     31  C   UNL     1       6.399  -5.940  21.496  0.00  0.00    +0.417 C 
ATOM     32  F   UNL     1       6.410  -7.194  22.029  0.00  0.00    -0.166 F 
ATOM     33  F   UNL     1       7.705  -5.622  21.276  0.00  0.00    -0.166 F 
ATOM     34  F   UNL     1       5.826  -6.062  20.266  0.00  0.00    -0.166 F 
ENDBRANCH  27  31
ENDBRANCH  24  25
ENDBRANCH   1  24
TORSDOF 9
ENDMDL
MODEL 2
REMARK VINA RESULT:      -7.4      3.413      6.587
REMARK  Name = 
REMARK  9 active torsions:
REMARK  status: ('A' for Active; 'I' for Inactive)
REMARK    1  A    between atoms: O_1  and  C_2
REMARK    2  A    between atoms: C_2  and  C_4
REMARK    3  A    between atoms: C_4  and  C_6
REMARK    4  A    between atoms: C_4  and  N_13
REMARK    5  A    between atoms: C_6  and  C_7
REMARK    6  A    between atoms: N_13  and  C_14
REMARK    7  A    between atoms: C_14  and  C_15
REMARK    8  A    between atoms: C_19  and  C_21
REMARK    9  A    between atoms: C_25  and  C_27
REMARK                            x       y       z     vdW  Elec       q    Type
REMARK                         _______ _______ _______ _____ _____    ______ ____
ROOT
ATOM      1  N   UNL     1       6.971   0.578  25.773  0.00  0.00    -0.279 N 
ATOM      2  C   UNL     1       5.887   0.037  25.034  0.00  0.00    +0.249 C 
ATOM      3  O   UNL     1       4.860   0.680  24.858  0.00  0.00    -0.270 OA
ENDROOT
BRANCH   2   4
ATOM      4  C   UNL     1       5.894  -1.329  24.388  0.00  0.00    +0.055 A 
ATOM      5  C   UNL     1       5.273  -2.430  25.015  0.00  0.00    +0.054 A 
ATOM      6 CL   UNL     1       4.531  -2.392  26.586  0.00  0.00    -0.083 Cl
ATOM      7  C   UNL     1       5.226  -3.684  24.390  0.00  0.00    +0.040 A 
ATOM      8  C   UNL     1       5.823  -3.865  23.151  0.00  0.00    +0.042 A 
ATOM      9 CL   UNL     1       5.816  -5.418  22.417  0.00  0.00    -0.083 Cl
ATOM     10  C   UNL     1       6.414  -2.787  22.501  0.00  0.00    +0.021 A 
ATOM     11  C   UNL     1       6.410  -1.519  23.095  0.00  0.00    +0.016 A 
ENDBRANCH   2   4
BRANCH   1  12
ATOM     12  C   UNL     1       6.908   2.041  26.242  0.00  0.00    +0.189 C 
BRANCH  12  13
ATOM     13  C   UNL     1       6.994   2.420  27.764  0.00  0.00    +0.326 C 
ATOM     14  O   UNL     1       6.562   1.701  28.659  0.00  0.00    -0.249 OA
BRANCH  13  15
ATOM     15  O   UNL     1       7.565   3.599  28.090  0.00  0.00    -0.479 OA
ATOM     16  H   UNL     1       8.265   3.562  28.754  0.00  0.00    +0.295 HD
ENDBRANCH  13  15
ENDBRANCH  12  13
BRANCH  12  17
ATOM     17  C   UNL     1       7.891   3.049  25.560  0.00  0.00    +0.069 C 
BRANCH  17  18
ATOM     18  C   UNL     1       8.536   2.611  24.254  0.00  0.00    -0.045 A 
ATOM     19  C   UNL     1       9.935   2.640  24.154  0.00  0.00    +0.004 A 
ATOM     20  C   UNL     1      10.569   2.279  22.965  0.00  0.00    +0.000 A 
ATOM     21  C   UNL     1       9.815   1.883  21.861  0.00  0.00    +0.000 A 
ATOM     22  C   UNL     1       8.435   1.837  21.947  0.00  0.00    +0.000 A 
ATOM     23  C   UNL     1       7.799   2.195  23.135  0.00  0.00    +0.004 A 
ENDBRANCH  17  18
ENDBRANCH  12  17
ENDBRANCH   1  12
BRANCH   1  24
ATOM     24  C   UNL     1       8.018  -0.254  26.388  0.00  0.00    +0.144 C 
BRANCH  24  25
ATOM     25  C   UNL     1       8.877  -1.183  25.575  0.00  0.00    -0.030 A 
ATOM     26  C   UNL     1       8.692  -2.569  25.767  0.00  0.00    +0.017 A 
ATOM     27  C   UNL     1       9.205  -3.511  24.863  0.00  0.00    +0.055 A 
ATOM     28  C   UNL     1       9.950  -3.049  23.773  0.00  0.00    +0.012 A 
ATOM     29  C   UNL     1      10.193  -1.681  23.610  0.00  0.00    +0.001 A 
ATOM     30  C   UNL     1       9.656  -0.751  24.502  0.00  0.00    +0.005 A 
BRANCH  27  31
ATOM     31  C   UNL     1       8.900  -4.978  25.055  0.00  0.00    +0.417 C 
ATOM     32  F   UNL     1       7.833  -5.177  25.878  0.00  0.00    -0.166 F 
ATOM     33  F   UNL     1       9.936  -5.654  25.625  0.00  0.00    -0.166 F 
ATOM     34  F   UNL     1       8.607  -5.636  23.899  0.00  0.00    -0.166 F 
ENDBRANCH  27  31
ENDBRANCH  24  25
ENDBRANCH   1  24
TORSDOF 9
ENDMDL
MODEL 3
REMARK VINA RESULT:      -7.4      1.557      2.086
REMARK  Name = 
REMARK  9 active torsions:
REMARK  status: ('A' for Active; 'I' for Inactive)
REMARK    1  A    between atoms: O_1  and  C_2
REMARK    2  A    between atoms: C_2  and  C_4
REMARK    3  A    between atoms: C_4  and  C_6
REMARK    4  A    between atoms: C_4  and  N_13
REMARK    5  A    between atoms: C_6  and  C_7
REMARK    6  A    between atoms: N_13  and  C_14
REMARK    7  A    between atoms: C_14  and  C_15
REMARK    8  A    between atoms: C_19  and  C_21
REMARK    9  A    between atoms: C_25  and  C_27
REMARK                            x       y       z     vdW  Elec       q    Type
REMARK                         _______ _______ _______ _____ _____    ______ ____
ROOT
ATOM      1  N   UNL     1       7.777  -2.108  25.171  0.00  0.00    -0.279 N 
ATOM      2  C   UNL     1       8.508  -1.105  25.858  0.00  0.00    +0.249 C 
ATOM      3  O   UNL     1       9.077  -1.350  26.914  0.00  0.00    -0.270 OA
ENDROOT
BRANCH   2   4
ATOM      4  C   UNL     1       8.675   0.314  25.366  0.00  0.00    +0.055 A 
ATOM      5  C   UNL     1       7.750   1.318  25.723  0.00  0.00    +0.054 A 
ATOM      6 CL   UNL     1       6.307   1.056  26.655  0.00  0.00    -0.083 Cl
ATOM      7  C   UNL     1       7.937   2.648  25.318  0.00  0.00    +0.040 A 
ATOM      8  C   UNL     1       9.025   2.986  24.528  0.00  0.00    +0.042 A 
ATOM      9 CL   UNL     1       9.215   4.604  23.983  0.00  0.00    -0.083 Cl
ATOM     10  C   UNL     1       9.965   2.019  24.189  0.00  0.00    +0.021 A 
ATOM     11  C   UNL     1       9.815   0.703  24.643  0.00  0.00    +0.016 A 
ENDBRANCH   2   4
BRANCH   1  12
ATOM     12  C   UNL     1       7.816  -3.556  25.687  0.00  0.00    +0.189 C 
BRANCH  12  13
ATOM     13  C   UNL     1       9.167  -4.350  25.808  0.00  0.00    +0.326 C 
ATOM     14  O   UNL     1       9.920  -4.538  24.858  0.00  0.00    -0.249 OA
BRANCH  13  15
ATOM     15  O   UNL     1       9.499  -4.851  27.016  0.00  0.00    -0.479 OA
ATOM     16  H   UNL     1       8.945  -5.571  27.344  0.00  0.00    +0.295 HD
ENDBRANCH  13  15
ENDBRANCH  12  13
BRANCH  12  17
ATOM     17  C   UNL     1       7.103  -3.845  27.049  0.00  0.00    +0.069 C 
BRANCH  17  18
ATOM     18  C   UNL     1       5.864  -4.727  27.008  0.00  0.00    -0.045 A 
ATOM     19  C   UNL     1       5.943  -5.964  26.351  0.00  0.00    +0.004 A 
ATOM     20  C   UNL     1       4.823  -6.792  26.260  0.00  0.00    +0.000 A 
ATOM     21  C   UNL     1       3.612  -6.396  26.824  0.00  0.00    +0.000 A 
ATOM     22  C   UNL     1       3.520  -5.184  27.486  0.00  0.00    +0.000 A 
ATOM     23  C   UNL     1       4.638  -4.357  27.581  0.00  0.00    +0.004 A 
ENDBRANCH  17  18
ENDBRANCH  12  17
ENDBRANCH   1  12
BRANCH   1  24
ATOM     24  C   UNL     1       6.737  -1.805  24.174  0.00  0.00    +0.144 C 
BRANCH  24  25
ATOM     25  C   UNL     1       5.831  -2.869  23.619  0.00  0.00    -0.030 A 
ATOM     26  C   UNL     1       6.401  -3.802  22.726  0.00  0.00    +0.017 A 
ATOM     27  C   UNL     1       5.744  -4.997  22.394  0.00  0.00    +0.055 A 
ATOM     28  C   UNL     1       4.477  -5.231  22.937  0.00  0.00    +0.012 A 
ATOM     29  C   UNL     1       3.877  -4.284  23.772  0.00  0.00    +0.001 A 
ATOM     30  C   UNL     1       4.550  -3.110  24.117  0.00  0.00    +0.005 A 
BRANCH  27  31
ATOM     31  C   UNL     1       6.433  -6.010  21.511  0.00  0.00    +0.417 C 
ATOM     32  F   UNL     1       5.782  -6.190  20.328  0.00  0.00    -0.166 F 
ATOM     33  F   UNL     1       6.497  -7.242  22.088  0.00  0.00    -0.166 F 
ATOM     34  F   UNL     1       7.713  -5.676  21.186  0.00  0.00    -0.166 F 
ENDBRANCH  27  31
ENDBRANCH  24  25
ENDBRANCH   1  24
TORSDOF 9
ENDMDL
MODEL 4
REMARK VINA RESULT:      -7.3      1.976      2.590
REMARK  Name = 
REMARK  9 active torsions:
REMARK  status: ('A' for Active; 'I' for Inactive)
REMARK    1  A    between atoms: O_1  and  C_2
REMARK    2  A    between atoms: C_2  and  C_4
REMARK    3  A    between atoms: C_4  and  C_6
REMARK    4  A    between atoms: C_4  and  N_13
REMARK    5  A    between atoms: C_6  and  C_7
REMARK    6  A    between atoms: N_13  and  C_14
REMARK    7  A    between atoms: C_14  and  C_15
REMARK    8  A    between atoms: C_19  and  C_21
REMARK    9  A    between atoms: C_25  and  C_27
REMARK                            x       y       z     vdW  Elec       q    Type
REMARK                         _______ _______ _______ _____ _____    ______ ____
ROOT
ATOM      1  N   UNL     1       7.504  -3.051  24.452  0.00  0.00    -0.279 N 
ATOM      2  C   UNL     1       8.024  -1.804  24.886  0.00  0.00    +0.249 C 
ATOM      3  O   UNL     1       8.707  -1.722  25.898  0.00  0.00    -0.270 OA
ENDROOT
BRANCH   2   4
ATOM      4  C   UNL     1       7.818  -0.496  24.157  0.00  0.00    +0.055 A 
ATOM      5  C   UNL     1       8.573  -0.181  23.008  0.00  0.00    +0.054 A 
ATOM      6 CL   UNL     1       9.850  -1.163  22.356  0.00  0.00    -0.083 Cl
ATOM      7  C   UNL     1       8.340   1.004  22.295  0.00  0.00    +0.040 A 
ATOM      8  C   UNL     1       7.379   1.901  22.735  0.00  0.00    +0.042 A 
ATOM      9 CL   UNL     1       7.141   3.381  21.893  0.00  0.00    -0.083 Cl
ATOM     10  C   UNL     1       6.603   1.598  23.848  0.00  0.00    +0.021 A 
ATOM     11  C   UNL     1       6.790   0.387  24.527  0.00  0.00    +0.016 A 
ENDBRANCH   2   4
BRANCH   1  12
ATOM     12  C   UNL     1       7.918  -4.337  25.187  0.00  0.00    +0.189 C 
BRANCH  12  13
ATOM     13  C   UNL     1       9.390  -4.884  25.119  0.00  0.00    +0.326 C 
ATOM     14  O   UNL     1      10.297  -4.295  24.542  0.00  0.00    -0.249 OA
BRANCH  13  15
ATOM     15  O   UNL     1       9.653  -6.063  25.721  0.00  0.00    -0.479 OA
ATOM     16  H   UNL     1      10.563  -6.194  26.018  0.00  0.00    +0.295 HD
ENDBRANCH  13  15
ENDBRANCH  12  13
BRANCH  12  17
ATOM     17  C   UNL     1       7.565  -4.432  26.708  0.00  0.00    +0.069 C 
BRANCH  17  18
ATOM     18  C   UNL     1       6.267  -5.135  27.075  0.00  0.00    -0.045 A 
ATOM     19  C   UNL     1       5.788  -6.145  26.226  0.00  0.00    +0.004 A 
ATOM     20  C   UNL     1       4.585  -6.793  26.505  0.00  0.00    +0.000 A 
ATOM     21  C   UNL     1       3.845  -6.445  27.633  0.00  0.00    +0.000 A 
ATOM     22  C   UNL     1       4.309  -5.459  28.487  0.00  0.00    +0.000 A 
ATOM     23  C   UNL     1       5.512  -4.811  28.213  0.00  0.00    +0.004 A 
ENDBRANCH  17  18
ENDBRANCH  12  17
ENDBRANCH   1  12
BRANCH   1  24
ATOM     24  C   UNL     1       6.354  -3.169  23.540  0.00  0.00    +0.144 C 
BRANCH  24  25
ATOM     25  C   UNL     1       4.943  -3.281  24.048  0.00  0.00    -0.030 A 
ATOM     26  C   UNL     1       4.118  -4.261  23.457  0.00  0.00    +0.017 A 
ATOM     27  C   UNL     1       2.908  -4.657  24.047  0.00  0.00    +0.055 A 
ATOM     28  C   UNL     1       2.507  -4.024  25.227  0.00  0.00    +0.012 A 
ATOM     29  C   UNL     1       3.286  -3.006  25.787  0.00  0.00    +0.001 A 
ATOM     30  C   UNL     1       4.501  -2.638  25.205  0.00  0.00    +0.005 A 
BRANCH  27  31
ATOM     31  C   UNL     1       2.106  -5.778  23.430  0.00  0.00    +0.417 C 
ATOM     32  F   UNL     1       2.856  -6.547  22.593  0.00  0.00    -0.166 F 
ATOM     33  F   UNL     1       1.066  -5.320  22.678  0.00  0.00    -0.166 F 
ATOM     34  F   UNL     1       1.567  -6.635  24.341  0.00  0.00    -0.166 F 
ENDBRANCH  27  31
ENDBRANCH  24  25
ENDBRANCH   1  24
TORSDOF 9
ENDMDL
MODEL 5
REMARK VINA RESULT:      -7.3      1.894      2.704
REMARK  Name = 
REMARK  9 active torsions:
REMARK  status: ('A' for Active; 'I' for Inactive)
REMARK    1  A    between atoms: O_1  and  C_2
REMARK    2  A    between atoms: C_2  and  C_4
REMARK    3  A    between atoms: C_4  and  C_6
REMARK    4  A    between atoms: C_4  and  N_13
REMARK    5  A    between atoms: C_6  and  C_7
REMARK    6  A    between atoms: N_13  and  C_14
REMARK    7  A    between atoms: C_14  and  C_15
REMARK    8  A    between atoms: C_19  and  C_21
REMARK    9  A    between atoms: C_25  and  C_27
REMARK                            x       y       z     vdW  Elec       q    Type
REMARK                         _______ _______ _______ _____ _____    ______ ____
ROOT
ATOM      1  N   UNL     1       7.584   0.028  23.835  0.00  0.00    -0.279 N 
ATOM      2  C   UNL     1       7.138   1.183  24.528  0.00  0.00    +0.249 C 
ATOM      3  O   UNL     1       7.660   1.531  25.578  0.00  0.00    -0.270 OA
ENDROOT
BRANCH   2   4
ATOM      4  C   UNL     1       6.026   2.087  24.046  0.00  0.00    +0.055 A 
ATOM      5  C   UNL     1       6.171   2.847  22.867  0.00  0.00    +0.054 A 
ATOM      6 CL   UNL     1       7.614   2.920  21.900  0.00  0.00    -0.083 Cl
ATOM      7  C   UNL     1       5.119   3.640  22.385  0.00  0.00    +0.040 A 
ATOM      8  C   UNL     1       3.926   3.710  23.088  0.00  0.00    +0.042 A 
ATOM      9 CL   UNL     1       2.662   4.730  22.527  0.00  0.00    -0.083 Cl
ATOM     10  C   UNL     1       3.750   2.946  24.237  0.00  0.00    +0.021 A 
ATOM     11  C   UNL     1       4.776   2.106  24.687  0.00  0.00    +0.016 A 
ENDBRANCH   2   4
BRANCH   1  12
ATOM     12  C   UNL     1       8.831  -0.718  24.340  0.00  0.00    +0.189 C 
BRANCH  12  13
ATOM     13  C   UNL     1      10.244  -0.032  24.369  0.00  0.00    +0.326 C 
ATOM     14  O   UNL     1      10.993   0.001  23.398  0.00  0.00    -0.249 OA
BRANCH  13  15
ATOM     15  O   UNL     1      10.645   0.539  25.525  0.00  0.00    -0.479 OA
ATOM     16  H   UNL     1       9.953   0.956  26.055  0.00  0.00    +0.295 HD
ENDBRANCH  13  15
ENDBRANCH  12  13
BRANCH  12  17
ATOM     17  C   UNL     1       8.730  -1.403  25.743  0.00  0.00    +0.069 C 
BRANCH  17  18
ATOM     18  C   UNL     1       8.626  -2.921  25.766  0.00  0.00    -0.045 A 
ATOM     19  C   UNL     1       9.202  -3.649  24.714  0.00  0.00    +0.004 A 
ATOM     20  C   UNL     1       9.102  -5.040  24.676  0.00  0.00    +0.000 A 
ATOM     21  C   UNL     1       8.429  -5.722  25.688  0.00  0.00    +0.000 A 
ATOM     22  C   UNL     1       7.865  -5.020  26.739  0.00  0.00    +0.000 A 
ATOM     23  C   UNL     1       7.966  -3.630  26.781  0.00  0.00    +0.004 A 
ENDBRANCH  17  18
ENDBRANCH  12  17
ENDBRANCH   1  12
BRANCH   1  24
ATOM     24  C   UNL     1       6.759  -0.686  22.846  0.00  0.00    +0.144 C 
BRANCH  24  25
ATOM     25  C   UNL     1       6.089  -1.994  23.163  0.00  0.00    -0.030 A 
ATOM     26  C   UNL     1       6.391  -3.094  22.332  0.00  0.00    +0.017 A 
ATOM     27  C   UNL     1       6.074  -4.408  22.708  0.00  0.00    +0.055 A 
ATOM     28  C   UNL     1       5.406  -4.609  23.920  0.00  0.00    +0.012 A 
ATOM     29  C   UNL     1       5.045  -3.520  24.720  0.00  0.00    +0.001 A 
ATOM     30  C   UNL     1       5.389  -2.219  24.349  0.00  0.00    +0.005 A 
BRANCH  27  31
ATOM     31  C   UNL     1       6.503  -5.561  21.833  0.00  0.00    +0.417 C 
ATOM     32  F   UNL     1       6.163  -6.768  22.368  0.00  0.00    -0.166 F 
ATOM     33  F   UNL     1       7.852  -5.605  21.655  0.00  0.00    -0.166 F 
ATOM     34  F   UNL     1       5.956  -5.540  20.585  0.00  0.00    -0.166 F 
ENDBRANCH  27  31
ENDBRANCH  24  25
ENDBRANCH   1  24
TORSDOF 9
ENDMDL
MODEL 6
REMARK VINA RESULT:      -7.3      2.869      3.817
REMARK  Name = 
REMARK  9 active torsions:
REMARK  status: ('A' for Active; 'I' for Inactive)
REMARK    1  A    between atoms: O_1  and  C_2
REMARK    2  A    between atoms: C_2  and  C_4
REMARK    3  A    between atoms: C_4  and  C_6
REMARK    4  A    between atoms: C_4  and  N_13
REMARK    5  A    between atoms: C_6  and  C_7
REMARK    6  A    between atoms: N_13  and  C_14
REMARK    7  A    between atoms: C_14  and  C_15
REMARK    8  A    between atoms: C_19  and  C_21
REMARK    9  A    between atoms: C_25  and  C_27
REMARK                            x       y       z     vdW  Elec       q    Type
REMARK                         _______ _______ _______ _____ _____    ______ ____
ROOT
ATOM      1  N   UNL     1       7.223  -2.704  23.600  0.00  0.00    -0.279 N 
ATOM      2  C   UNL     1       8.603  -2.373  23.576  0.00  0.00    +0.249 C 
ATOM      3  O   UNL     1       9.462  -3.244  23.599  0.00  0.00    -0.270 OA
ENDROOT
BRANCH   2   4
ATOM      4  C   UNL     1       9.137  -0.962  23.495  0.00  0.00    +0.055 A 
ATOM      5  C   UNL     1       9.417  -0.226  24.666  0.00  0.00    +0.054 A 
ATOM      6 CL   UNL     1       9.112  -0.778  26.285  0.00  0.00    -0.083 Cl
ATOM      7  C   UNL     1       9.971   1.061  24.595  0.00  0.00    +0.040 A 
ATOM      8  C   UNL     1      10.220   1.641  23.360  0.00  0.00    +0.042 A 
ATOM      9 CL   UNL     1      10.841   3.241  23.277  0.00  0.00    -0.083 Cl
ATOM     10  C   UNL     1       9.981   0.923  22.194  0.00  0.00    +0.021 A 
ATOM     11  C   UNL     1       9.486  -0.386  22.262  0.00  0.00    +0.016 A 
ENDBRANCH   2   4
BRANCH   1  12
ATOM     12  C   UNL     1       6.801  -4.181  23.517  0.00  0.00    +0.189 C 
BRANCH  12  13
ATOM     13  C   UNL     1       6.785  -4.955  22.149  0.00  0.00    +0.326 C 
ATOM     14  O   UNL     1       7.485  -5.937  21.928  0.00  0.00    -0.249 OA
BRANCH  13  15
ATOM     15  O   UNL     1       5.964  -4.504  21.178  0.00  0.00    -0.479 OA
ATOM     16  H   UNL     1       5.725  -3.568  21.225  0.00  0.00    +0.295 HD
ENDBRANCH  13  15
ENDBRANCH  12  13
BRANCH  12  17
ATOM     17  C   UNL     1       7.510  -5.179  24.490  0.00  0.00    +0.069 C 
BRANCH  17  18
ATOM     18  C   UNL     1       6.745  -5.587  25.741  0.00  0.00    -0.045 A 
ATOM     19  C   UNL     1       5.559  -6.323  25.591  0.00  0.00    +0.004 A 
ATOM     20  C   UNL     1       4.807  -6.690  26.708  0.00  0.00    +0.000 A 
ATOM     21  C   UNL     1       5.229  -6.329  27.986  0.00  0.00    +0.000 A 
ATOM     22  C   UNL     1       6.402  -5.613  28.152  0.00  0.00    +0.000 A 
ATOM     23  C   UNL     1       7.157  -5.248  27.038  0.00  0.00    +0.004 A 
ENDBRANCH  17  18
ENDBRANCH  12  17
ENDBRANCH   1  12
BRANCH   1  24
ATOM     24  C   UNL     1       6.175  -1.754  24.009  0.00  0.00    +0.144 C 
BRANCH  24  25
ATOM     25  C   UNL     1       5.276  -2.018  25.185  0.00  0.00    -0.030 A 
ATOM     26  C   UNL     1       4.124  -2.800  24.955  0.00  0.00    +0.017 A 
ATOM     27  C   UNL     1       3.392  -3.359  26.015  0.00  0.00    +0.055 A 
ATOM     28  C   UNL     1       3.805  -3.088  27.323  0.00  0.00    +0.012 A 
ATOM     29  C   UNL     1       4.908  -2.261  27.562  0.00  0.00    +0.001 A 
ATOM     30  C   UNL     1       5.644  -1.732  26.500  0.00  0.00    +0.005 A 
BRANCH  27  31
ATOM     31  C   UNL     1       2.223  -4.268  25.719  0.00  0.00    +0.417 C 
ATOM     32  F   UNL     1       1.850  -4.997  26.809  0.00  0.00    -0.166 F 
ATOM     33  F   UNL     1       2.507  -5.179  24.747  0.00  0.00    -0.166 F 
ATOM     34  F   UNL     1       1.103  -3.611  25.309  0.00  0.00    -0.166 F 
ENDBRANCH  27  31
ENDBRANCH  24  25
ENDBRANCH   1  24
TORSDOF 9
ENDMDL
MODEL 7
REMARK VINA RESULT:      -7.2      4.062      7.251
REMARK  Name = 
REMARK  9 active torsions:
REMARK  status: ('A' for Active; 'I' for Inactive)
REMARK    1  A    between atoms: O_1  and  C_2
REMARK    2  A    between atoms: C_2  and  C_4
REMARK    3  A    between atoms: C_4  and  C_6
REMARK    4  A    between atoms: C_4  and  N_13
REMARK    5  A    between atoms: C_6  and  C_7
REMARK    6  A    between atoms: N_13  and  C_14
REMARK    7  A    between atoms: C_14  and  C_15
REMARK    8  A    between atoms: C_19  and  C_21
REMARK    9  A    between atoms: C_25  and  C_27
REMARK                            x       y       z     vdW  Elec       q    Type
REMARK                         _______ _______ _______ _____ _____    ______ ____
ROOT
ATOM      1  N   UNL     1       6.806  -3.627  24.877  0.00  0.00    -0.279 N 
ATOM      2  C   UNL     1       6.265  -4.758  24.212  0.00  0.00    +0.249 C 
ATOM      3  O   UNL     1       6.972  -5.484  23.525  0.00  0.00    -0.270 OA
ENDROOT
BRANCH   2   4
ATOM      4  C   UNL     1       4.818  -5.183  24.298  0.00  0.00    +0.055 A 
ATOM      5  C   UNL     1       4.338  -5.896  25.417  0.00  0.00    +0.054 A 
ATOM      6 CL   UNL     1       5.318  -6.441  26.745  0.00  0.00    -0.083 Cl
ATOM      7  C   UNL     1       2.982  -6.238  25.528  0.00  0.00    +0.040 A 
ATOM      8  C   UNL     1       2.098  -5.905  24.513  0.00  0.00    +0.042 A 
ATOM      9 CL   UNL     1       0.451  -6.381  24.624  0.00  0.00    -0.083 Cl
ATOM     10  C   UNL     1       2.543  -5.177  23.415  0.00  0.00    +0.021 A 
ATOM     11  C   UNL     1       3.883  -4.780  23.330  0.00  0.00    +0.016 A 
ENDBRANCH   2   4
BRANCH   1  12
ATOM     12  C   UNL     1       8.325  -3.390  24.846  0.00  0.00    +0.189 C 
BRANCH  12  13
ATOM     13  C   UNL     1       9.334  -4.447  25.425  0.00  0.00    +0.326 C 
ATOM     14  O   UNL     1      10.311  -4.852  24.803  0.00  0.00    -0.249 OA
BRANCH  13  15
ATOM     15  O   UNL     1       9.101  -4.930  26.663  0.00  0.00    -0.479 OA
ATOM     16  H   UNL     1       8.824  -4.283  27.326  0.00  0.00    +0.295 HD
ENDBRANCH  13  15
ENDBRANCH  12  13
BRANCH  12  17
ATOM     17  C   UNL     1       8.957  -3.003  23.468  0.00  0.00    +0.069 C 
BRANCH  17  18
ATOM     18  C   UNL     1       9.417  -1.563  23.298  0.00  0.00    -0.045 A 
ATOM     19  C   UNL     1       9.969  -0.900  24.405  0.00  0.00    +0.004 A 
ATOM     20  C   UNL     1      10.374   0.432  24.305  0.00  0.00    +0.000 A 
ATOM     21  C   UNL     1      10.236   1.118  23.099  0.00  0.00    +0.000 A 
ATOM     22  C   UNL     1       9.704   0.475  21.995  0.00  0.00    +0.000 A 
ATOM     23  C   UNL     1       9.302  -0.856  22.091  0.00  0.00    +0.004 A 
ENDBRANCH  17  18
ENDBRANCH  12  17
ENDBRANCH   1  12
BRANCH   1  24
ATOM     24  C   UNL     1       5.985  -2.495  25.337  0.00  0.00    +0.144 C 
BRANCH  24  25
ATOM     25  C   UNL     1       6.540  -1.102  25.452  0.00  0.00    -0.030 A 
ATOM     26  C   UNL     1       6.412  -0.261  24.327  0.00  0.00    +0.017 A 
ATOM     27  C   UNL     1       6.610   1.126  24.419  0.00  0.00    +0.055 A 
ATOM     28  C   UNL     1       6.984   1.662  25.656  0.00  0.00    +0.012 A 
ATOM     29  C   UNL     1       7.176   0.827  26.761  0.00  0.00    +0.001 A 
ATOM     30  C   UNL     1       6.951  -0.548  26.664  0.00  0.00    +0.005 A 
BRANCH  27  31
ATOM     31  C   UNL     1       6.366   2.000  23.212  0.00  0.00    +0.417 C 
ATOM     32  F   UNL     1       6.470   1.305  22.045  0.00  0.00    -0.166 F 
ATOM     33  F   UNL     1       7.267   3.017  23.117  0.00  0.00    -0.166 F 
ATOM     34  F   UNL     1       5.134   2.580  23.192  0.00  0.00    -0.166 F 
ENDBRANCH  27  31
ENDBRANCH  24  25
ENDBRANCH   1  24
TORSDOF 9
ENDMDL
MODEL 8
REMARK VINA RESULT:      -7.1      1.902      2.755
REMARK  Name = 
REMARK  9 active torsions:
REMARK  status: ('A' for Active; 'I' for Inactive)
REMARK    1  A    between atoms: O_1  and  C_2
REMARK    2  A    between atoms: C_2  and  C_4
REMARK    3  A    between atoms: C_4  and  C_6
REMARK    4  A    between atoms: C_4  and  N_13
REMARK    5  A    between atoms: C_6  and  C_7
REMARK    6  A    between atoms: N_13  and  C_14
REMARK    7  A    between atoms: C_14  and  C_15
REMARK    8  A    between atoms: C_19  and  C_21
REMARK    9  A    between atoms: C_25  and  C_27
REMARK                            x       y       z     vdW  Elec       q    Type
REMARK                         _______ _______ _______ _____ _____    ______ ____
ROOT
ATOM      1  N   UNL     1       8.021  -0.331  23.935  0.00  0.00    -0.279 N 
ATOM      2  C   UNL     1       8.688   0.462  24.905  0.00  0.00    +0.249 C 
ATOM      3  O   UNL     1       9.855   0.245  25.203  0.00  0.00    -0.270 OA
ENDROOT
BRANCH   2   4
ATOM      4  C   UNL     1       8.059   1.630  25.628  0.00  0.00    +0.055 A 
ATOM      5  C   UNL     1       8.222   2.949  25.152  0.00  0.00    +0.054 A 
ATOM      6 CL   UNL     1       9.200   3.401  23.789  0.00  0.00    -0.083 Cl
ATOM      7  C   UNL     1       7.589   4.028  25.786  0.00  0.00    +0.040 A 
ATOM      8  C   UNL     1       6.816   3.811  26.916  0.00  0.00    +0.042 A 
ATOM      9 CL   UNL     1       6.092   5.144  27.725  0.00  0.00    -0.083 Cl
ATOM     10  C   UNL     1       6.616   2.517  27.385  0.00  0.00    +0.021 A 
ATOM     11  C   UNL     1       7.197   1.431  26.719  0.00  0.00    +0.016 A 
ENDBRANCH   2   4
BRANCH   1  12
ATOM     12  C   UNL     1       8.815  -1.387  23.150  0.00  0.00    +0.189 C 
BRANCH  12  13
ATOM     13  C   UNL     1       9.713  -0.995  21.921  0.00  0.00    +0.326 C 
ATOM     14  O   UNL     1       9.416  -0.105  21.132  0.00  0.00    -0.249 OA
BRANCH  13  15
ATOM     15  O   UNL     1      10.859  -1.683  21.732  0.00  0.00    -0.479 OA
ATOM     16  H   UNL     1      11.283  -2.030  22.529  0.00  0.00    +0.295 HD
ENDBRANCH  13  15
ENDBRANCH  12  13
BRANCH  12  17
ATOM     17  C   UNL     1       9.731  -2.349  23.977  0.00  0.00    +0.069 C 
BRANCH  17  18
ATOM     18  C   UNL     1       9.038  -3.344  24.895  0.00  0.00    -0.045 A 
ATOM     19  C   UNL     1       8.930  -4.680  24.478  0.00  0.00    +0.004 A 
ATOM     20  C   UNL     1       8.273  -5.620  25.273  0.00  0.00    +0.000 A 
ATOM     21  C   UNL     1       7.719  -5.241  26.494  0.00  0.00    +0.000 A 
ATOM     22  C   UNL     1       7.827  -3.931  26.926  0.00  0.00    +0.000 A 
ATOM     23  C   UNL     1       8.485  -2.990  26.135  0.00  0.00    +0.004 A 
ENDBRANCH  17  18
ENDBRANCH  12  17
ENDBRANCH   1  12
BRANCH   1  24
ATOM     24  C   UNL     1       6.554  -0.424  23.844  0.00  0.00    +0.144 C 
BRANCH  24  25
ATOM     25  C   UNL     1       5.839  -1.748  23.841  0.00  0.00    -0.030 A 
ATOM     26  C   UNL     1       6.088  -2.614  22.756  0.00  0.00    +0.017 A 
ATOM     27  C   UNL     1       5.727  -3.970  22.800  0.00  0.00    +0.055 A 
ATOM     28  C   UNL     1       5.068  -4.444  23.939  0.00  0.00    +0.012 A 
ATOM     29  C   UNL     1       4.760  -3.578  24.993  0.00  0.00    +0.001 A 
ATOM     30  C   UNL     1       5.147  -2.237  24.949  0.00  0.00    +0.005 A 
BRANCH  27  31
ATOM     31  C   UNL     1       6.100  -4.882  21.656  0.00  0.00    +0.417 C 
ATOM     32  F   UNL     1       7.412  -5.247  21.696  0.00  0.00    -0.166 F 
ATOM     33  F   UNL     1       5.919  -4.293  20.442  0.00  0.00    -0.166 F 
ATOM     34  F   UNL     1       5.391  -6.044  21.624  0.00  0.00    -0.166 F 
ENDBRANCH  27  31
ENDBRANCH  24  25
ENDBRANCH   1  24
TORSDOF 9
ENDMDL
MODEL 9
REMARK VINA RESULT:      -7.0      3.593      6.801
REMARK  Name = 
REMARK  9 active torsions:
REMARK  status: ('A' for Active; 'I' for Inactive)
REMARK    1  A    between atoms: O_1  and  C_2
REMARK    2  A    between atoms: C_2  and  C_4
REMARK    3  A    between atoms: C_4  and  C_6
REMARK    4  A    between atoms: C_4  and  N_13
REMARK    5  A    between atoms: C_6  and  C_7
REMARK    6  A    between atoms: N_13  and  C_14
REMARK    7  A    between atoms: C_14  and  C_15
REMARK    8  A    between atoms: C_19  and  C_21
REMARK    9  A    between atoms: C_25  and  C_27
REMARK                            x       y       z     vdW  Elec       q    Type
REMARK                         _______ _______ _______ _____ _____    ______ ____
ROOT
ATOM      1  N   UNL     1       6.311  -0.785  26.179  0.00  0.00    -0.279 N 
ATOM      2  C   UNL     1       5.386  -1.630  25.513  0.00  0.00    +0.249 C 
ATOM      3  O   UNL     1       4.179  -1.463  25.632  0.00  0.00    -0.270 OA
ENDROOT
BRANCH   2   4
ATOM      4  C   UNL     1       5.779  -2.768  24.600  0.00  0.00    +0.055 A 
ATOM      5  C   UNL     1       6.174  -4.015  25.127  0.00  0.00    +0.054 A 
ATOM      6 CL   UNL     1       6.349  -4.371  26.819  0.00  0.00    -0.083 Cl
ATOM      7  C   UNL     1       6.480  -5.092  24.281  0.00  0.00    +0.040 A 
ATOM      8  C   UNL     1       6.428  -4.929  22.905  0.00  0.00    +0.042 A 
ATOM      9 CL   UNL     1       6.863  -6.232  21.872  0.00  0.00    -0.083 Cl
ATOM     10  C   UNL     1       6.011  -3.717  22.363  0.00  0.00    +0.021 A 
ATOM     11  C   UNL     1       5.645  -2.659  23.205  0.00  0.00    +0.016 A 
ENDBRANCH   2   4
BRANCH   1  12
ATOM     12  C   UNL     1       5.792   0.440  26.950  0.00  0.00    +0.189 C 
BRANCH  12  13
ATOM     13  C   UNL     1       6.582   1.040  28.169  0.00  0.00    +0.326 C 
ATOM     14  O   UNL     1       6.324   0.763  29.336  0.00  0.00    -0.249 OA
BRANCH  13  15
ATOM     15  O   UNL     1       7.585   1.904  27.908  0.00  0.00    -0.479 OA
ATOM     16  H   UNL     1       7.526   2.766  28.342  0.00  0.00    +0.295 HD
ENDBRANCH  13  15
ENDBRANCH  12  13
BRANCH  12  17
ATOM     17  C   UNL     1       5.412   1.703  26.108  0.00  0.00    +0.069 C 
BRANCH  17  18
ATOM     18  C   UNL     1       6.265   2.000  24.884  0.00  0.00    -0.045 A 
ATOM     19  C   UNL     1       5.988   1.315  23.691  0.00  0.00    +0.004 A 
ATOM     20  C   UNL     1       6.766   1.531  22.553  0.00  0.00    +0.000 A 
ATOM     21  C   UNL     1       7.827   2.434  22.589  0.00  0.00    +0.000 A 
ATOM     22  C   UNL     1       8.105   3.127  23.755  0.00  0.00    +0.000 A 
ATOM     23  C   UNL     1       7.329   2.915  24.893  0.00  0.00    +0.004 A 
ENDBRANCH  17  18
ENDBRANCH  12  17
ENDBRANCH   1  12
BRANCH   1  24
ATOM     24  C   UNL     1       7.708  -1.170  26.442  0.00  0.00    +0.144 C 
BRANCH  24  25
ATOM     25  C   UNL     1       8.834  -0.744  25.541  0.00  0.00    -0.030 A 
ATOM     26  C   UNL     1       8.794  -1.188  24.202  0.00  0.00    +0.017 A 
ATOM     27  C   UNL     1       9.607  -0.614  23.213  0.00  0.00    +0.055 A 
ATOM     28  C   UNL     1      10.501   0.394  23.590  0.00  0.00    +0.012 A 
ATOM     29  C   UNL     1      10.592   0.796  24.926  0.00  0.00    +0.001 A 
ATOM     30  C   UNL     1       9.761   0.236  25.898  0.00  0.00    +0.005 A 
BRANCH  27  31
ATOM     31  C   UNL     1       9.461  -1.053  21.776  0.00  0.00    +0.417 C 
ATOM     32  F   UNL     1       8.410  -1.903  21.601  0.00  0.00    -0.166 F 
ATOM     33  F   UNL     1      10.557  -1.726  21.325  0.00  0.00    -0.166 F 
ATOM     34  F   UNL     1       9.260  -0.027  20.903  0.00  0.00    -0.166 F 
ENDBRANCH  27  31
ENDBRANCH  24  25
ENDBRANCH   1  24
TORSDOF 9
ENDMDL
