MODEL 1
REMARK VINA RESULT:      -7.4      0.000      0.000
REMARK  Name = 
REMARK  5 active torsions:
REMARK  status: ('A' for Active; 'I' for Inactive)
REMARK    1  A    between atoms: N_1  and  S_2
REMARK    2  A    between atoms: S_2  and  C_5
REMARK    3  A    between atoms: C_8  and  C_11
REMARK    4  A    between atoms: N_13  and  C_14
REMARK    5  A    between atoms: C_14  and  C_15
REMARK                            x       y       z     vdW  Elec       q    Type
REMARK                         _______ _______ _______ _____ _____    ______ ____
ROOT
ATOM      1  C   UNL     1       8.946  -3.374  23.740  0.00  0.00    +0.244 C 
ATOM      2  N   UNL     1       9.055  -2.312  22.868  0.00  0.00    -0.307 N 
ATOM      3  H   UNL     1       8.206  -1.840  22.587  0.00  0.00    +0.149 HD
ATOM      4  O   UNL     1       9.872  -3.791  24.423  0.00  0.00    -0.270 OA
ENDROOT
BRANCH   1   8
ATOM      5  C   UNL     1       5.042  -5.126  23.986  0.00  0.00    +0.105 A 
ATOM      6  C   UNL     1       6.014  -5.495  24.920  0.00  0.00    +0.029 A 
ATOM      7  C   UNL     1       7.287  -4.921  24.859  0.00  0.00    +0.015 A 
ATOM      8  C   UNL     1       7.589  -3.986  23.857  0.00  0.00    +0.037 A 
ATOM      9  C   UNL     1       6.595  -3.598  22.949  0.00  0.00    +0.015 A 
ATOM     10  C   UNL     1       5.320  -4.169  23.007  0.00  0.00    +0.029 A 
BRANCH   5  11
ATOM     11  S   UNL     1       3.442  -5.881  24.047  0.00  0.00    +0.056 S 
ATOM     12  O   UNL     1       2.847  -5.631  25.339  0.00  0.00    -0.153 OA
ATOM     13  O   UNL     1       2.756  -5.614  22.806  0.00  0.00    -0.153 OA
BRANCH  11  14
ATOM     14  N   UNL     1       3.814  -7.520  24.044  0.00  0.00    -0.204 NA
ATOM     15  H   UNL     1       4.172  -7.790  23.128  0.00  0.00    +0.144 HD
ATOM     16  H   UNL     1       4.460  -7.722  24.809  0.00  0.00    +0.144 HD
ENDBRANCH  11  14
ENDBRANCH   5  11
ENDBRANCH   1   8
BRANCH   2  17
ATOM     17  C   UNL     1      10.284  -1.550  22.772  0.00  0.00    +0.145 C 
BRANCH  17  18
ATOM     18  C   UNL     1      10.028  -0.078  22.904  0.00  0.00    +0.040 A 
ATOM     19  C   UNL     1      10.285   0.596  24.100  0.00  0.00    +0.134 A 
ATOM     20  F   UNL     1      10.765  -0.074  25.156  0.00  0.00    -0.205 F 
ATOM     21  C   UNL     1      10.057   1.962  24.231  0.00  0.00    +0.077 A 
ATOM     22  C   UNL     1       9.557   2.669  23.147  0.00  0.00    +0.129 A 
ATOM     23  F   UNL     1       9.339   3.985  23.261  0.00  0.00    -0.205 F 
ATOM     24  C   UNL     1       9.279   2.032  21.946  0.00  0.00    +0.077 A 
ATOM     25  C   UNL     1       9.515   0.666  21.838  0.00  0.00    +0.134 A 
ATOM     26  F   UNL     1       9.258   0.059  20.670  0.00  0.00    -0.205 F 
ENDBRANCH  17  18
ENDBRANCH   2  17
TORSDOF 5
ENDMDL
MODEL 2
REMARK VINA RESULT:      -7.4      2.214      2.718
REMARK  Name = 
REMARK  5 active torsions:
REMARK  status: ('A' for Active; 'I' for Inactive)
REMARK    1  A    between atoms: N_1  and  S_2
REMARK    2  A    between atoms: S_2  and  C_5
REMARK    3  A    between atoms: C_8  and  C_11
REMARK    4  A    between atoms: N_13  and  C_14
REMARK    5  A    between atoms: C_14  and  C_15
REMARK                            x       y       z     vdW  Elec       q    Type
REMARK                         _______ _______ _______ _____ _____    ______ ____
ROOT
ATOM      1  C   UNL     1       8.443  -2.984  23.643  0.00  0.00    +0.244 C 
ATOM      2  N   UNL     1       9.629  -2.357  23.960  0.00  0.00    -0.307 N 
ATOM      3  H   UNL     1      10.127  -2.674  24.782  0.00  0.00    +0.149 HD
ATOM      4  O   UNL     1       7.937  -2.958  22.528  0.00  0.00    -0.270 OA
ENDROOT
BRANCH   1   8
ATOM      5  C   UNL     1       6.657  -5.183  26.859  0.00  0.00    +0.105 A 
ATOM      6  C   UNL     1       5.872  -4.827  25.759  0.00  0.00    +0.029 A 
ATOM      7  C   UNL     1       6.445  -4.121  24.697  0.00  0.00    +0.015 A 
ATOM      8  C   UNL     1       7.802  -3.764  24.742  0.00  0.00    +0.037 A 
ATOM      9  C   UNL     1       8.586  -4.158  25.835  0.00  0.00    +0.015 A 
ATOM     10  C   UNL     1       8.017  -4.865  26.898  0.00  0.00    +0.029 A 
BRANCH   5  11
ATOM     11  S   UNL     1       5.918  -6.047  28.217  0.00  0.00    +0.056 S 
ATOM     12  O   UNL     1       6.948  -6.744  28.953  0.00  0.00    -0.153 OA
ATOM     13  O   UNL     1       4.956  -5.179  28.850  0.00  0.00    -0.153 OA
BRANCH  11  14
ATOM     14  N   UNL     1       5.038  -7.252  27.444  0.00  0.00    -0.204 NA
ATOM     15  H   UNL     1       4.314  -6.831  26.863  0.00  0.00    +0.144 HD
ATOM     16  H   UNL     1       5.676  -7.857  26.924  0.00  0.00    +0.144 HD
ENDBRANCH  11  14
ENDBRANCH   5  11
ENDBRANCH   1   8
BRANCH   2  17
ATOM     17  C   UNL     1      10.414  -1.687  22.943  0.00  0.00    +0.145 C 
BRANCH  17  18
ATOM     18  C   UNL     1      10.163  -0.208  22.942  0.00  0.00    +0.040 A 
ATOM     19  C   UNL     1      10.488   0.580  24.048  0.00  0.00    +0.134 A 
ATOM     20  F   UNL     1      11.029   0.017  25.136  0.00  0.00    -0.205 F 
ATOM     21  C   UNL     1      10.265   1.954  24.054  0.00  0.00    +0.077 A 
ATOM     22  C   UNL     1       9.702   2.551  22.936  0.00  0.00    +0.129 A 
ATOM     23  F   UNL     1       9.488   3.873  22.931  0.00  0.00    -0.205 F 
ATOM     24  C   UNL     1       9.356   1.799  21.822  0.00  0.00    +0.077 A 
ATOM     25  C   UNL     1       9.588   0.428  21.838  0.00  0.00    +0.134 A 
ATOM     26  F   UNL     1       9.265  -0.292  20.753  0.00  0.00    -0.205 F 
ENDBRANCH  17  18
ENDBRANCH   2  17
TORSDOF 5
ENDMDL
MODEL 3
REMARK VINA RESULT:      -7.4      0.150      1.723
REMARK  Name = 
REMARK  5 active torsions:
REMARK  status: ('A' for Active; 'I' for Inactive)
REMARK    1  A    between atoms: N_1  and  S_2
REMARK    2  A    between atoms: S_2  and  C_5
REMARK    3  A    between atoms: C_8  and  C_11
REMARK    4  A    between atoms: N_13  and  C_14
REMARK    5  A    between atoms: C_14  and  C_15
REMARK                            x       y       z     vdW  Elec       q    Type
REMARK                         _______ _______ _______ _____ _____    ______ ____
ROOT
ATOM      1  C   UNL     1       8.921  -3.482  23.847  0.00  0.00    +0.244 C 
ATOM      2  N   UNL     1       9.030  -2.363  23.049  0.00  0.00    -0.307 N 
ATOM      3  H   UNL     1       8.182  -1.864  22.814  0.00  0.00    +0.149 HD
ATOM      4  O   UNL     1       9.853  -3.955  24.485  0.00  0.00    -0.270 OA
ENDROOT
BRANCH   1   8
ATOM      5  C   UNL     1       5.008  -5.221  24.030  0.00  0.00    +0.105 A 
ATOM      6  C   UNL     1       5.925  -5.498  25.049  0.00  0.00    +0.029 A 
ATOM      7  C   UNL     1       7.200  -4.927  25.007  0.00  0.00    +0.015 A 
ATOM      8  C   UNL     1       7.560  -4.086  23.942  0.00  0.00    +0.037 A 
ATOM      9  C   UNL     1       6.619  -3.789  22.947  0.00  0.00    +0.015 A 
ATOM     10  C   UNL     1       5.342  -4.357  22.985  0.00  0.00    +0.029 A 
BRANCH   5  11
ATOM     11  S   UNL     1       3.407  -5.975  24.069  0.00  0.00    +0.056 S 
ATOM     12  O   UNL     1       2.794  -5.723  25.353  0.00  0.00    -0.153 OA
ATOM     13  O   UNL     1       2.738  -5.708  22.819  0.00  0.00    -0.153 OA
BRANCH  11  14
ATOM     14  N   UNL     1       3.777  -7.614  24.072  0.00  0.00    -0.204 NA
ATOM     15  H   UNL     1       4.120  -7.888  24.993  0.00  0.00    +0.144 HD
ATOM     16  H   UNL     1       2.960  -8.147  23.769  0.00  0.00    +0.144 HD
ENDBRANCH  11  14
ENDBRANCH   5  11
ENDBRANCH   1   8
BRANCH   2  17
ATOM     17  C   UNL     1      10.265  -1.608  22.987  0.00  0.00    +0.145 C 
BRANCH  17  18
ATOM     18  C   UNL     1      10.009  -0.131  23.033  0.00  0.00    +0.040 A 
ATOM     19  C   UNL     1       9.565   0.561  21.904  0.00  0.00    +0.134 A 
ATOM     20  F   UNL     1       9.365  -0.094  20.753  0.00  0.00    -0.205 F 
ATOM     21  C   UNL     1       9.318   1.930  21.940  0.00  0.00    +0.077 A 
ATOM     22  C   UNL     1       9.525   2.622  23.124  0.00  0.00    +0.129 A 
ATOM     23  F   UNL     1       9.285   3.939  23.169  0.00  0.00    -0.205 F 
ATOM     24  C   UNL     1       9.975   1.971  24.263  0.00  0.00    +0.077 A 
ATOM     25  C   UNL     1      10.215   0.602  24.205  0.00  0.00    +0.134 A 
ATOM     26  F   UNL     1      10.637  -0.024  25.313  0.00  0.00    -0.205 F 
ENDBRANCH  17  18
ENDBRANCH   2  17
TORSDOF 5
ENDMDL
MODEL 4
REMARK VINA RESULT:      -7.4      2.262      3.241
REMARK  Name = 
REMARK  5 active torsions:
REMARK  status: ('A' for Active; 'I' for Inactive)
REMARK    1  A    between atoms: N_1  and  S_2
REMARK    2  A    between atoms: S_2  and  C_5
REMARK    3  A    between atoms: C_8  and  C_11
REMARK    4  A    between atoms: N_13  and  C_14
REMARK    5  A    between atoms: C_14  and  C_15
REMARK                            x       y       z     vdW  Elec       q    Type
REMARK                         _______ _______ _______ _____ _____    ______ ____
ROOT
ATOM      1  C   UNL     1       8.426  -2.935  23.684  0.00  0.00    +0.244 C 
ATOM      2  N   UNL     1       9.629  -2.333  23.986  0.00  0.00    -0.307 N 
ATOM      3  H   UNL     1      10.136  -2.667  24.795  0.00  0.00    +0.149 HD
ATOM      4  O   UNL     1       7.901  -2.887  22.579  0.00  0.00    -0.270 OA
ENDROOT
BRANCH   1   8
ATOM      5  C   UNL     1       6.669  -5.150  26.906  0.00  0.00    +0.105 A 
ATOM      6  C   UNL     1       5.838  -4.581  25.937  0.00  0.00    +0.029 A 
ATOM      7  C   UNL     1       6.399  -3.868  24.874  0.00  0.00    +0.015 A 
ATOM      8  C   UNL     1       7.791  -3.715  24.787  0.00  0.00    +0.037 A 
ATOM      9  C   UNL     1       8.616  -4.321  25.745  0.00  0.00    +0.015 A 
ATOM     10  C   UNL     1       8.058  -5.036  26.809  0.00  0.00    +0.029 A 
BRANCH   5  11
ATOM     11  S   UNL     1       5.952  -6.023  28.268  0.00  0.00    +0.056 S 
ATOM     12  O   UNL     1       6.992  -6.735  28.976  0.00  0.00    -0.153 OA
ATOM     13  O   UNL     1       5.009  -5.155  28.931  0.00  0.00    -0.153 OA
BRANCH  11  14
ATOM     14  N   UNL     1       5.048  -7.214  27.501  0.00  0.00    -0.204 NA
ATOM     15  H   UNL     1       4.660  -7.852  28.195  0.00  0.00    +0.144 HD
ATOM     16  H   UNL     1       4.339  -6.774  26.913  0.00  0.00    +0.144 HD
ENDBRANCH  11  14
ENDBRANCH   5  11
ENDBRANCH   1   8
BRANCH   2  17
ATOM     17  C   UNL     1      10.407  -1.666  22.962  0.00  0.00    +0.145 C 
BRANCH  17  18
ATOM     18  C   UNL     1      10.162  -0.186  22.963  0.00  0.00    +0.040 A 
ATOM     19  C   UNL     1       9.606   0.455  21.855  0.00  0.00    +0.134 A 
ATOM     20  F   UNL     1       9.285  -0.252  20.763  0.00  0.00    -0.205 F 
ATOM     21  C   UNL     1       9.368   1.826  21.849  0.00  0.00    +0.077 A 
ATOM     22  C   UNL     1       9.699   2.573  22.971  0.00  0.00    +0.129 A 
ATOM     23  F   UNL     1       9.470   3.892  22.977  0.00  0.00    -0.205 F 
ATOM     24  C   UNL     1      10.264   1.972  24.087  0.00  0.00    +0.077 A 
ATOM     25  C   UNL     1      10.491   0.601  24.071  0.00  0.00    +0.134 A 
ATOM     26  F   UNL     1      11.024   0.024  25.158  0.00  0.00    -0.205 F 
ENDBRANCH  17  18
ENDBRANCH   2  17
TORSDOF 5
ENDMDL
MODEL 5
REMARK VINA RESULT:      -7.3      1.140      1.212
REMARK  Name = 
REMARK  5 active torsions:
REMARK  status: ('A' for Active; 'I' for Inactive)
REMARK    1  A    between atoms: N_1  and  S_2
REMARK    2  A    between atoms: S_2  and  C_5
REMARK    3  A    between atoms: C_8  and  C_11
REMARK    4  A    between atoms: N_13  and  C_14
REMARK    5  A    between atoms: C_14  and  C_15
REMARK                            x       y       z     vdW  Elec       q    Type
REMARK                         _______ _______ _______ _____ _____    ______ ____
ROOT
ATOM      1  C   UNL     1       9.169  -3.771  24.187  0.00  0.00    +0.244 C 
ATOM      2  N   UNL     1       9.053  -2.626  23.427  0.00  0.00    -0.307 N 
ATOM      3  H   UNL     1       8.153  -2.167  23.397  0.00  0.00    +0.149 HD
ATOM      4  O   UNL     1      10.236  -4.211  24.594  0.00  0.00    -0.270 OA
ENDROOT
BRANCH   1   8
ATOM      5  C   UNL     1       5.488  -5.751  25.137  0.00  0.00    +0.105 A 
ATOM      6  C   UNL     1       6.442  -5.567  26.142  0.00  0.00    +0.029 A 
ATOM      7  C   UNL     1       7.641  -4.911  25.849  0.00  0.00    +0.015 A 
ATOM      8  C   UNL     1       7.889  -4.448  24.547  0.00  0.00    +0.037 A 
ATOM      9  C   UNL     1       6.909  -4.607  23.557  0.00  0.00    +0.015 A 
ATOM     10  C   UNL     1       5.708  -5.262  23.847  0.00  0.00    +0.029 A 
BRANCH   5  11
ATOM     11  S   UNL     1       3.986  -6.612  25.505  0.00  0.00    +0.056 S 
ATOM     12  O   UNL     1       2.922  -5.654  25.691  0.00  0.00    -0.153 OA
ATOM     13  O   UNL     1       3.872  -7.745  24.619  0.00  0.00    -0.153 OA
BRANCH  11  14
ATOM     14  N   UNL     1       4.290  -7.233  27.037  0.00  0.00    -0.204 NA
ATOM     15  H   UNL     1       5.232  -6.975  27.333  0.00  0.00    +0.144 HD
ATOM     16  H   UNL     1       3.562  -6.918  27.681  0.00  0.00    +0.144 HD
ENDBRANCH  11  14
ENDBRANCH   5  11
ENDBRANCH   1   8
BRANCH   2  17
ATOM     17  C   UNL     1      10.211  -1.806  23.132  0.00  0.00    +0.145 C 
BRANCH  17  18
ATOM     18  C   UNL     1       9.862  -0.348  23.120  0.00  0.00    +0.040 A 
ATOM     19  C   UNL     1       9.930   0.421  24.284  0.00  0.00    +0.134 A 
ATOM     20  F   UNL     1      10.309  -0.143  25.438  0.00  0.00    -0.205 F 
ATOM     21  C   UNL     1       9.615   1.776  24.281  0.00  0.00    +0.077 A 
ATOM     22  C   UNL     1       9.216   2.374  23.094  0.00  0.00    +0.129 A 
ATOM     23  F   UNL     1       8.915   3.679  23.081  0.00  0.00    -0.205 F 
ATOM     24  C   UNL     1       9.126   1.640  21.920  0.00  0.00    +0.077 A 
ATOM     25  C   UNL     1       9.447   0.288  21.946  0.00  0.00    +0.134 A 
ATOM     26  F   UNL     1       9.371  -0.413  20.805  0.00  0.00    -0.205 F 
ENDBRANCH  17  18
ENDBRANCH   2  17
TORSDOF 5
ENDMDL
MODEL 6
REMARK VINA RESULT:      -7.2      1.231      2.162
REMARK  Name = 
REMARK  5 active torsions:
REMARK  status: ('A' for Active; 'I' for Inactive)
REMARK    1  A    between atoms: N_1  and  S_2
REMARK    2  A    between atoms: S_2  and  C_5
REMARK    3  A    between atoms: C_8  and  C_11
REMARK    4  A    between atoms: N_13  and  C_14
REMARK    5  A    between atoms: C_14  and  C_15
REMARK                            x       y       z     vdW  Elec       q    Type
REMARK                         _______ _______ _______ _____ _____    ______ ____
ROOT
ATOM      1  C   UNL     1       9.221  -2.471  23.034  0.00  0.00    +0.244 C 
ATOM      2  N   UNL     1       8.794  -1.492  22.163  0.00  0.00    -0.307 N 
ATOM      3  H   UNL     1       7.813  -1.243  22.174  0.00  0.00    +0.149 HD
ATOM      4  O   UNL     1      10.388  -2.615  23.375  0.00  0.00    -0.270 OA
ENDROOT
BRANCH   1   8
ATOM      5  C   UNL     1       6.126  -5.001  24.579  0.00  0.00    +0.105 A 
ATOM      6  C   UNL     1       7.419  -5.111  25.099  0.00  0.00    +0.029 A 
ATOM      7  C   UNL     1       8.434  -4.283  24.613  0.00  0.00    +0.015 A 
ATOM      8  C   UNL     1       8.157  -3.352  23.600  0.00  0.00    +0.037 A 
ATOM      9  C   UNL     1       6.849  -3.227  23.112  0.00  0.00    +0.015 A 
ATOM     10  C   UNL     1       5.830  -4.053  23.596  0.00  0.00    +0.029 A 
BRANCH   5  11
ATOM     11  S   UNL     1       4.851  -6.076  25.173  0.00  0.00    +0.056 S 
ATOM     12  O   UNL     1       5.347  -6.819  26.309  0.00  0.00    -0.153 OA
ATOM     13  O   UNL     1       3.605  -5.349  25.199  0.00  0.00    -0.153 OA
BRANCH  11  14
ATOM     14  N   UNL     1       4.720  -7.204  23.934  0.00  0.00    -0.204 NA
ATOM     15  H   UNL     1       3.748  -7.500  23.839  0.00  0.00    +0.144 HD
ATOM     16  H   UNL     1       5.110  -6.811  23.076  0.00  0.00    +0.144 HD
ENDBRANCH  11  14
ENDBRANCH   5  11
ENDBRANCH   1   8
BRANCH   2  17
ATOM     17  C   UNL     1       9.711  -0.491  21.657  0.00  0.00    +0.145 C 
BRANCH  17  18
ATOM     18  C   UNL     1       9.523   0.826  22.350  0.00  0.00    +0.040 A 
ATOM     19  C   UNL     1       8.610   1.769  21.873  0.00  0.00    +0.134 A 
ATOM     20  F   UNL     1       7.886   1.506  20.777  0.00  0.00    -0.205 F 
ATOM     21  C   UNL     1       8.423   2.991  22.513  0.00  0.00    +0.077 A 
ATOM     22  C   UNL     1       9.169   3.279  23.647  0.00  0.00    +0.129 A 
ATOM     23  F   UNL     1       8.993   4.450  24.272  0.00  0.00    -0.205 F 
ATOM     24  C   UNL     1      10.093   2.372  24.144  0.00  0.00    +0.077 A 
ATOM     25  C   UNL     1      10.262   1.157  23.489  0.00  0.00    +0.134 A 
ATOM     26  F   UNL     1      11.148   0.278  23.982  0.00  0.00    -0.205 F 
ENDBRANCH  17  18
ENDBRANCH   2  17
TORSDOF 5
ENDMDL
MODEL 7
REMARK VINA RESULT:      -7.2      2.228      3.187
REMARK  Name = 
REMARK  5 active torsions:
REMARK  status: ('A' for Active; 'I' for Inactive)
REMARK    1  A    between atoms: N_1  and  S_2
REMARK    2  A    between atoms: S_2  and  C_5
REMARK    3  A    between atoms: C_8  and  C_11
REMARK    4  A    between atoms: N_13  and  C_14
REMARK    5  A    between atoms: C_14  and  C_15
REMARK                            x       y       z     vdW  Elec       q    Type
REMARK                         _______ _______ _______ _____ _____    ______ ____
ROOT
ATOM      1  C   UNL     1       9.398  -2.224  23.094  0.00  0.00    +0.244 C 
ATOM      2  N   UNL     1       8.662  -1.208  22.523  0.00  0.00    -0.307 N 
ATOM      3  H   UNL     1       7.793  -0.944  22.970  0.00  0.00    +0.149 HD
ATOM      4  O   UNL     1      10.592  -2.398  22.884  0.00  0.00    -0.270 OA
ENDROOT
BRANCH   1   8
ATOM      5  C   UNL     1       7.279  -4.683  25.893  0.00  0.00    +0.105 A 
ATOM      6  C   UNL     1       7.217  -4.992  24.530  0.00  0.00    +0.029 A 
ATOM      7  C   UNL     1       7.914  -4.206  23.609  0.00  0.00    +0.015 A 
ATOM      8  C   UNL     1       8.665  -3.105  24.049  0.00  0.00    +0.037 A 
ATOM      9  C   UNL     1       8.748  -2.828  25.421  0.00  0.00    +0.015 A 
ATOM     10  C   UNL     1       8.054  -3.612  26.346  0.00  0.00    +0.029 A 
BRANCH   5  11
ATOM     11  S   UNL     1       6.367  -5.660  27.052  0.00  0.00    +0.056 S 
ATOM     12  O   UNL     1       5.568  -6.626  26.335  0.00  0.00    -0.153 OA
ATOM     13  O   UNL     1       7.241  -6.024  28.141  0.00  0.00    -0.153 OA
BRANCH  11  14
ATOM     14  N   UNL     1       5.266  -4.553  27.673  0.00  0.00    -0.204 NA
ATOM     15  H   UNL     1       5.543  -4.284  28.617  0.00  0.00    +0.144 HD
ATOM     16  H   UNL     1       5.184  -3.761  27.033  0.00  0.00    +0.144 HD
ENDBRANCH  11  14
ENDBRANCH   5  11
ENDBRANCH   1   8
BRANCH   2  17
ATOM     17  C   UNL     1       9.294  -0.206  21.688  0.00  0.00    +0.145 C 
BRANCH  17  18
ATOM     18  C   UNL     1       9.308   1.136  22.357  0.00  0.00    +0.040 A 
ATOM     19  C   UNL     1       8.384   2.125  22.012  0.00  0.00    +0.134 A 
ATOM     20  F   UNL     1       7.467   1.885  21.066  0.00  0.00    -0.205 F 
ATOM     21  C   UNL     1       8.385   3.371  22.632  0.00  0.00    +0.077 A 
ATOM     22  C   UNL     1       9.331   3.636  23.612  0.00  0.00    +0.129 A 
ATOM     23  F   UNL     1       9.337   4.830  24.217  0.00  0.00    -0.205 F 
ATOM     24  C   UNL     1      10.271   2.682  23.974  0.00  0.00    +0.077 A 
ATOM     25  C   UNL     1      10.251   1.444  23.342  0.00  0.00    +0.134 A 
ATOM     26  F   UNL     1      11.154   0.521  23.706  0.00  0.00    -0.205 F 
ENDBRANCH  17  18
ENDBRANCH   2  17
TORSDOF 5
ENDMDL
MODEL 8
REMARK VINA RESULT:      -7.0      4.613      8.075
REMARK  Name = 
REMARK  5 active torsions:
REMARK  status: ('A' for Active; 'I' for Inactive)
REMARK    1  A    between atoms: N_1  and  S_2
REMARK    2  A    between atoms: S_2  and  C_5
REMARK    3  A    between atoms: C_8  and  C_11
REMARK    4  A    between atoms: N_13  and  C_14
REMARK    5  A    between atoms: C_14  and  C_15
REMARK                            x       y       z     vdW  Elec       q    Type
REMARK                         _______ _______ _______ _____ _____    ______ ____
ROOT
ATOM      1  C   UNL     1      10.005  -1.749  23.496  0.00  0.00    +0.244 C 
ATOM      2  N   UNL     1       9.521  -2.470  24.567  0.00  0.00    -0.307 N 
ATOM      3  H   UNL     1       8.835  -2.029  25.165  0.00  0.00    +0.149 HD
ATOM      4  O   UNL     1      10.541  -2.258  22.520  0.00  0.00    -0.270 OA
ENDROOT
BRANCH   1   8
ATOM      5  C   UNL     1       9.429   2.490  23.759  0.00  0.00    +0.105 A 
ATOM      6  C   UNL     1       9.932   1.943  22.575  0.00  0.00    +0.029 A 
ATOM      7  C   UNL     1      10.112   0.561  22.472  0.00  0.00    +0.015 A 
ATOM      8  C   UNL     1       9.798  -0.272  23.557  0.00  0.00    +0.037 A 
ATOM      9  C   UNL     1       9.261   0.286  24.726  0.00  0.00    +0.015 A 
ATOM     10  C   UNL     1       9.078   1.668  24.833  0.00  0.00    +0.029 A 
BRANCH   5  11
ATOM     11  S   UNL     1       9.235   4.244  23.898  0.00  0.00    +0.056 S 
ATOM     12  O   UNL     1       8.444   4.544  25.068  0.00  0.00    -0.153 OA
ATOM     13  O   UNL     1      10.506   4.874  23.631  0.00  0.00    -0.153 OA
BRANCH  11  14
ATOM     14  N   UNL     1       8.241   4.604  22.592  0.00  0.00    -0.204 NA
ATOM     15  H   UNL     1       8.600   5.422  22.100  0.00  0.00    +0.144 HD
ATOM     16  H   UNL     1       8.153   3.779  21.995  0.00  0.00    +0.144 HD
ENDBRANCH  11  14
ENDBRANCH   5  11
ENDBRANCH   1   8
BRANCH   2  17
ATOM     17  C   UNL     1       9.538  -3.919  24.559  0.00  0.00    +0.145 C 
BRANCH  17  18
ATOM     18  C   UNL     1       8.153  -4.485  24.653  0.00  0.00    +0.040 A 
ATOM     19  C   UNL     1       7.308  -4.516  23.542  0.00  0.00    +0.134 A 
ATOM     20  F   UNL     1       7.729  -4.032  22.366  0.00  0.00    -0.205 F 
ATOM     21  C   UNL     1       6.023  -5.046  23.617  0.00  0.00    +0.077 A 
ATOM     22  C   UNL     1       5.571  -5.548  24.829  0.00  0.00    +0.129 A 
ATOM     23  F   UNL     1       4.338  -6.064  24.911  0.00  0.00    -0.205 F 
ATOM     24  C   UNL     1       6.378  -5.525  25.958  0.00  0.00    +0.077 A 
ATOM     25  C   UNL     1       7.658  -4.992  25.858  0.00  0.00    +0.134 A 
ATOM     26  F   UNL     1       8.438  -4.985  26.949  0.00  0.00    -0.205 F 
ENDBRANCH  17  18
ENDBRANCH   2  17
TORSDOF 5
ENDMDL
MODEL 9
REMARK VINA RESULT:      -7.0      4.629      7.931
REMARK  Name = 
REMARK  5 active torsions:
REMARK  status: ('A' for Active; 'I' for Inactive)
REMARK    1  A    between atoms: N_1  and  S_2
REMARK    2  A    between atoms: S_2  and  C_5
REMARK    3  A    between atoms: C_8  and  C_11
REMARK    4  A    between atoms: N_13  and  C_14
REMARK    5  A    between atoms: C_14  and  C_15
REMARK                            x       y       z     vdW  Elec       q    Type
REMARK                         _______ _______ _______ _____ _____    ______ ____
ROOT
ATOM      1  C   UNL     1       9.991  -1.750  23.545  0.00  0.00    +0.244 C 
ATOM      2  N   UNL     1       9.441  -2.481  24.577  0.00  0.00    -0.307 N 
ATOM      3  H   UNL     1       8.687  -2.062  25.104  0.00  0.00    +0.149 HD
ATOM      4  O   UNL     1      10.634  -2.246  22.628  0.00  0.00    -0.270 OA
ENDROOT
BRANCH   1   8
ATOM      5  C   UNL     1       9.244   2.467  23.697  0.00  0.00    +0.105 A 
ATOM      6  C   UNL     1       9.649   1.890  22.490  0.00  0.00    +0.029 A 
ATOM      7  C   UNL     1       9.883   0.513  22.424  0.00  0.00    +0.015 A 
ATOM      8  C   UNL     1       9.721  -0.283  23.568  0.00  0.00    +0.037 A 
ATOM      9  C   UNL     1       9.281   0.303  24.763  0.00  0.00    +0.015 A 
ATOM     10  C   UNL     1       9.044   1.679  24.833  0.00  0.00    +0.029 A 
BRANCH   5  11
ATOM     11  S   UNL     1       8.982   4.216  23.784  0.00  0.00    +0.056 S 
ATOM     12  O   UNL     1       8.064   4.611  22.741  0.00  0.00    -0.153 OA
ATOM     13  O   UNL     1       8.803   4.590  25.166  0.00  0.00    -0.153 OA
BRANCH  11  14
ATOM     14  N   UNL     1      10.473   4.830  23.313  0.00  0.00    -0.204 NA
ATOM     15  H   UNL     1      10.693   4.513  22.368  0.00  0.00    +0.144 HD
ATOM     16  H   UNL     1      10.466   5.847  23.408  0.00  0.00    +0.144 HD
ENDBRANCH  11  14
ENDBRANCH   5  11
ENDBRANCH   1   8
BRANCH   2  17
ATOM     17  C   UNL     1       9.517  -3.928  24.589  0.00  0.00    +0.145 C 
BRANCH  17  18
ATOM     18  C   UNL     1       8.156  -4.548  24.711  0.00  0.00    +0.040 A 
ATOM     19  C   UNL     1       7.688  -5.028  25.936  0.00  0.00    +0.134 A 
ATOM     20  F   UNL     1       8.460  -4.944  27.028  0.00  0.00    -0.205 F 
ATOM     21  C   UNL     1       6.425  -5.598  26.061  0.00  0.00    +0.077 A 
ATOM     22  C   UNL     1       5.616  -5.696  24.939  0.00  0.00    +0.129 A 
ATOM     23  F   UNL     1       4.396  -6.238  25.050  0.00  0.00    -0.205 F 
ATOM     24  C   UNL     1       6.050  -5.239  23.703  0.00  0.00    +0.077 A 
ATOM     25  C   UNL     1       7.315  -4.673  23.602  0.00  0.00    +0.134 A 
ATOM     26  F   UNL     1       7.724  -4.221  22.407  0.00  0.00    -0.205 F 
ENDBRANCH  17  18
ENDBRANCH   2  17
TORSDOF 5
ENDMDL
