MODEL 1
REMARK VINA RESULT:      -7.7      0.000      0.000
REMARK  Name = 
REMARK  7 active torsions:
REMARK  status: ('A' for Active; 'I' for Inactive)
REMARK    1  A    between atoms: O_1  and  C_2
REMARK    2  A    between atoms: C_2  and  C_23
REMARK    3  A    between atoms: N_5  and  C_6
REMARK    4  A    between atoms: C_6  and  C_7
REMARK    5  A    between atoms: C_7  and  C_8
REMARK    6  A    between atoms: C_8  and  C_9
REMARK    7  A    between atoms: C_9  and  C_14
REMARK                            x       y       z     vdW  Elec       q    Type
REMARK                         _______ _______ _______ _____ _____    ______ ____
ROOT
ATOM      1  C   UNL     1       9.205   1.909  22.647  0.00  0.00    +0.093 C 
ATOM      2  C   UNL     1       9.786   1.847  24.075  0.00  0.00    +0.055 C 
ATOM      3  C   UNL     1      10.918   0.826  24.206  0.00  0.00    +0.087 C 
ATOM      4  N   UNL     1      10.569  -0.505  23.694  0.00  0.00    -0.302 NA
ATOM      5  C   UNL     1      10.163  -0.408  22.283  0.00  0.00    +0.087 C 
ATOM      6  C   UNL     1       8.957   0.506  22.062  0.00  0.00    +0.055 C 
ENDROOT
BRANCH   1   7
ATOM      7  C   UNL     1       7.917   2.741  22.637  0.00  0.00    -0.016 A 
ATOM      8  C   UNL     1       6.653   2.122  22.633  0.00  0.00    +0.008 A 
ATOM      9  C   UNL     1       5.477   2.873  22.665  0.00  0.00    +0.020 A 
ATOM     10  C   UNL     1       5.545   4.265  22.696  0.00  0.00    +0.041 A 
ATOM     11 CL   UNL     1       4.101   5.195  22.762  0.00  0.00    -0.084 Cl
ATOM     12  C   UNL     1       6.780   4.903  22.681  0.00  0.00    +0.020 A 
ATOM     13  C   UNL     1       7.955   4.147  22.650  0.00  0.00    +0.008 A 
ENDBRANCH   1   7
BRANCH   1  14
ATOM     14  O   UNL     1      10.169   2.568  21.805  0.00  0.00    -0.384 OA
ATOM     15  H   UNL     1       9.702   3.009  21.079  0.00  0.00    +0.211 HD
ENDBRANCH   1  14
BRANCH   4  16
ATOM     16  C   UNL     1       9.597  -1.201  24.562  0.00  0.00    +0.084 C 
BRANCH  16  17
ATOM     17  C   UNL     1       9.443  -2.669  24.156  0.00  0.00    +0.018 C 
BRANCH  17  18
ATOM     18  C   UNL     1       9.034  -3.596  25.317  0.00  0.00    +0.034 C 
BRANCH  18  19
ATOM     19  C   UNL     1       7.522  -3.991  25.343  0.00  0.00    +0.087 C 
ATOM     20  S   UNL     1       6.472  -2.543  25.887  0.00  0.00    -0.138 S 
ATOM     21  C   UNL     1       5.538  -3.353  27.212  0.00  0.00    +0.081 C 
ATOM     22  C   UNL     1       5.618  -4.858  27.099  0.00  0.00    +0.081 C 
ATOM     23  S   UNL     1       7.295  -5.313  26.630  0.00  0.00    -0.138 S 
BRANCH  19  24
ATOM     24  C   UNL     1       7.036  -4.407  23.934  0.00  0.00    -0.021 A 
ATOM     25  C   UNL     1       7.545  -5.589  23.343  0.00  0.00    +0.008 A 
ATOM     26  C   UNL     1       7.188  -5.974  22.050  0.00  0.00    +0.038 A 
ATOM     27  C   UNL     1       6.309  -5.189  21.321  0.00  0.00    +0.123 A 
ATOM     28  F   UNL     1       5.974  -5.548  20.076  0.00  0.00    -0.205 F 
ATOM     29  C   UNL     1       5.779  -4.029  21.865  0.00  0.00    +0.038 A 
ATOM     30  C   UNL     1       6.136  -3.645  23.161  0.00  0.00    +0.008 A 
ENDBRANCH  19  24
ENDBRANCH  18  19
ENDBRANCH  17  18
ENDBRANCH  16  17
ENDBRANCH   4  16
TORSDOF 7
ENDMDL
MODEL 2
REMARK VINA RESULT:      -7.6      2.130      2.705
REMARK  Name = 
REMARK  7 active torsions:
REMARK  status: ('A' for Active; 'I' for Inactive)
REMARK    1  A    between atoms: O_1  and  C_2
REMARK    2  A    between atoms: C_2  and  C_23
REMARK    3  A    between atoms: N_5  and  C_6
REMARK    4  A    between atoms: C_6  and  C_7
REMARK    5  A    between atoms: C_7  and  C_8
REMARK    6  A    between atoms: C_8  and  C_9
REMARK    7  A    between atoms: C_9  and  C_14
REMARK                            x       y       z     vdW  Elec       q    Type
REMARK                         _______ _______ _______ _____ _____    ______ ____
ROOT
ATOM      1  C   UNL     1       8.827   1.390  22.511  0.00  0.00    +0.093 C 
ATOM      2  C   UNL     1       9.865   0.405  21.933  0.00  0.00    +0.055 C 
ATOM      3  C   UNL     1       9.283  -0.990  21.696  0.00  0.00    +0.087 C 
ATOM      4  N   UNL     1       8.590  -1.543  22.866  0.00  0.00    -0.302 NA
ATOM      5  C   UNL     1       7.513  -0.633  23.286  0.00  0.00    +0.087 C 
ATOM      6  C   UNL     1       8.012   0.764  23.658  0.00  0.00    +0.055 C 
ENDROOT
BRANCH   1   7
ATOM      7  C   UNL     1       9.521   2.677  22.973  0.00  0.00    -0.016 A 
ATOM      8  C   UNL     1       8.781   3.752  23.500  0.00  0.00    +0.008 A 
ATOM      9  C   UNL     1       9.411   4.910  23.959  0.00  0.00    +0.020 A 
ATOM     10  C   UNL     1      10.799   5.016  23.894  0.00  0.00    +0.041 A 
ATOM     11 CL   UNL     1      11.581   6.429  24.483  0.00  0.00    -0.084 Cl
ATOM     12  C   UNL     1      11.552   3.977  23.360  0.00  0.00    +0.020 A 
ATOM     13  C   UNL     1      10.919   2.819  22.903  0.00  0.00    +0.008 A 
ENDBRANCH   1   7
BRANCH   1  14
ATOM     14  O   UNL     1       7.907   1.731  21.458  0.00  0.00    -0.384 OA
ATOM     15  H   UNL     1       7.000   1.642  21.793  0.00  0.00    +0.211 HD
ENDBRANCH   1  14
BRANCH   4  16
ATOM     16  C   UNL     1       9.527  -1.919  23.945  0.00  0.00    +0.084 C 
BRANCH  16  17
ATOM     17  C   UNL     1       8.779  -2.219  25.247  0.00  0.00    +0.018 C 
BRANCH  17  18
ATOM     18  C   UNL     1       8.665  -3.723  25.566  0.00  0.00    +0.034 C 
BRANCH  18  19
ATOM     19  C   UNL     1       7.203  -4.267  25.656  0.00  0.00    +0.087 C 
ATOM     20  S   UNL     1       6.012  -2.889  26.078  0.00  0.00    -0.138 S 
ATOM     21  C   UNL     1       5.177  -3.658  27.490  0.00  0.00    +0.081 C 
ATOM     22  C   UNL     1       5.412  -5.151  27.521  0.00  0.00    +0.081 C 
ATOM     23  S   UNL     1       7.124  -5.474  27.068  0.00  0.00    -0.138 S 
BRANCH  19  24
ATOM     24  C   UNL     1       6.752  -4.866  24.303  0.00  0.00    -0.021 A 
ATOM     25  C   UNL     1       7.729  -5.270  23.361  0.00  0.00    +0.008 A 
ATOM     26  C   UNL     1       7.375  -5.756  22.101  0.00  0.00    +0.038 A 
ATOM     27  C   UNL     1       6.036  -5.855  21.757  0.00  0.00    +0.123 A 
ATOM     28  F   UNL     1       5.693  -6.308  20.546  0.00  0.00    -0.205 F 
ATOM     29  C   UNL     1       5.047  -5.480  22.654  0.00  0.00    +0.038 A 
ATOM     30  C   UNL     1       5.402  -4.995  23.916  0.00  0.00    +0.008 A 
ENDBRANCH  19  24
ENDBRANCH  18  19
ENDBRANCH  17  18
ENDBRANCH  16  17
ENDBRANCH   4  16
TORSDOF 7
ENDMDL
MODEL 3
REMARK VINA RESULT:      -7.5      4.609      7.840
REMARK  Name = 
REMARK  7 active torsions:
REMARK  status: ('A' for Active; 'I' for Inactive)
REMARK    1  A    between atoms: O_1  and  C_2
REMARK    2  A    between atoms: C_2  and  C_23
REMARK    3  A    between atoms: N_5  and  C_6
REMARK    4  A    between atoms: C_6  and  C_7
REMARK    5  A    between atoms: C_7  and  C_8
REMARK    6  A    between atoms: C_8  and  C_9
REMARK    7  A    between atoms: C_9  and  C_14
REMARK                            x       y       z     vdW  Elec       q    Type
REMARK                         _______ _______ _______ _____ _____    ______ ____
ROOT
ATOM      1  C   UNL     1       4.733  -6.286  26.383  0.00  0.00    +0.093 C 
ATOM      2  C   UNL     1       6.083  -5.835  25.787  0.00  0.00    +0.055 C 
ATOM      3  C   UNL     1       7.028  -5.258  26.843  0.00  0.00    +0.087 C 
ATOM      4  N   UNL     1       6.415  -4.213  27.672  0.00  0.00    -0.302 NA
ATOM      5  C   UNL     1       5.213  -4.742  28.334  0.00  0.00    +0.087 C 
ATOM      6  C   UNL     1       4.151  -5.240  27.352  0.00  0.00    +0.055 C 
ENDROOT
BRANCH   1   7
ATOM      7  C   UNL     1       3.739  -6.603  25.259  0.00  0.00    -0.016 A 
ATOM      8  C   UNL     1       3.581  -5.733  24.164  0.00  0.00    +0.008 A 
ATOM      9  C   UNL     1       2.708  -6.035  23.118  0.00  0.00    +0.020 A 
ATOM     10  C   UNL     1       1.969  -7.217  23.152  0.00  0.00    +0.041 A 
ATOM     11 CL   UNL     1       0.912  -7.607  21.853  0.00  0.00    -0.084 Cl
ATOM     12  C   UNL     1       2.092  -8.085  24.231  0.00  0.00    +0.020 A 
ATOM     13  C   UNL     1       2.968  -7.779  25.275  0.00  0.00    +0.008 A 
ENDBRANCH   1   7
BRANCH   1  14
ATOM     14  O   UNL     1       4.961  -7.494  27.132  0.00  0.00    -0.384 OA
ATOM     15  H   UNL     1       5.909  -7.570  27.324  0.00  0.00    +0.211 HD
ENDBRANCH   1  14
BRANCH   4  16
ATOM     16  C   UNL     1       6.197  -2.960  26.920  0.00  0.00    +0.084 C 
BRANCH  16  17
ATOM     17  C   UNL     1       7.477  -2.511  26.210  0.00  0.00    +0.018 C 
BRANCH  17  18
ATOM     18  C   UNL     1       7.246  -1.435  25.131  0.00  0.00    +0.034 C 
BRANCH  18  19
ATOM     19  C   UNL     1       7.930  -1.724  23.756  0.00  0.00    +0.087 C 
ATOM     20  S   UNL     1       9.732  -2.161  23.996  0.00  0.00    -0.138 S 
ATOM     21  C   UNL     1      10.466  -0.985  22.829  0.00  0.00    +0.081 C 
ATOM     22  C   UNL     1       9.434  -0.454  21.861  0.00  0.00    +0.081 C 
ATOM     23  S   UNL     1       7.903  -0.156  22.758  0.00  0.00    -0.138 S 
BRANCH  19  24
ATOM     24  C   UNL     1       7.258  -2.923  23.045  0.00  0.00    -0.021 A 
ATOM     25  C   UNL     1       7.879  -4.195  23.088  0.00  0.00    +0.008 A 
ATOM     26  C   UNL     1       7.347  -5.293  22.409  0.00  0.00    +0.038 A 
ATOM     27  C   UNL     1       6.180  -5.145  21.677  0.00  0.00    +0.123 A 
ATOM     28  F   UNL     1       5.673  -6.192  21.015  0.00  0.00    -0.205 F 
ATOM     29  C   UNL     1       5.534  -3.919  21.617  0.00  0.00    +0.038 A 
ATOM     30  C   UNL     1       6.066  -2.820  22.298  0.00  0.00    +0.008 A 
ENDBRANCH  19  24
ENDBRANCH  18  19
ENDBRANCH  17  18
ENDBRANCH  16  17
ENDBRANCH   4  16
TORSDOF 7
ENDMDL
MODEL 4
REMARK VINA RESULT:      -7.4      1.292      1.790
REMARK  Name = 
REMARK  7 active torsions:
REMARK  status: ('A' for Active; 'I' for Inactive)
REMARK    1  A    between atoms: O_1  and  C_2
REMARK    2  A    between atoms: C_2  and  C_23
REMARK    3  A    between atoms: N_5  and  C_6
REMARK    4  A    between atoms: C_6  and  C_7
REMARK    5  A    between atoms: C_7  and  C_8
REMARK    6  A    between atoms: C_8  and  C_9
REMARK    7  A    between atoms: C_9  and  C_14
REMARK                            x       y       z     vdW  Elec       q    Type
REMARK                         _______ _______ _______ _____ _____    ______ ____
ROOT
ATOM      1  C   UNL     1       9.572   2.764  23.202  0.00  0.00    +0.093 C 
ATOM      2  C   UNL     1       9.807   1.899  24.459  0.00  0.00    +0.055 C 
ATOM      3  C   UNL     1      10.596   0.623  24.155  0.00  0.00    +0.087 C 
ATOM      4  N   UNL     1      10.040  -0.159  23.044  0.00  0.00    -0.302 NA
ATOM      5  C   UNL     1       9.976   0.671  21.831  0.00  0.00    +0.087 C 
ATOM      6  C   UNL     1       9.110   1.921  21.998  0.00  0.00    +0.055 C 
ENDROOT
BRANCH   1   7
ATOM      7  C   UNL     1       8.564   3.878  23.508  0.00  0.00    -0.016 A 
ATOM      8  C   UNL     1       7.542   4.203  22.596  0.00  0.00    +0.008 A 
ATOM      9  C   UNL     1       6.597   5.188  22.888  0.00  0.00    +0.020 A 
ATOM     10  C   UNL     1       6.661   5.873  24.101  0.00  0.00    +0.041 A 
ATOM     11 CL   UNL     1       5.484   7.068  24.475  0.00  0.00    -0.084 Cl
ATOM     12  C   UNL     1       7.671   5.584  25.010  0.00  0.00    +0.020 A 
ATOM     13  C   UNL     1       8.615   4.597  24.716  0.00  0.00    +0.008 A 
ENDBRANCH   1   7
BRANCH   1  14
ATOM     14  O   UNL     1      10.824   3.379  22.847  0.00  0.00    -0.384 OA
ATOM     15  H   UNL     1      10.646   4.239  22.436  0.00  0.00    +0.211 HD
ENDBRANCH   1  14
BRANCH   4  16
ATOM     16  C   UNL     1       8.767  -0.815  23.403  0.00  0.00    +0.084 C 
BRANCH  16  17
ATOM     17  C   UNL     1       8.891  -1.580  24.723  0.00  0.00    +0.018 C 
BRANCH  17  18
ATOM     18  C   UNL     1       7.539  -1.872  25.404  0.00  0.00    +0.034 C 
BRANCH  18  19
ATOM     19  C   UNL     1       7.161  -3.386  25.494  0.00  0.00    +0.087 C 
ATOM     20  S   UNL     1       5.576  -3.612  26.458  0.00  0.00    -0.138 S 
ATOM     21  C   UNL     1       6.145  -4.850  27.653  0.00  0.00    +0.081 C 
ATOM     22  C   UNL     1       7.426  -5.508  27.194  0.00  0.00    +0.081 C 
ATOM     23  S   UNL     1       8.489  -4.253  26.464  0.00  0.00    -0.138 S 
BRANCH  19  24
ATOM     24  C   UNL     1       6.932  -3.983  24.085  0.00  0.00    -0.021 A 
ATOM     25  C   UNL     1       5.981  -3.385  23.223  0.00  0.00    +0.008 A 
ATOM     26  C   UNL     1       5.690  -3.924  21.968  0.00  0.00    +0.038 A 
ATOM     27  C   UNL     1       6.348  -5.068  21.545  0.00  0.00    +0.123 A 
ATOM     28  F   UNL     1       6.063  -5.594  20.348  0.00  0.00    -0.205 F 
ATOM     29  C   UNL     1       7.294  -5.679  22.355  0.00  0.00    +0.038 A 
ATOM     30  C   UNL     1       7.586  -5.138  23.610  0.00  0.00    +0.008 A 
ENDBRANCH  19  24
ENDBRANCH  18  19
ENDBRANCH  17  18
ENDBRANCH  16  17
ENDBRANCH   4  16
TORSDOF 7
ENDMDL
MODEL 5
REMARK VINA RESULT:      -7.4      4.670      8.858
REMARK  Name = 
REMARK  7 active torsions:
REMARK  status: ('A' for Active; 'I' for Inactive)
REMARK    1  A    between atoms: O_1  and  C_2
REMARK    2  A    between atoms: C_2  and  C_23
REMARK    3  A    between atoms: N_5  and  C_6
REMARK    4  A    between atoms: C_6  and  C_7
REMARK    5  A    between atoms: C_7  and  C_8
REMARK    6  A    between atoms: C_8  and  C_9
REMARK    7  A    between atoms: C_9  and  C_14
REMARK                            x       y       z     vdW  Elec       q    Type
REMARK                         _______ _______ _______ _____ _____    ______ ____
ROOT
ATOM      1  C   UNL     1       7.867  -4.471  24.507  0.00  0.00    +0.093 C 
ATOM      2  C   UNL     1       6.968  -3.829  23.429  0.00  0.00    +0.055 C 
ATOM      3  C   UNL     1       7.751  -2.930  22.470  0.00  0.00    +0.087 C 
ATOM      4  N   UNL     1       8.591  -1.936  23.151  0.00  0.00    -0.302 NA
ATOM      5  C   UNL     1       9.531  -2.613  24.057  0.00  0.00    +0.087 C 
ATOM      6  C   UNL     1       8.837  -3.451  25.133  0.00  0.00    +0.055 C 
ENDROOT
BRANCH   1   7
ATOM      7  C   UNL     1       7.005  -5.137  25.585  0.00  0.00    -0.016 A 
ATOM      8  C   UNL     1       7.347  -5.046  26.948  0.00  0.00    +0.008 A 
ATOM      9  C   UNL     1       6.544  -5.616  27.936  0.00  0.00    +0.020 A 
ATOM     10  C   UNL     1       5.380  -6.296  27.578  0.00  0.00    +0.041 A 
ATOM     11 CL   UNL     1       4.374  -6.977  28.794  0.00  0.00    -0.084 Cl
ATOM     12  C   UNL     1       5.029  -6.417  26.239  0.00  0.00    +0.020 A 
ATOM     13  C   UNL     1       5.835  -5.844  25.252  0.00  0.00    +0.008 A 
ENDBRANCH   1   7
BRANCH   1  14
ATOM     14  O   UNL     1       8.659  -5.492  23.873  0.00  0.00    -0.384 OA
ATOM     15  H   UNL     1       9.596  -5.253  23.945  0.00  0.00    +0.211 HD
ENDBRANCH   1  14
BRANCH   4  16
ATOM     16  C   UNL     1       7.790  -0.869  23.786  0.00  0.00    +0.084 C 
BRANCH  16  17
ATOM     17  C   UNL     1       8.660   0.014  24.685  0.00  0.00    +0.018 C 
BRANCH  17  18
ATOM     18  C   UNL     1       9.553   1.002  23.909  0.00  0.00    +0.034 C 
BRANCH  18  19
ATOM     19  C   UNL     1       8.890   2.383  23.596  0.00  0.00    +0.087 C 
ATOM     20  S   UNL     1       7.536   2.758  24.829  0.00  0.00    -0.138 S 
ATOM     21  C   UNL     1       6.193   3.129  23.670  0.00  0.00    +0.081 C 
ATOM     22  C   UNL     1       6.726   3.412  22.284  0.00  0.00    +0.081 C 
ATOM     23  S   UNL     1       8.064   2.260  21.935  0.00  0.00    -0.138 S 
BRANCH  19  24
ATOM     24  C   UNL     1       9.926   3.527  23.689  0.00  0.00    -0.021 A 
ATOM     25  C   UNL     1       9.521   4.796  24.172  0.00  0.00    +0.008 A 
ATOM     26  C   UNL     1      10.401   5.879  24.215  0.00  0.00    +0.038 A 
ATOM     27  C   UNL     1      11.707   5.716  23.782  0.00  0.00    +0.123 A 
ATOM     28  F   UNL     1      12.550   6.755  23.810  0.00  0.00    -0.205 F 
ATOM     29  C   UNL     1      12.148   4.489  23.311  0.00  0.00    +0.038 A 
ATOM     30  C   UNL     1      11.267   3.404  23.270  0.00  0.00    +0.008 A 
ENDBRANCH  19  24
ENDBRANCH  18  19
ENDBRANCH  17  18
ENDBRANCH  16  17
ENDBRANCH   4  16
TORSDOF 7
ENDMDL
MODEL 6
REMARK VINA RESULT:      -7.4      1.482      2.088
REMARK  Name = 
REMARK  7 active torsions:
REMARK  status: ('A' for Active; 'I' for Inactive)
REMARK    1  A    between atoms: O_1  and  C_2
REMARK    2  A    between atoms: C_2  and  C_23
REMARK    3  A    between atoms: N_5  and  C_6
REMARK    4  A    between atoms: C_6  and  C_7
REMARK    5  A    between atoms: C_7  and  C_8
REMARK    6  A    between atoms: C_8  and  C_9
REMARK    7  A    between atoms: C_9  and  C_14
REMARK                            x       y       z     vdW  Elec       q    Type
REMARK                         _______ _______ _______ _____ _____    ______ ____
ROOT
ATOM      1  C   UNL     1       8.894   1.214  22.512  0.00  0.00    +0.093 C 
ATOM      2  C   UNL     1      10.177   0.830  23.278  0.00  0.00    +0.055 C 
ATOM      3  C   UNL     1      10.418  -0.681  23.302  0.00  0.00    +0.087 C 
ATOM      4  N   UNL     1       9.254  -1.454  23.754  0.00  0.00    -0.302 NA
ATOM      5  C   UNL     1       8.096  -1.160  22.896  0.00  0.00    +0.087 C 
ATOM      6  C   UNL     1       7.701   0.317  22.897  0.00  0.00    +0.055 C 
ENDROOT
BRANCH   1   7
ATOM      7  C   UNL     1       8.562   2.693  22.745  0.00  0.00    -0.016 A 
ATOM      8  C   UNL     1       9.360   3.491  23.587  0.00  0.00    +0.008 A 
ATOM      9  C   UNL     1       9.086   4.848  23.770  0.00  0.00    +0.020 A 
ATOM     10  C   UNL     1       8.003   5.432  23.115  0.00  0.00    +0.041 A 
ATOM     11 CL   UNL     1       7.679   7.108  23.317  0.00  0.00    -0.084 Cl
ATOM     12  C   UNL     1       7.189   4.662  22.293  0.00  0.00    +0.020 A 
ATOM     13  C   UNL     1       7.466   3.305  22.111  0.00  0.00    +0.008 A 
ENDBRANCH   1   7
BRANCH   1  14
ATOM     14  O   UNL     1       9.144   1.027  21.107  0.00  0.00    -0.384 OA
ATOM     15  H   UNL     1       8.993   1.867  20.647  0.00  0.00    +0.211 HD
ENDBRANCH   1  14
BRANCH   4  16
ATOM     16  C   UNL     1       9.001  -1.288  25.200  0.00  0.00    +0.084 C 
BRANCH  16  17
ATOM     17  C   UNL     1       8.569  -2.610  25.841  0.00  0.00    +0.018 C 
BRANCH  17  18
ATOM     18  C   UNL     1       7.115  -2.606  26.354  0.00  0.00    +0.034 C 
BRANCH  18  19
ATOM     19  C   UNL     1       6.301  -3.901  26.033  0.00  0.00    +0.087 C 
ATOM     20  S   UNL     1       4.515  -3.701  26.548  0.00  0.00    -0.138 S 
ATOM     21  C   UNL     1       4.339  -5.202  27.549  0.00  0.00    +0.081 C 
ATOM     22  C   UNL     1       5.446  -6.189  27.257  0.00  0.00    +0.081 C 
ATOM     23  S   UNL     1       6.990  -5.284  27.067  0.00  0.00    -0.138 S 
BRANCH  19  24
ATOM     24  C   UNL     1       6.311  -4.198  24.515  0.00  0.00    -0.021 A 
ATOM     25  C   UNL     1       5.479  -3.443  23.653  0.00  0.00    +0.008 A 
ATOM     26  C   UNL     1       5.403  -3.715  22.286  0.00  0.00    +0.038 A 
ATOM     27  C   UNL     1       6.161  -4.743  21.749  0.00  0.00    +0.123 A 
ATOM     28  F   UNL     1       6.081  -5.015  20.441  0.00  0.00    -0.205 F 
ATOM     29  C   UNL     1       6.997  -5.501  22.556  0.00  0.00    +0.038 A 
ATOM     30  C   UNL     1       7.074  -5.227  23.925  0.00  0.00    +0.008 A 
ENDBRANCH  19  24
ENDBRANCH  18  19
ENDBRANCH  17  18
ENDBRANCH  16  17
ENDBRANCH   4  16
TORSDOF 7
ENDMDL
MODEL 7
REMARK VINA RESULT:      -7.3      1.980      3.188
REMARK  Name = 
REMARK  7 active torsions:
REMARK  status: ('A' for Active; 'I' for Inactive)
REMARK    1  A    between atoms: O_1  and  C_2
REMARK    2  A    between atoms: C_2  and  C_23
REMARK    3  A    between atoms: N_5  and  C_6
REMARK    4  A    between atoms: C_6  and  C_7
REMARK    5  A    between atoms: C_7  and  C_8
REMARK    6  A    between atoms: C_8  and  C_9
REMARK    7  A    between atoms: C_9  and  C_14
REMARK                            x       y       z     vdW  Elec       q    Type
REMARK                         _______ _______ _______ _____ _____    ______ ____
ROOT
ATOM      1  C   UNL     1       9.209   1.894  22.644  0.00  0.00    +0.093 C 
ATOM      2  C   UNL     1       9.759   1.773  24.081  0.00  0.00    +0.055 C 
ATOM      3  C   UNL     1      10.879   0.737  24.197  0.00  0.00    +0.087 C 
ATOM      4  N   UNL     1      10.529  -0.571  23.628  0.00  0.00    -0.302 NA
ATOM      5  C   UNL     1      10.155  -0.417  22.214  0.00  0.00    +0.087 C 
ATOM      6  C   UNL     1       8.961   0.516  22.002  0.00  0.00    +0.055 C 
ENDROOT
BRANCH   1   7
ATOM      7  C   UNL     1       7.929   2.738  22.638  0.00  0.00    -0.016 A 
ATOM      8  C   UNL     1       6.659   2.130  22.640  0.00  0.00    +0.008 A 
ATOM      9  C   UNL     1       5.491   2.893  22.675  0.00  0.00    +0.020 A 
ATOM     10  C   UNL     1       5.572   4.284  22.704  0.00  0.00    +0.041 A 
ATOM     11 CL   UNL     1       4.136   5.227  22.775  0.00  0.00    -0.084 Cl
ATOM     12  C   UNL     1       6.813   4.910  22.684  0.00  0.00    +0.020 A 
ATOM     13  C   UNL     1       7.980   4.143  22.650  0.00  0.00    +0.008 A 
ENDBRANCH   1   7
BRANCH   1  14
ATOM     14  O   UNL     1      10.197   2.574  21.848  0.00  0.00    -0.384 OA
ATOM     15  H   UNL     1       9.827   3.417  21.542  0.00  0.00    +0.211 HD
ENDBRANCH   1  14
BRANCH   4  16
ATOM     16  C   UNL     1       9.533  -1.288  24.450  0.00  0.00    +0.084 C 
BRANCH  16  17
ATOM     17  C   UNL     1       9.303  -2.708  23.925  0.00  0.00    +0.018 C 
BRANCH  17  18
ATOM     18  C   UNL     1       8.630  -3.648  24.946  0.00  0.00    +0.034 C 
BRANCH  18  19
ATOM     19  C   UNL     1       7.209  -4.154  24.537  0.00  0.00    +0.087 C 
ATOM     20  S   UNL     1       7.306  -5.227  23.010  0.00  0.00    -0.138 S 
ATOM     21  C   UNL     1       6.057  -4.393  21.997  0.00  0.00    +0.081 C 
ATOM     22  C   UNL     1       5.168  -3.507  22.840  0.00  0.00    +0.081 C 
ATOM     23  S   UNL     1       6.184  -2.675  24.070  0.00  0.00    -0.138 S 
BRANCH  19  24
ATOM     24  C   UNL     1       6.584  -5.011  25.663  0.00  0.00    -0.021 A 
ATOM     25  C   UNL     1       5.554  -5.931  25.346  0.00  0.00    +0.008 A 
ATOM     26  C   UNL     1       4.913  -6.681  26.334  0.00  0.00    +0.038 A 
ATOM     27  C   UNL     1       5.290  -6.532  27.658  0.00  0.00    +0.123 A 
ATOM     28  F   UNL     1       4.670  -7.240  28.610  0.00  0.00    -0.205 F 
ATOM     29  C   UNL     1       6.301  -5.650  28.011  0.00  0.00    +0.038 A 
ATOM     30  C   UNL     1       6.944  -4.901  27.021  0.00  0.00    +0.008 A 
ENDBRANCH  19  24
ENDBRANCH  18  19
ENDBRANCH  17  18
ENDBRANCH  16  17
ENDBRANCH   4  16
TORSDOF 7
ENDMDL
MODEL 8
REMARK VINA RESULT:      -7.2      3.392      4.750
REMARK  Name = 
REMARK  7 active torsions:
REMARK  status: ('A' for Active; 'I' for Inactive)
REMARK    1  A    between atoms: O_1  and  C_2
REMARK    2  A    between atoms: C_2  and  C_23
REMARK    3  A    between atoms: N_5  and  C_6
REMARK    4  A    between atoms: C_6  and  C_7
REMARK    5  A    between atoms: C_7  and  C_8
REMARK    6  A    between atoms: C_8  and  C_9
REMARK    7  A    between atoms: C_9  and  C_14
REMARK                            x       y       z     vdW  Elec       q    Type
REMARK                         _______ _______ _______ _____ _____    ______ ____
ROOT
ATOM      1  C   UNL     1       7.693   3.697  24.680  0.00  0.00    +0.093 C 
ATOM      2  C   UNL     1       7.385   2.313  24.070  0.00  0.00    +0.055 C 
ATOM      3  C   UNL     1       6.126   1.677  24.662  0.00  0.00    +0.087 C 
ATOM      4  N   UNL     1       6.118   1.647  26.130  0.00  0.00    -0.302 NA
ATOM      5  C   UNL     1       6.267   3.011  26.659  0.00  0.00    +0.087 C 
ATOM      6  C   UNL     1       7.562   3.694  26.214  0.00  0.00    +0.055 C 
ENDROOT
BRANCH   1   7
ATOM      7  C   UNL     1       9.090   4.163  24.251  0.00  0.00    -0.016 A 
ATOM      8  C   UNL     1      10.045   3.246  23.773  0.00  0.00    +0.008 A 
ATOM      9  C   UNL     1      11.304   3.670  23.344  0.00  0.00    +0.020 A 
ATOM     10  C   UNL     1      11.633   5.024  23.390  0.00  0.00    +0.041 A 
ATOM     11 CL   UNL     1      13.172   5.554  22.838  0.00  0.00    -0.084 Cl
ATOM     12  C   UNL     1      10.715   5.947  23.876  0.00  0.00    +0.020 A 
ATOM     13  C   UNL     1       9.455   5.520  24.304  0.00  0.00    +0.008 A 
ENDBRANCH   1   7
BRANCH   1  14
ATOM     14  O   UNL     1       6.731   4.633  24.161  0.00  0.00    -0.384 OA
ATOM     15  H   UNL     1       7.187   5.458  23.933  0.00  0.00    +0.211 HD
ENDBRANCH   1  14
BRANCH   4  16
ATOM     16  C   UNL     1       7.086   0.672  26.674  0.00  0.00    +0.084 C 
BRANCH  16  17
ATOM     17  C   UNL     1       6.574  -0.762  26.517  0.00  0.00    +0.018 C 
BRANCH  17  18
ATOM     18  C   UNL     1       7.687  -1.829  26.562  0.00  0.00    +0.034 C 
BRANCH  18  19
ATOM     19  C   UNL     1       7.904  -2.610  25.226  0.00  0.00    +0.087 C 
ATOM     20  S   UNL     1       6.272  -3.214  24.543  0.00  0.00    -0.138 S 
ATOM     21  C   UNL     1       6.690  -4.961  24.311  0.00  0.00    +0.081 C 
ATOM     22  C   UNL     1       8.187  -5.174  24.326  0.00  0.00    +0.081 C 
ATOM     23  S   UNL     1       8.904  -4.130  25.605  0.00  0.00    -0.138 S 
BRANCH  19  24
ATOM     24  C   UNL     1       8.543  -1.700  24.150  0.00  0.00    -0.021 A 
ATOM     25  C   UNL     1       9.814  -1.123  24.393  0.00  0.00    +0.008 A 
ATOM     26  C   UNL     1      10.405  -0.243  23.484  0.00  0.00    +0.038 A 
ATOM     27  C   UNL     1       9.742   0.074  22.310  0.00  0.00    +0.123 A 
ATOM     28  F   UNL     1      10.299   0.927  21.442  0.00  0.00    -0.205 F 
ATOM     29  C   UNL     1       8.500  -0.476  22.028  0.00  0.00    +0.038 A 
ATOM     30  C   UNL     1       7.910  -1.358  22.938  0.00  0.00    +0.008 A 
ENDBRANCH  19  24
ENDBRANCH  18  19
ENDBRANCH  17  18
ENDBRANCH  16  17
ENDBRANCH   4  16
TORSDOF 7
ENDMDL
MODEL 9
REMARK VINA RESULT:      -7.1      3.153      4.208
REMARK  Name = 
REMARK  7 active torsions:
REMARK  status: ('A' for Active; 'I' for Inactive)
REMARK    1  A    between atoms: O_1  and  C_2
REMARK    2  A    between atoms: C_2  and  C_23
REMARK    3  A    between atoms: N_5  and  C_6
REMARK    4  A    between atoms: C_6  and  C_7
REMARK    5  A    between atoms: C_7  and  C_8
REMARK    6  A    between atoms: C_8  and  C_9
REMARK    7  A    between atoms: C_9  and  C_14
REMARK                            x       y       z     vdW  Elec       q    Type
REMARK                         _______ _______ _______ _____ _____    ______ ____
ROOT
ATOM      1  C   UNL     1       9.553   2.401  23.205  0.00  0.00    +0.093 C 
ATOM      2  C   UNL     1       9.890   1.088  23.942  0.00  0.00    +0.055 C 
ATOM      3  C   UNL     1      10.151  -0.075  22.982  0.00  0.00    +0.087 C 
ATOM      4  N   UNL     1       9.092  -0.259  21.982  0.00  0.00    -0.302 NA
ATOM      5  C   UNL     1       8.914   0.979  21.208  0.00  0.00    +0.087 C 
ATOM      6  C   UNL     1       8.534   2.183  22.072  0.00  0.00    +0.055 C 
ENDROOT
BRANCH   1   7
ATOM      7  C   UNL     1       9.046   3.450  24.202  0.00  0.00    -0.016 A 
ATOM      8  C   UNL     1       8.097   3.116  25.188  0.00  0.00    +0.008 A 
ATOM      9  C   UNL     1       7.662   4.056  26.123  0.00  0.00    +0.020 A 
ATOM     10  C   UNL     1       8.166   5.355  26.086  0.00  0.00    +0.041 A 
ATOM     11 CL   UNL     1       7.653   6.509  27.252  0.00  0.00    -0.084 Cl
ATOM     12  C   UNL     1       9.089   5.717  25.111  0.00  0.00    +0.020 A 
ATOM     13  C   UNL     1       9.523   4.773  24.178  0.00  0.00    +0.008 A 
ENDBRANCH   1   7
BRANCH   1  14
ATOM     14  O   UNL     1      10.766   2.899  22.611  0.00  0.00    -0.384 OA
ATOM     15  H   UNL     1      10.834   2.559  21.705  0.00  0.00    +0.211 HD
ENDBRANCH   1  14
BRANCH   4  16
ATOM     16  C   UNL     1       7.849  -0.792  22.576  0.00  0.00    +0.084 C 
BRANCH  16  17
ATOM     17  C   UNL     1       7.759  -2.310  22.401  0.00  0.00    +0.018 C 
BRANCH  17  18
ATOM     18  C   UNL     1       6.821  -2.999  23.412  0.00  0.00    +0.034 C 
BRANCH  18  19
ATOM     19  C   UNL     1       7.446  -3.250  24.823  0.00  0.00    +0.087 C 
ATOM     20  S   UNL     1       9.254  -3.702  24.672  0.00  0.00    -0.138 S 
ATOM     21  C   UNL     1       9.249  -5.224  25.655  0.00  0.00    +0.081 C 
ATOM     22  C   UNL     1       8.012  -5.314  26.521  0.00  0.00    +0.081 C 
ATOM     23  S   UNL     1       6.601  -4.726  25.572  0.00  0.00    -0.138 S 
BRANCH  19  24
ATOM     24  C   UNL     1       7.363  -1.978  25.699  0.00  0.00    -0.021 A 
ATOM     25  C   UNL     1       8.519  -1.524  26.380  0.00  0.00    +0.008 A 
ATOM     26  C   UNL     1       8.480  -0.420  27.233  0.00  0.00    +0.038 A 
ATOM     27  C   UNL     1       7.287   0.259  27.420  0.00  0.00    +0.123 A 
ATOM     28  F   UNL     1       7.243   1.310  28.247  0.00  0.00    -0.205 F 
ATOM     29  C   UNL     1       6.134  -0.145  26.764  0.00  0.00    +0.038 A 
ATOM     30  C   UNL     1       6.173  -1.250  25.909  0.00  0.00    +0.008 A 
ENDBRANCH  19  24
ENDBRANCH  18  19
ENDBRANCH  17  18
ENDBRANCH  16  17
ENDBRANCH   4  16
TORSDOF 7
ENDMDL
