MODEL 1
REMARK VINA RESULT:      -7.4      0.000      0.000
REMARK  Name = 
REMARK  4 active torsions:
REMARK  status: ('A' for Active; 'I' for Inactive)
REMARK    1  A    between atoms: N_1  and  S_2
REMARK    2  A    between atoms: S_2  and  C_5
REMARK    3  A    between atoms: C_8  and  C_11
REMARK    4  A    between atoms: C_14  and  C_16
REMARK                            x       y       z     vdW  Elec       q    Type
REMARK                         _______ _______ _______ _____ _____    ______ ____
ROOT
ATOM      1  C   UNL     1       9.044  -3.307  24.770  0.00  0.00    +0.136 A 
ATOM      2  O   UNL     1       7.723  -3.636  24.765  0.00  0.00    -0.455 OA
ATOM      3  C   UNL     1       7.582  -4.973  25.052  0.00  0.00    +0.130 A 
ATOM      4  C   UNL     1       8.861  -5.486  25.235  0.00  0.00    +0.050 A 
ATOM      5  C   UNL     1       9.786  -4.427  25.064  0.00  0.00    +0.050 A 
ENDROOT
BRANCH   3   6
ATOM      6  C   UNL     1       6.341  -5.661  25.153  0.00  0.00    +0.066 C 
ATOM      7  C   UNL     1       5.734  -5.986  26.304  0.00  0.00    +0.082 C 
ATOM      8  C   UNL     1       4.490  -6.803  26.294  0.00  0.00    +0.258 C 
ATOM      9  O   UNL     1       3.893  -7.171  25.293  0.00  0.00    -0.269 OA
ATOM     10  N   UNL     1       4.141  -7.135  27.569  0.00  0.00    -0.243 N 
ATOM     11  H   UNL     1       3.391  -7.781  27.748  0.00  0.00    +0.159 HD
ATOM     12  C   UNL     1       4.981  -6.769  28.568  0.00  0.00    +0.283 C 
ATOM     13  O   UNL     1       4.930  -7.155  29.723  0.00  0.00    -0.262 OA
ATOM     14  S   UNL     1       6.212  -5.701  27.937  0.00  0.00    -0.026 S 
ENDBRANCH   3   6
BRANCH   1  18
ATOM     15  C   UNL     1       9.796   0.757  23.705  0.00  0.00    +0.105 A 
ATOM     16  C   UNL     1       9.332   0.459  24.986  0.00  0.00    +0.029 A 
ATOM     17  C   UNL     1       9.119  -0.875  25.347  0.00  0.00    +0.013 A 
ATOM     18  C   UNL     1       9.365  -1.919  24.439  0.00  0.00    +0.017 A 
ATOM     19  C   UNL     1       9.886  -1.594  23.174  0.00  0.00    +0.013 A 
ATOM     20  C   UNL     1      10.102  -0.264  22.804  0.00  0.00    +0.029 A 
BRANCH  15  21
ATOM     21  S   UNL     1       9.923   2.438  23.186  0.00  0.00    +0.056 S 
ATOM     22  O   UNL     1       8.658   3.108  23.402  0.00  0.00    -0.153 OA
ATOM     23  O   UNL     1      11.180   2.981  23.647  0.00  0.00    -0.153 OA
BRANCH  21  24
ATOM     24  N   UNL     1      10.055   2.268  21.520  0.00  0.00    -0.204 NA
ATOM     25  H   UNL     1       9.134   2.130  21.105  0.00  0.00    +0.144 HD
ATOM     26  H   UNL     1      10.570   3.059  21.134  0.00  0.00    +0.144 HD
ENDBRANCH  21  24
ENDBRANCH  15  21
ENDBRANCH   1  18
TORSDOF 4
ENDMDL
MODEL 2
REMARK VINA RESULT:      -7.3      2.682      3.557
REMARK  Name = 
REMARK  4 active torsions:
REMARK  status: ('A' for Active; 'I' for Inactive)
REMARK    1  A    between atoms: N_1  and  S_2
REMARK    2  A    between atoms: S_2  and  C_5
REMARK    3  A    between atoms: C_8  and  C_11
REMARK    4  A    between atoms: C_14  and  C_16
REMARK                            x       y       z     vdW  Elec       q    Type
REMARK                         _______ _______ _______ _____ _____    ______ ____
ROOT
ATOM      1  C   UNL     1       9.256  -0.116  23.289  0.00  0.00    +0.136 A 
ATOM      2  O   UNL     1       8.145  -0.901  23.346  0.00  0.00    -0.455 OA
ATOM      3  C   UNL     1       8.519  -2.221  23.421  0.00  0.00    +0.130 A 
ATOM      4  C   UNL     1       9.909  -2.251  23.404  0.00  0.00    +0.050 A 
ATOM      5  C   UNL     1      10.374  -0.915  23.328  0.00  0.00    +0.050 A 
ENDROOT
BRANCH   3   6
ATOM      6  C   UNL     1       7.622  -3.321  23.517  0.00  0.00    +0.066 C 
ATOM      7  C   UNL     1       7.350  -3.996  24.644  0.00  0.00    +0.082 C 
ATOM      8  C   UNL     1       6.479  -5.201  24.608  0.00  0.00    +0.258 C 
ATOM      9  O   UNL     1       5.898  -5.625  23.620  0.00  0.00    -0.269 OA
ATOM     10  N   UNL     1       6.466  -5.803  25.831  0.00  0.00    -0.243 N 
ATOM     11  H   UNL     1       6.023  -6.696  25.962  0.00  0.00    +0.159 HD
ATOM     12  C   UNL     1       7.274  -5.292  26.793  0.00  0.00    +0.283 C 
ATOM     13  O   UNL     1       7.538  -5.820  27.860  0.00  0.00    -0.262 OA
ATOM     14  S   UNL     1       7.948  -3.776  26.248  0.00  0.00    -0.026 S 
ENDBRANCH   3   6
BRANCH   1  18
ATOM     15  C   UNL     1       8.419   4.062  23.056  0.00  0.00    +0.105 A 
ATOM     16  C   UNL     1       9.450   3.616  23.882  0.00  0.00    +0.029 A 
ATOM     17  C   UNL     1       9.748   2.250  23.932  0.00  0.00    +0.013 A 
ATOM     18  C   UNL     1       9.024   1.323  23.163  0.00  0.00    +0.017 A 
ATOM     19  C   UNL     1       8.029   1.807  22.296  0.00  0.00    +0.013 A 
ATOM     20  C   UNL     1       7.723   3.170  22.240  0.00  0.00    +0.029 A 
BRANCH  15  21
ATOM     21  S   UNL     1       7.932   5.758  23.098  0.00  0.00    +0.056 S 
ATOM     22  O   UNL     1       6.674   5.882  23.802  0.00  0.00    -0.153 OA
ATOM     23  O   UNL     1       9.083   6.572  23.413  0.00  0.00    -0.153 OA
BRANCH  21  24
ATOM     24  N   UNL     1       7.568   6.045  21.485  0.00  0.00    -0.204 NA
ATOM     25  H   UNL     1       7.058   5.255  21.091  0.00  0.00    +0.144 HD
ATOM     26  H   UNL     1       7.083   6.938  21.396  0.00  0.00    +0.144 HD
ENDBRANCH  21  24
ENDBRANCH  15  21
ENDBRANCH   1  18
TORSDOF 4
ENDMDL
MODEL 3
REMARK VINA RESULT:      -7.1      3.146      4.474
REMARK  Name = 
REMARK  4 active torsions:
REMARK  status: ('A' for Active; 'I' for Inactive)
REMARK    1  A    between atoms: N_1  and  S_2
REMARK    2  A    between atoms: S_2  and  C_5
REMARK    3  A    between atoms: C_8  and  C_11
REMARK    4  A    between atoms: C_14  and  C_16
REMARK                            x       y       z     vdW  Elec       q    Type
REMARK                         _______ _______ _______ _____ _____    ______ ____
ROOT
ATOM      1  C   UNL     1       9.236   0.180  23.034  0.00  0.00    +0.136 A 
ATOM      2  O   UNL     1       8.536  -0.710  23.791  0.00  0.00    -0.455 OA
ATOM      3  C   UNL     1       9.031  -1.976  23.589  0.00  0.00    +0.130 A 
ATOM      4  C   UNL     1      10.069  -1.863  22.671  0.00  0.00    +0.050 A 
ATOM      5  C   UNL     1      10.203  -0.495  22.327  0.00  0.00    +0.050 A 
ENDROOT
BRANCH   3   6
ATOM      6  C   UNL     1       8.555  -3.152  24.232  0.00  0.00    +0.066 C 
ATOM      7  C   UNL     1       7.517  -3.891  23.812  0.00  0.00    +0.082 C 
ATOM      8  C   UNL     1       7.037  -5.042  24.623  0.00  0.00    +0.258 C 
ATOM      9  O   UNL     1       7.557  -5.450  25.651  0.00  0.00    -0.269 OA
ATOM     10  N   UNL     1       5.891  -5.546  24.084  0.00  0.00    -0.243 N 
ATOM     11  H   UNL     1       5.361  -6.253  24.565  0.00  0.00    +0.159 HD
ATOM     12  C   UNL     1       5.358  -4.897  23.019  0.00  0.00    +0.283 C 
ATOM     13  O   UNL     1       4.249  -5.084  22.550  0.00  0.00    -0.262 OA
ATOM     14  S   UNL     1       6.481  -3.687  22.449  0.00  0.00    -0.026 S 
ENDBRANCH   3   6
BRANCH   1  18
ATOM     15  C   UNL     1       8.135   4.301  23.137  0.00  0.00    +0.105 A 
ATOM     16  C   UNL     1       7.531   3.454  22.208  0.00  0.00    +0.029 A 
ATOM     17  C   UNL     1       7.865   2.096  22.198  0.00  0.00    +0.013 A 
ATOM     18  C   UNL     1       8.800   1.574  23.108  0.00  0.00    +0.017 A 
ATOM     19  C   UNL     1       9.351   2.439  24.069  0.00  0.00    +0.013 A 
ATOM     20  C   UNL     1       9.023   3.798  24.088  0.00  0.00    +0.029 A 
BRANCH  15  21
ATOM     21  S   UNL     1       7.839   6.039  23.063  0.00  0.00    +0.056 S 
ATOM     22  O   UNL     1       6.615   6.352  23.769  0.00  0.00    -0.153 OA
ATOM     23  O   UNL     1       9.079   6.739  23.307  0.00  0.00    -0.153 OA
BRANCH  21  24
ATOM     24  N   UNL     1       7.479   6.252  21.436  0.00  0.00    -0.204 NA
ATOM     25  H   UNL     1       6.908   7.086  21.307  0.00  0.00    +0.144 HD
ATOM     26  H   UNL     1       8.341   6.251  20.891  0.00  0.00    +0.144 HD
ENDBRANCH  21  24
ENDBRANCH  15  21
ENDBRANCH   1  18
TORSDOF 4
ENDMDL
MODEL 4
REMARK VINA RESULT:      -7.1      2.902      9.524
REMARK  Name = 
REMARK  4 active torsions:
REMARK  status: ('A' for Active; 'I' for Inactive)
REMARK    1  A    between atoms: N_1  and  S_2
REMARK    2  A    between atoms: S_2  and  C_5
REMARK    3  A    between atoms: C_8  and  C_11
REMARK    4  A    between atoms: C_14  and  C_16
REMARK                            x       y       z     vdW  Elec       q    Type
REMARK                         _______ _______ _______ _____ _____    ______ ____
ROOT
ATOM      1  C   UNL     1       9.291  -0.218  23.321  0.00  0.00    +0.136 A 
ATOM      2  O   UNL     1       9.776   0.857  24.000  0.00  0.00    -0.455 OA
ATOM      3  C   UNL     1      10.178   1.822  23.108  0.00  0.00    +0.130 A 
ATOM      4  C   UNL     1       9.938   1.321  21.833  0.00  0.00    +0.050 A 
ATOM      5  C   UNL     1       9.367   0.031  21.970  0.00  0.00    +0.050 A 
ENDROOT
BRANCH   3   6
ATOM      6  C   UNL     1      10.717   3.090  23.461  0.00  0.00    +0.066 C 
ATOM      7  C   UNL     1      10.005   4.220  23.585  0.00  0.00    +0.082 C 
ATOM      8  C   UNL     1      10.688   5.515  23.853  0.00  0.00    +0.258 C 
ATOM      9  O   UNL     1      11.886   5.654  24.050  0.00  0.00    -0.269 OA
ATOM     10  N   UNL     1       9.790   6.537  23.788  0.00  0.00    -0.243 N 
ATOM     11  H   UNL     1      10.094   7.495  23.828  0.00  0.00    +0.159 HD
ATOM     12  C   UNL     1       8.520   6.238  23.420  0.00  0.00    +0.283 C 
ATOM     13  O   UNL     1       7.655   7.042  23.117  0.00  0.00    -0.262 OA
ATOM     14  S   UNL     1       8.316   4.504  23.376  0.00  0.00    -0.026 S 
ENDBRANCH   3   6
BRANCH   1  18
ATOM     15  C   UNL     1       7.829  -3.470  25.666  0.00  0.00    +0.105 A 
ATOM     16  C   UNL     1       8.167  -3.686  24.331  0.00  0.00    +0.029 A 
ATOM     17  C   UNL     1       8.679  -2.630  23.571  0.00  0.00    +0.013 A 
ATOM     18  C   UNL     1       8.858  -1.354  24.134  0.00  0.00    +0.017 A 
ATOM     19  C   UNL     1       8.563  -1.179  25.497  0.00  0.00    +0.013 A 
ATOM     20  C   UNL     1       8.050  -2.228  26.264  0.00  0.00    +0.029 A 
BRANCH  15  21
ATOM     21  S   UNL     1       7.041  -4.749  26.591  0.00  0.00    +0.056 S 
ATOM     22  O   UNL     1       6.472  -4.191  27.800  0.00  0.00    -0.153 OA
ATOM     23  O   UNL     1       6.283  -5.585  25.689  0.00  0.00    -0.153 OA
BRANCH  21  24
ATOM     24  N   UNL     1       8.357  -5.659  27.099  0.00  0.00    -0.204 NA
ATOM     25  H   UNL     1       9.227  -5.170  26.892  0.00  0.00    +0.144 HD
ATOM     26  H   UNL     1       8.244  -5.907  28.082  0.00  0.00    +0.144 HD
ENDBRANCH  21  24
ENDBRANCH  15  21
ENDBRANCH   1  18
TORSDOF 4
ENDMDL
MODEL 5
REMARK VINA RESULT:      -7.1      3.033      3.986
REMARK  Name = 
REMARK  4 active torsions:
REMARK  status: ('A' for Active; 'I' for Inactive)
REMARK    1  A    between atoms: N_1  and  S_2
REMARK    2  A    between atoms: S_2  and  C_5
REMARK    3  A    between atoms: C_8  and  C_11
REMARK    4  A    between atoms: C_14  and  C_16
REMARK                            x       y       z     vdW  Elec       q    Type
REMARK                         _______ _______ _______ _____ _____    ______ ____
ROOT
ATOM      1  C   UNL     1       8.779  -0.288  23.364  0.00  0.00    +0.136 A 
ATOM      2  O   UNL     1       7.956  -1.019  22.563  0.00  0.00    -0.455 OA
ATOM      3  C   UNL     1       8.189  -2.359  22.764  0.00  0.00    +0.130 A 
ATOM      4  C   UNL     1       9.195  -2.457  23.718  0.00  0.00    +0.050 A 
ATOM      5  C   UNL     1       9.562  -1.144  24.103  0.00  0.00    +0.050 A 
ENDROOT
BRANCH   3   6
ATOM      6  C   UNL     1       7.496  -3.416  22.111  0.00  0.00    +0.066 C 
ATOM      7  C   UNL     1       6.635  -4.254  22.708  0.00  0.00    +0.082 C 
ATOM      8  C   UNL     1       6.049  -5.394  21.953  0.00  0.00    +0.258 C 
ATOM      9  O   UNL     1       6.226  -5.622  20.765  0.00  0.00    -0.269 OA
ATOM     10  N   UNL     1       5.329  -6.189  22.795  0.00  0.00    -0.243 N 
ATOM     11  H   UNL     1       4.958  -7.070  22.482  0.00  0.00    +0.159 HD
ATOM     12  C   UNL     1       5.341  -5.882  24.115  0.00  0.00    +0.283 C 
ATOM     13  O   UNL     1       4.930  -6.590  25.018  0.00  0.00    -0.262 OA
ATOM     14  S   UNL     1       6.108  -4.330  24.349  0.00  0.00    -0.026 S 
ENDBRANCH   3   6
BRANCH   1  18
ATOM     15  C   UNL     1       8.323   3.947  23.115  0.00  0.00    +0.105 A 
ATOM     16  C   UNL     1       9.248   3.409  24.010  0.00  0.00    +0.029 A 
ATOM     17  C   UNL     1       9.423   2.024  24.067  0.00  0.00    +0.013 A 
ATOM     18  C   UNL     1       8.681   1.165  23.237  0.00  0.00    +0.017 A 
ATOM     19  C   UNL     1       7.798   1.737  22.304  0.00  0.00    +0.013 A 
ATOM     20  C   UNL     1       7.616   3.121  22.240  0.00  0.00    +0.029 A 
BRANCH  15  21
ATOM     21  S   UNL     1       7.981   5.678  23.139  0.00  0.00    +0.056 S 
ATOM     22  O   UNL     1       6.779   5.923  23.907  0.00  0.00    -0.153 OA
ATOM     23  O   UNL     1       9.212   6.399  23.370  0.00  0.00    -0.153 OA
BRANCH  21  24
ATOM     24  N   UNL     1       7.551   5.960  21.541  0.00  0.00    -0.204 NA
ATOM     25  H   UNL     1       7.901   6.867  21.235  0.00  0.00    +0.144 HD
ATOM     26  H   UNL     1       7.856   5.179  20.960  0.00  0.00    +0.144 HD
ENDBRANCH  21  24
ENDBRANCH  15  21
ENDBRANCH   1  18
TORSDOF 4
ENDMDL
MODEL 6
REMARK VINA RESULT:      -7.0      2.187      8.946
REMARK  Name = 
REMARK  4 active torsions:
REMARK  status: ('A' for Active; 'I' for Inactive)
REMARK    1  A    between atoms: N_1  and  S_2
REMARK    2  A    between atoms: S_2  and  C_5
REMARK    3  A    between atoms: C_8  and  C_11
REMARK    4  A    between atoms: C_14  and  C_16
REMARK                            x       y       z     vdW  Elec       q    Type
REMARK                         _______ _______ _______ _____ _____    ______ ____
ROOT
ATOM      1  C   UNL     1       8.868  -1.881  23.267  0.00  0.00    +0.136 A 
ATOM      2  O   UNL     1       9.384  -0.760  23.843  0.00  0.00    -0.455 OA
ATOM      3  C   UNL     1       9.883   0.070  22.869  0.00  0.00    +0.130 A 
ATOM      4  C   UNL     1       9.673  -0.564  21.649  0.00  0.00    +0.050 A 
ATOM      5  C   UNL     1       9.021  -1.796  21.903  0.00  0.00    +0.050 A 
ENDROOT
BRANCH   3   6
ATOM      6  C   UNL     1      10.479   1.340  23.103  0.00  0.00    +0.066 C 
ATOM      7  C   UNL     1       9.803   2.476  23.330  0.00  0.00    +0.082 C 
ATOM      8  C   UNL     1      10.527   3.771  23.454  0.00  0.00    +0.258 C 
ATOM      9  O   UNL     1      11.741   3.906  23.438  0.00  0.00    -0.269 OA
ATOM     10  N   UNL     1       9.634   4.797  23.530  0.00  0.00    -0.243 N 
ATOM     11  H   UNL     1       9.944   5.754  23.502  0.00  0.00    +0.159 HD
ATOM     12  C   UNL     1       8.318   4.500  23.394  0.00  0.00    +0.283 C 
ATOM     13  O   UNL     1       7.417   5.304  23.233  0.00  0.00    -0.262 OA
ATOM     14  S   UNL     1       8.105   2.766  23.414  0.00  0.00    -0.026 S 
ENDBRANCH   3   6
BRANCH   1  18
ATOM     15  C   UNL     1       7.155  -4.683  25.991  0.00  0.00    +0.105 A 
ATOM     16  C   UNL     1       6.842  -4.768  24.635  0.00  0.00    +0.029 A 
ATOM     17  C   UNL     1       7.430  -3.872  23.737  0.00  0.00    +0.013 A 
ATOM     18  C   UNL     1       8.331  -2.889  24.181  0.00  0.00    +0.017 A 
ATOM     19  C   UNL     1       8.672  -2.863  25.544  0.00  0.00    +0.013 A 
ATOM     20  C   UNL     1       8.089  -3.754  26.450  0.00  0.00    +0.029 A 
BRANCH  15  21
ATOM     21  S   UNL     1       6.306  -5.703  27.154  0.00  0.00    +0.056 S 
ATOM     22  O   UNL     1       5.511  -6.684  26.447  0.00  0.00    -0.153 OA
ATOM     23  O   UNL     1       7.215  -6.060  28.220  0.00  0.00    -0.153 OA
BRANCH  21  24
ATOM     24  N   UNL     1       5.199  -4.623  27.808  0.00  0.00    -0.204 NA
ATOM     25  H   UNL     1       4.716  -4.119  27.065  0.00  0.00    +0.144 HD
ATOM     26  H   UNL     1       4.577  -5.115  28.449  0.00  0.00    +0.144 HD
ENDBRANCH  21  24
ENDBRANCH  15  21
ENDBRANCH   1  18
TORSDOF 4
ENDMDL
MODEL 7
REMARK VINA RESULT:      -7.0      2.281      3.397
REMARK  Name = 
REMARK  4 active torsions:
REMARK  status: ('A' for Active; 'I' for Inactive)
REMARK    1  A    between atoms: N_1  and  S_2
REMARK    2  A    between atoms: S_2  and  C_5
REMARK    3  A    between atoms: C_8  and  C_11
REMARK    4  A    between atoms: C_14  and  C_16
REMARK                            x       y       z     vdW  Elec       q    Type
REMARK                         _______ _______ _______ _____ _____    ______ ____
ROOT
ATOM      1  C   UNL     1       9.540  -0.640  24.183  0.00  0.00    +0.136 A 
ATOM      2  O   UNL     1       8.842  -1.181  25.220  0.00  0.00    -0.455 OA
ATOM      3  C   UNL     1       8.927  -2.551  25.166  0.00  0.00    +0.130 A 
ATOM      4  C   UNL     1       9.699  -2.867  24.054  0.00  0.00    +0.050 A 
ATOM      5  C   UNL     1      10.094  -1.654  23.437  0.00  0.00    +0.050 A 
ENDROOT
BRANCH   3   6
ATOM      6  C   UNL     1       8.336  -3.445  26.103  0.00  0.00    +0.066 C 
ATOM      7  C   UNL     1       7.499  -4.444  25.788  0.00  0.00    +0.082 C 
ATOM      8  C   UNL     1       6.853  -5.250  26.860  0.00  0.00    +0.258 C 
ATOM      9  O   UNL     1       7.068  -5.136  28.057  0.00  0.00    -0.269 OA
ATOM     10  N   UNL     1       5.937  -6.100  26.315  0.00  0.00    -0.243 N 
ATOM     11  H   UNL     1       5.321  -6.639  26.900  0.00  0.00    +0.159 HD
ATOM     12  C   UNL     1       5.710  -6.011  24.981  0.00  0.00    +0.283 C 
ATOM     13  O   UNL     1       4.795  -6.541  24.375  0.00  0.00    -0.262 OA
ATOM     14  S   UNL     1       6.897  -4.955  24.254  0.00  0.00    -0.026 S 
ENDBRANCH   3   6
BRANCH   1  18
ATOM     15  C   UNL     1       9.566   3.625  24.052  0.00  0.00    +0.105 A 
ATOM     16  C   UNL     1      10.493   2.911  23.293  0.00  0.00    +0.029 A 
ATOM     17  C   UNL     1      10.462   1.513  23.308  0.00  0.00    +0.013 A 
ATOM     18  C   UNL     1       9.512   0.818  24.076  0.00  0.00    +0.017 A 
ATOM     19  C   UNL     1       8.554   1.563  24.787  0.00  0.00    +0.013 A 
ATOM     20  C   UNL     1       8.577   2.960  24.778  0.00  0.00    +0.029 A 
BRANCH  15  21
ATOM     21  S   UNL     1       9.689   5.382  24.163  0.00  0.00    +0.056 S 
ATOM     22  O   UNL     1       8.947   5.846  25.316  0.00  0.00    -0.153 OA
ATOM     23  O   UNL     1      11.055   5.776  23.906  0.00  0.00    -0.153 OA
BRANCH  21  24
ATOM     24  N   UNL     1       8.789   5.869  22.832  0.00  0.00    -0.204 NA
ATOM     25  H   UNL     1       8.301   5.072  22.424  0.00  0.00    +0.144 HD
ATOM     26  H   UNL     1       8.178   6.641  23.094  0.00  0.00    +0.144 HD
ENDBRANCH  21  24
ENDBRANCH  15  21
ENDBRANCH   1  18
TORSDOF 4
ENDMDL
MODEL 8
REMARK VINA RESULT:      -6.9      2.768      8.757
REMARK  Name = 
REMARK  4 active torsions:
REMARK  status: ('A' for Active; 'I' for Inactive)
REMARK    1  A    between atoms: N_1  and  S_2
REMARK    2  A    between atoms: S_2  and  C_5
REMARK    3  A    between atoms: C_8  and  C_11
REMARK    4  A    between atoms: C_14  and  C_16
REMARK                            x       y       z     vdW  Elec       q    Type
REMARK                         _______ _______ _______ _____ _____    ______ ____
ROOT
ATOM      1  C   UNL     1       8.458  -1.102  22.825  0.00  0.00    +0.136 A 
ATOM      2  O   UNL     1       7.869   0.112  23.009  0.00  0.00    -0.455 OA
ATOM      3  C   UNL     1       8.434   1.031  22.159  0.00  0.00    +0.130 A 
ATOM      4  C   UNL     1       9.411   0.363  21.429  0.00  0.00    +0.050 A 
ATOM      5  C   UNL     1       9.418  -0.991  21.847  0.00  0.00    +0.050 A 
ENDROOT
BRANCH   3   6
ATOM      6  C   UNL     1       8.052   2.398  22.060  0.00  0.00    +0.066 C 
ATOM      7  C   UNL     1       8.263   3.325  23.007  0.00  0.00    +0.082 C 
ATOM      8  C   UNL     1       7.723   4.702  22.845  0.00  0.00    +0.258 C 
ATOM      9  O   UNL     1       7.135   5.120  21.858  0.00  0.00    -0.269 OA
ATOM     10  N   UNL     1       7.928   5.420  23.985  0.00  0.00    -0.243 N 
ATOM     11  H   UNL     1       7.526   6.335  24.099  0.00  0.00    +0.159 HD
ATOM     12  C   UNL     1       8.471   4.774  25.047  0.00  0.00    +0.283 C 
ATOM     13  O   UNL     1       8.532   5.199  26.188  0.00  0.00    -0.262 OA
ATOM     14  S   UNL     1       9.017   3.191  24.552  0.00  0.00    -0.026 S 
ENDBRANCH   3   6
BRANCH   1  18
ATOM     15  C   UNL     1       7.116  -4.130  25.516  0.00  0.00    +0.105 A 
ATOM     16  C   UNL     1       6.181  -3.413  24.770  0.00  0.00    +0.029 A 
ATOM     17  C   UNL     1       6.622  -2.445  23.862  0.00  0.00    +0.013 A 
ATOM     18  C   UNL     1       7.992  -2.184  23.691  0.00  0.00    +0.017 A 
ATOM     19  C   UNL     1       8.915  -2.961  24.414  0.00  0.00    +0.013 A 
ATOM     20  C   UNL     1       8.484  -3.930  25.324  0.00  0.00    +0.029 A 
BRANCH  15  21
ATOM     21  S   UNL     1       6.571  -5.243  26.772  0.00  0.00    +0.056 S 
ATOM     22  O   UNL     1       5.975  -4.493  27.856  0.00  0.00    -0.153 OA
ATOM     23  O   UNL     1       5.914  -6.370  26.151  0.00  0.00    -0.153 OA
BRANCH  21  24
ATOM     24  N   UNL     1       8.031  -5.811  27.376  0.00  0.00    -0.204 NA
ATOM     25  H   UNL     1       7.993  -6.822  27.500  0.00  0.00    +0.144 HD
ATOM     26  H   UNL     1       8.796  -5.494  26.781  0.00  0.00    +0.144 HD
ENDBRANCH  21  24
ENDBRANCH  15  21
ENDBRANCH   1  18
TORSDOF 4
ENDMDL
MODEL 9
REMARK VINA RESULT:      -6.8      3.828      9.385
REMARK  Name = 
REMARK  4 active torsions:
REMARK  status: ('A' for Active; 'I' for Inactive)
REMARK    1  A    between atoms: N_1  and  S_2
REMARK    2  A    between atoms: S_2  and  C_5
REMARK    3  A    between atoms: C_8  and  C_11
REMARK    4  A    between atoms: C_14  and  C_16
REMARK                            x       y       z     vdW  Elec       q    Type
REMARK                         _______ _______ _______ _____ _____    ______ ____
ROOT
ATOM      1  C   UNL     1       8.817  -0.712  23.992  0.00  0.00    +0.136 A 
ATOM      2  O   UNL     1       8.234   0.491  23.730  0.00  0.00    -0.455 OA
ATOM      3  C   UNL     1       9.044   1.503  24.184  0.00  0.00    +0.130 A 
ATOM      4  C   UNL     1      10.163   0.904  24.752  0.00  0.00    +0.050 A 
ATOM      5  C   UNL     1      10.022  -0.499  24.621  0.00  0.00    +0.050 A 
ENDROOT
BRANCH   3   6
ATOM      6  C   UNL     1       8.763   2.893  24.061  0.00  0.00    +0.066 C 
ATOM      7  C   UNL     1       9.660   3.831  23.721  0.00  0.00    +0.082 C 
ATOM      8  C   UNL     1       9.283   5.270  23.730  0.00  0.00    +0.258 C 
ATOM      9  O   UNL     1       8.165   5.707  23.959  0.00  0.00    -0.269 OA
ATOM     10  N   UNL     1      10.383   6.041  23.500  0.00  0.00    -0.243 N 
ATOM     11  H   UNL     1      10.339   7.042  23.585  0.00  0.00    +0.159 HD
ATOM     12  C   UNL     1      11.582   5.415  23.401  0.00  0.00    +0.283 C 
ATOM     13  O   UNL     1      12.674   5.956  23.403  0.00  0.00    -0.262 OA
ATOM     14  S   UNL     1      11.337   3.686  23.341  0.00  0.00    -0.026 S 
ENDBRANCH   3   6
BRANCH   1  18
ATOM     15  C   UNL     1       6.680  -4.159  22.667  0.00  0.00    +0.105 A 
ATOM     16  C   UNL     1       7.846  -4.322  23.414  0.00  0.00    +0.029 A 
ATOM     17  C   UNL     1       8.528  -3.193  23.878  0.00  0.00    +0.013 A 
ATOM     18  C   UNL     1       8.055  -1.898  23.603  0.00  0.00    +0.017 A 
ATOM     19  C   UNL     1       6.847  -1.764  22.898  0.00  0.00    +0.013 A 
ATOM     20  C   UNL     1       6.158  -2.887  22.429  0.00  0.00    +0.029 A 
BRANCH  15  21
ATOM     21  S   UNL     1       5.894  -5.565  21.947  0.00  0.00    +0.056 S 
ATOM     22  O   UNL     1       6.747  -6.725  22.096  0.00  0.00    -0.153 OA
ATOM     23  O   UNL     1       4.499  -5.571  22.323  0.00  0.00    -0.153 OA
BRANCH  21  24
ATOM     24  N   UNL     1       5.949  -5.183  20.312  0.00  0.00    -0.204 NA
ATOM     25  H   UNL     1       6.907  -4.981  20.028  0.00  0.00    +0.144 HD
ATOM     26  H   UNL     1       5.503  -5.923  19.771  0.00  0.00    +0.144 HD
ENDBRANCH  21  24
ENDBRANCH  15  21
ENDBRANCH   1  18
TORSDOF 4
ENDMDL
