MODEL 1
REMARK VINA RESULT:      -4.6      0.000      0.000
REMARK  Name = 
REMARK  6 active torsions:
REMARK  status: ('A' for Active; 'I' for Inactive)
REMARK    1  A    between atoms: N_1  and  C_2
REMARK    2  A    between atoms: C_4  and  C_6
REMARK    3  A    between atoms: C_6  and  O_7
REMARK    4  A    between atoms: C_9  and  O_11
REMARK    5  A    between atoms: C_12  and  O_14
REMARK    6  A    between atoms: C_15  and  O_17
REMARK                            x       y       z     vdW  Elec       q    Type
REMARK                         _______ _______ _______ _____ _____    ______ ____
ROOT
ATOM      1  C   UNL     1       9.555   1.324  22.614  0.00  0.00    +0.114 C 
ATOM      2  C   UNL     1      10.073  -0.136  22.514  0.00  0.00    +0.167 C 
ATOM      3  C   UNL     1       9.504  -1.001  23.643  0.00  0.00    +0.200 C 
ATOM      4  C   UNL     1       9.702  -0.301  24.994  0.00  0.00    +0.279 C 
ATOM      5  O   UNL     1       9.146   1.004  25.005  0.00  0.00    -0.342 OA
ATOM      6  C   UNL     1       9.786   1.867  24.042  0.00  0.00    +0.166 C 
ENDROOT
BRANCH   1   7
ATOM      7  N   UNL     1      10.138   2.124  21.524  0.00  0.00    -0.323 NA
ATOM      8  H   UNL     1       9.656   1.967  20.640  0.00  0.00    +0.119 HD
ATOM      9  H   UNL     1      10.050   3.124  21.724  0.00  0.00    +0.119 HD
ENDBRANCH   1   7
BRANCH   2  10
ATOM     10  O   UNL     1       9.703  -0.715  21.251  0.00  0.00    -0.387 OA
ATOM     11  H   UNL     1      10.508  -0.765  20.704  0.00  0.00    +0.210 HD
ENDBRANCH   2  10
BRANCH   3  12
ATOM     12  O   UNL     1      10.141  -2.287  23.666  0.00  0.00    -0.384 OA
ATOM     13  H   UNL     1      11.072  -2.131  23.912  0.00  0.00    +0.210 HD
ENDBRANCH   3  12
BRANCH   4  14
ATOM     14  O   UNL     1       9.058  -1.055  26.014  0.00  0.00    -0.365 OA
ATOM     15  H   UNL     1       9.644  -1.813  26.186  0.00  0.00    +0.213 HD
ENDBRANCH   4  14
BRANCH   6  16
ATOM     16  C   UNL     1       9.167   3.262  24.250  0.00  0.00    +0.189 C 
BRANCH  16  17
ATOM     17  O   UNL     1       9.806   4.205  23.396  0.00  0.00    -0.392 OA
ATOM     18  H   UNL     1      10.616   4.488  23.866  0.00  0.00    +0.210 HD
ENDBRANCH  16  17
ENDBRANCH   6  16
TORSDOF 6
ENDMDL
MODEL 2
REMARK VINA RESULT:      -4.6      6.146      7.715
REMARK  Name = 
REMARK  6 active torsions:
REMARK  status: ('A' for Active; 'I' for Inactive)
REMARK    1  A    between atoms: N_1  and  C_2
REMARK    2  A    between atoms: C_4  and  C_6
REMARK    3  A    between atoms: C_6  and  O_7
REMARK    4  A    between atoms: C_9  and  O_11
REMARK    5  A    between atoms: C_12  and  O_14
REMARK    6  A    between atoms: C_15  and  O_17
REMARK                            x       y       z     vdW  Elec       q    Type
REMARK                         _______ _______ _______ _____ _____    ______ ____
ROOT
ATOM      1  C   UNL     1       6.622  -5.372  24.327  0.00  0.00    +0.114 C 
ATOM      2  C   UNL     1       7.841  -4.689  25.001  0.00  0.00    +0.167 C 
ATOM      3  C   UNL     1       8.231  -5.409  26.296  0.00  0.00    +0.200 C 
ATOM      4  C   UNL     1       6.992  -5.613  27.179  0.00  0.00    +0.279 C 
ATOM      5  O   UNL     1       5.955  -6.295  26.493  0.00  0.00    -0.342 OA
ATOM      6  C   UNL     1       5.481  -5.545  25.355  0.00  0.00    +0.166 C 
ENDROOT
BRANCH   1   7
ATOM      7  N   UNL     1       6.270  -4.641  23.098  0.00  0.00    -0.323 NA
ATOM      8  H   UNL     1       5.280  -4.735  22.872  0.00  0.00    +0.119 HD
ATOM      9  H   UNL     1       6.442  -3.638  23.214  0.00  0.00    +0.119 HD
ENDBRANCH   1   7
BRANCH   2  10
ATOM     10  O   UNL     1       8.970  -4.685  24.112  0.00  0.00    -0.387 OA
ATOM     11  H   UNL     1       9.622  -4.054  24.467  0.00  0.00    +0.210 HD
ENDBRANCH   2  10
BRANCH   3  12
ATOM     12  O   UNL     1       9.220  -4.658  27.015  0.00  0.00    -0.384 OA
ATOM     13  H   UNL     1      10.080  -5.081  26.829  0.00  0.00    +0.210 HD
ENDBRANCH   3  12
BRANCH   4  14
ATOM     14  O   UNL     1       7.347  -6.391  28.315  0.00  0.00    -0.365 OA
ATOM     15  H   UNL     1       8.018  -5.869  28.789  0.00  0.00    +0.213 HD
ENDBRANCH   4  14
BRANCH   6  16
ATOM     16  C   UNL     1       4.293  -6.344  24.789  0.00  0.00    +0.189 C 
BRANCH  16  17
ATOM     17  O   UNL     1       4.763  -7.309  23.854  0.00  0.00    -0.392 OA
ATOM     18  H   UNL     1       4.375  -8.163  24.129  0.00  0.00    +0.210 HD
ENDBRANCH  16  17
ENDBRANCH   6  16
TORSDOF 6
ENDMDL
MODEL 3
REMARK VINA RESULT:      -4.6      4.406      6.395
REMARK  Name = 
REMARK  6 active torsions:
REMARK  status: ('A' for Active; 'I' for Inactive)
REMARK    1  A    between atoms: N_1  and  C_2
REMARK    2  A    between atoms: C_4  and  C_6
REMARK    3  A    between atoms: C_6  and  O_7
REMARK    4  A    between atoms: C_9  and  O_11
REMARK    5  A    between atoms: C_12  and  O_14
REMARK    6  A    between atoms: C_15  and  O_17
REMARK                            x       y       z     vdW  Elec       q    Type
REMARK                         _______ _______ _______ _____ _____    ______ ____
ROOT
ATOM      1  C   UNL     1       6.966  -3.791  22.263  0.00  0.00    +0.114 C 
ATOM      2  C   UNL     1       7.488  -2.739  23.278  0.00  0.00    +0.167 C 
ATOM      3  C   UNL     1       8.824  -3.176  23.887  0.00  0.00    +0.200 C 
ATOM      4  C   UNL     1       8.724  -4.620  24.396  0.00  0.00    +0.279 C 
ATOM      5  O   UNL     1       8.295  -5.514  23.383  0.00  0.00    -0.342 OA
ATOM      6  C   UNL     1       6.969  -5.194  22.911  0.00  0.00    +0.166 C 
ENDROOT
BRANCH   1   7
ATOM      7  N   UNL     1       5.675  -3.343  21.715  0.00  0.00    -0.323 NA
ATOM      8  H   UNL     1       5.309  -3.998  21.024  0.00  0.00    +0.119 HD
ATOM      9  H   UNL     1       4.971  -3.284  22.455  0.00  0.00    +0.119 HD
ENDBRANCH   1   7
BRANCH   2  10
ATOM     10  O   UNL     1       7.662  -1.465  22.636  0.00  0.00    -0.387 OA
ATOM     11  H   UNL     1       8.265  -0.937  23.189  0.00  0.00    +0.210 HD
ENDBRANCH   2  10
BRANCH   3  12
ATOM     12  O   UNL     1       9.197  -2.306  24.966  0.00  0.00    -0.384 OA
ATOM     13  H   UNL     1       9.802  -2.816  25.537  0.00  0.00    +0.210 HD
ENDBRANCH   3  12
BRANCH   4  14
ATOM     14  O   UNL     1      10.004  -5.051  24.843  0.00  0.00    -0.365 OA
ATOM     15  H   UNL     1       9.829  -5.753  25.494  0.00  0.00    +0.213 HD
ENDBRANCH   4  14
BRANCH   6  16
ATOM     16  C   UNL     1       6.597  -6.306  21.914  0.00  0.00    +0.189 C 
BRANCH  16  17
ATOM     17  O   UNL     1       5.219  -6.204  21.570  0.00  0.00    -0.392 OA
ATOM     18  H   UNL     1       4.929  -5.322  21.877  0.00  0.00    +0.210 HD
ENDBRANCH  16  17
ENDBRANCH   6  16
TORSDOF 6
ENDMDL
MODEL 4
REMARK VINA RESULT:      -4.5      4.547      6.287
REMARK  Name = 
REMARK  6 active torsions:
REMARK  status: ('A' for Active; 'I' for Inactive)
REMARK    1  A    between atoms: N_1  and  C_2
REMARK    2  A    between atoms: C_4  and  C_6
REMARK    3  A    between atoms: C_6  and  O_7
REMARK    4  A    between atoms: C_9  and  O_11
REMARK    5  A    between atoms: C_12  and  O_14
REMARK    6  A    between atoms: C_15  and  O_17
REMARK                            x       y       z     vdW  Elec       q    Type
REMARK                         _______ _______ _______ _____ _____    ______ ____
ROOT
ATOM      1  C   UNL     1       8.504  -3.444  23.872  0.00  0.00    +0.114 C 
ATOM      2  C   UNL     1       7.733  -3.091  22.572  0.00  0.00    +0.167 C 
ATOM      3  C   UNL     1       6.294  -3.613  22.625  0.00  0.00    +0.200 C 
ATOM      4  C   UNL     1       6.284  -5.090  23.040  0.00  0.00    +0.279 C 
ATOM      5  O   UNL     1       6.963  -5.303  24.267  0.00  0.00    -0.342 OA
ATOM      6  C   UNL     1       8.360  -4.953  24.175  0.00  0.00    +0.166 C 
ENDROOT
BRANCH   1   7
ATOM      7  N   UNL     1       9.885  -2.942  23.773  0.00  0.00    -0.323 NA
ATOM      8  H   UNL     1      10.562  -3.632  24.093  0.00  0.00    +0.119 HD
ATOM      9  H   UNL     1      10.124  -2.735  22.800  0.00  0.00    +0.119 HD
ENDBRANCH   1   7
BRANCH   2  10
ATOM     10  O   UNL     1       7.706  -1.667  22.375  0.00  0.00    -0.387 OA
ATOM     11  H   UNL     1       8.264  -1.467  21.602  0.00  0.00    +0.210 HD
ENDBRANCH   2  10
BRANCH   3  12
ATOM     12  O   UNL     1       5.654  -3.464  21.349  0.00  0.00    -0.384 OA
ATOM     13  H   UNL     1       5.601  -4.357  20.959  0.00  0.00    +0.210 HD
ENDBRANCH   3  12
BRANCH   4  14
ATOM     14  O   UNL     1       4.939  -5.523  23.207  0.00  0.00    -0.365 OA
ATOM     15  H   UNL     1       4.708  -5.304  24.126  0.00  0.00    +0.213 HD
ENDBRANCH   4  14
BRANCH   6  16
ATOM     16  C   UNL     1       8.982  -5.345  25.527  0.00  0.00    +0.189 C 
BRANCH  16  17
ATOM     17  O   UNL     1      10.375  -5.589  25.364  0.00  0.00    -0.392 OA
ATOM     18  H   UNL     1      10.615  -5.211  24.495  0.00  0.00    +0.210 HD
ENDBRANCH  16  17
ENDBRANCH   6  16
TORSDOF 6
ENDMDL
MODEL 5
REMARK VINA RESULT:      -4.5      4.779      5.915
REMARK  Name = 
REMARK  6 active torsions:
REMARK  status: ('A' for Active; 'I' for Inactive)
REMARK    1  A    between atoms: N_1  and  C_2
REMARK    2  A    between atoms: C_4  and  C_6
REMARK    3  A    between atoms: C_6  and  O_7
REMARK    4  A    between atoms: C_9  and  O_11
REMARK    5  A    between atoms: C_12  and  O_14
REMARK    6  A    between atoms: C_15  and  O_17
REMARK                            x       y       z     vdW  Elec       q    Type
REMARK                         _______ _______ _______ _____ _____    ______ ____
ROOT
ATOM      1  C   UNL     1       8.788  -3.906  24.445  0.00  0.00    +0.114 C 
ATOM      2  C   UNL     1       9.019  -4.662  25.781  0.00  0.00    +0.167 C 
ATOM      3  C   UNL     1       7.745  -5.382  26.235  0.00  0.00    +0.200 C 
ATOM      4  C   UNL     1       6.553  -4.415  26.199  0.00  0.00    +0.279 C 
ATOM      5  O   UNL     1       6.390  -3.818  24.924  0.00  0.00    -0.342 OA
ATOM      6  C   UNL     1       7.531  -3.013  24.558  0.00  0.00    +0.166 C 
ENDROOT
BRANCH   1   7
ATOM      7  N   UNL     1      10.028  -3.216  24.054  0.00  0.00    -0.323 NA
ATOM      8  H   UNL     1      10.197  -2.389  24.625  0.00  0.00    +0.119 HD
ATOM      9  H   UNL     1      10.838  -3.827  24.189  0.00  0.00    +0.119 HD
ENDBRANCH   1   7
BRANCH   2  10
ATOM     10  O   UNL     1      10.073  -5.629  25.634  0.00  0.00    -0.387 OA
ATOM     11  H   UNL     1      10.919  -5.161  25.751  0.00  0.00    +0.210 HD
ENDBRANCH   2  10
BRANCH   3  12
ATOM     12  O   UNL     1       7.904  -5.905  27.561  0.00  0.00    -0.384 OA
ATOM     13  H   UNL     1       7.876  -5.141  28.167  0.00  0.00    +0.210 HD
ENDBRANCH   3  12
BRANCH   4  14
ATOM     14  O   UNL     1       5.360  -5.128  26.501  0.00  0.00    -0.365 OA
ATOM     15  H   UNL     1       5.361  -5.900  25.909  0.00  0.00    +0.213 HD
ENDBRANCH   4  14
BRANCH   6  16
ATOM     16  C   UNL     1       7.163  -2.343  23.222  0.00  0.00    +0.189 C 
BRANCH  16  17
ATOM     17  O   UNL     1       7.627  -3.140  22.138  0.00  0.00    -0.392 OA
ATOM     18  H   UNL     1       8.097  -2.530  21.536  0.00  0.00    +0.210 HD
ENDBRANCH  16  17
ENDBRANCH   6  16
TORSDOF 6
ENDMDL
MODEL 6
REMARK VINA RESULT:      -4.5      3.867      5.443
REMARK  Name = 
REMARK  6 active torsions:
REMARK  status: ('A' for Active; 'I' for Inactive)
REMARK    1  A    between atoms: N_1  and  C_2
REMARK    2  A    between atoms: C_4  and  C_6
REMARK    3  A    between atoms: C_6  and  O_7
REMARK    4  A    between atoms: C_9  and  O_11
REMARK    5  A    between atoms: C_12  and  O_14
REMARK    6  A    between atoms: C_15  and  O_17
REMARK                            x       y       z     vdW  Elec       q    Type
REMARK                         _______ _______ _______ _____ _____    ______ ____
ROOT
ATOM      1  C   UNL     1       7.715  -2.541  25.015  0.00  0.00    +0.114 C 
ATOM      2  C   UNL     1       7.273  -3.747  25.887  0.00  0.00    +0.167 C 
ATOM      3  C   UNL     1       8.479  -4.583  26.326  0.00  0.00    +0.200 C 
ATOM      4  C   UNL     1       9.363  -4.908  25.114  0.00  0.00    +0.279 C 
ATOM      5  O   UNL     1       9.762  -3.739  24.417  0.00  0.00    -0.342 OA
ATOM      6  C   UNL     1       8.632  -3.028  23.871  0.00  0.00    +0.166 C 
ENDROOT
BRANCH   1   7
ATOM      7  N   UNL     1       6.527  -1.776  24.601  0.00  0.00    -0.323 NA
ATOM      8  H   UNL     1       6.430  -0.911  25.132  0.00  0.00    +0.119 HD
ATOM      9  H   UNL     1       6.600  -1.502  23.618  0.00  0.00    +0.119 HD
ENDBRANCH   1   7
BRANCH   2  10
ATOM     10  O   UNL     1       6.571  -3.291  27.056  0.00  0.00    -0.387 OA
ATOM     11  H   UNL     1       7.018  -2.484  27.371  0.00  0.00    +0.210 HD
ENDBRANCH   2  10
BRANCH   3  12
ATOM     12  O   UNL     1       8.051  -5.800  26.954  0.00  0.00    -0.384 OA
ATOM     13  H   UNL     1       8.424  -6.531  26.426  0.00  0.00    +0.210 HD
ENDBRANCH   3  12
BRANCH   4  14
ATOM     14  O   UNL     1      10.540  -5.574  25.556  0.00  0.00    -0.365 OA
ATOM     15  H   UNL     1      11.022  -5.815  24.745  0.00  0.00    +0.213 HD
ENDBRANCH   4  14
BRANCH   6  16
ATOM     16  C   UNL     1       9.221  -1.865  23.052  0.00  0.00    +0.189 C 
BRANCH  16  17
ATOM     17  O   UNL     1      10.524  -2.210  22.593  0.00  0.00    -0.392 OA
ATOM     18  H   UNL     1      10.606  -3.177  22.717  0.00  0.00    +0.210 HD
ENDBRANCH  16  17
ENDBRANCH   6  16
TORSDOF 6
ENDMDL
MODEL 7
REMARK VINA RESULT:      -4.5      6.248      7.750
REMARK  Name = 
REMARK  6 active torsions:
REMARK  status: ('A' for Active; 'I' for Inactive)
REMARK    1  A    between atoms: N_1  and  C_2
REMARK    2  A    between atoms: C_4  and  C_6
REMARK    3  A    between atoms: C_6  and  O_7
REMARK    4  A    between atoms: C_9  and  O_11
REMARK    5  A    between atoms: C_12  and  O_14
REMARK    6  A    between atoms: C_15  and  O_17
REMARK                            x       y       z     vdW  Elec       q    Type
REMARK                         _______ _______ _______ _____ _____    ______ ____
ROOT
ATOM      1  C   UNL     1       5.680  -5.650  23.494  0.00  0.00    +0.114 C 
ATOM      2  C   UNL     1       6.925  -4.740  23.322  0.00  0.00    +0.167 C 
ATOM      3  C   UNL     1       8.045  -5.149  24.284  0.00  0.00    +0.200 C 
ATOM      4  C   UNL     1       7.493  -5.281  25.709  0.00  0.00    +0.279 C 
ATOM      5  O   UNL     1       6.394  -6.175  25.775  0.00  0.00    -0.342 OA
ATOM      6  C   UNL     1       5.278  -5.713  24.986  0.00  0.00    +0.166 C 
ENDROOT
BRANCH   1   7
ATOM      7  N   UNL     1       4.624  -5.213  22.566  0.00  0.00    -0.323 NA
ATOM      8  H   UNL     1       5.006  -4.929  21.665  0.00  0.00    +0.119 HD
ATOM      9  H   UNL     1       3.974  -5.981  22.373  0.00  0.00    +0.119 HD
ENDBRANCH   1   7
BRANCH   2  10
ATOM     10  O   UNL     1       7.419  -4.815  21.973  0.00  0.00    -0.387 OA
ATOM     11  H   UNL     1       8.383  -4.946  22.020  0.00  0.00    +0.210 HD
ENDBRANCH   2  10
BRANCH   3  12
ATOM     12  O   UNL     1       9.108  -4.185  24.263  0.00  0.00    -0.384 OA
ATOM     13  H   UNL     1       9.942  -4.692  24.264  0.00  0.00    +0.210 HD
ENDBRANCH   3  12
BRANCH   4  14
ATOM     14  O   UNL     1       8.512  -5.781  26.565  0.00  0.00    -0.365 OA
ATOM     15  H   UNL     1       8.769  -5.031  27.130  0.00  0.00    +0.213 HD
ENDBRANCH   4  14
BRANCH   6  16
ATOM     16  C   UNL     1       4.136  -6.711  25.247  0.00  0.00    +0.189 C 
BRANCH  16  17
ATOM     17  O   UNL     1       4.107  -7.692  24.214  0.00  0.00    -0.392 OA
ATOM     18  H   UNL     1       4.816  -8.329  24.428  0.00  0.00    +0.210 HD
ENDBRANCH  16  17
ENDBRANCH   6  16
TORSDOF 6
ENDMDL
MODEL 8
REMARK VINA RESULT:      -4.5      2.107      4.520
REMARK  Name = 
REMARK  6 active torsions:
REMARK  status: ('A' for Active; 'I' for Inactive)
REMARK    1  A    between atoms: N_1  and  C_2
REMARK    2  A    between atoms: C_4  and  C_6
REMARK    3  A    between atoms: C_6  and  O_7
REMARK    4  A    between atoms: C_9  and  O_11
REMARK    5  A    between atoms: C_12  and  O_14
REMARK    6  A    between atoms: C_15  and  O_17
REMARK                            x       y       z     vdW  Elec       q    Type
REMARK                         _______ _______ _______ _____ _____    ______ ____
ROOT
ATOM      1  C   UNL     1       9.317  -0.066  24.684  0.00  0.00    +0.114 C 
ATOM      2  C   UNL     1       9.842   1.148  23.871  0.00  0.00    +0.167 C 
ATOM      3  C   UNL     1       9.444   1.038  22.396  0.00  0.00    +0.200 C 
ATOM      4  C   UNL     1       9.807  -0.351  21.854  0.00  0.00    +0.279 C 
ATOM      5  O   UNL     1       9.235  -1.392  22.629  0.00  0.00    -0.342 OA
ATOM      6  C   UNL     1       9.727  -1.383  23.986  0.00  0.00    +0.166 C 
ENDROOT
BRANCH   1   7
ATOM      7  N   UNL     1       9.736   0.069  26.089  0.00  0.00    -0.323 NA
ATOM      8  H   UNL     1      10.079   1.007  26.293  0.00  0.00    +0.119 HD
ATOM      9  H   UNL     1       8.944  -0.089  26.718  0.00  0.00    +0.119 HD
ENDBRANCH   1   7
BRANCH   2  10
ATOM     10  O   UNL     1       9.318   2.375  24.406  0.00  0.00    -0.387 OA
ATOM     11  H   UNL     1       9.555   2.409  25.351  0.00  0.00    +0.210 HD
ENDBRANCH   2  10
BRANCH   3  12
ATOM     12  O   UNL     1      10.100   2.049  21.618  0.00  0.00    -0.384 OA
ATOM     13  H   UNL     1       9.400   2.519  21.126  0.00  0.00    +0.210 HD
ENDBRANCH   3  12
BRANCH   4  14
ATOM     14  O   UNL     1       9.318  -0.480  20.525  0.00  0.00    -0.365 OA
ATOM     15  H   UNL     1       8.639   0.211  20.429  0.00  0.00    +0.213 HD
ENDBRANCH   4  14
BRANCH   6  16
ATOM     16  C   UNL     1       9.117  -2.624  24.663  0.00  0.00    +0.189 C 
BRANCH  16  17
ATOM     17  O   UNL     1       9.907  -3.771  24.367  0.00  0.00    -0.392 OA
ATOM     18  H   UNL     1      10.778  -3.432  24.082  0.00  0.00    +0.210 HD
ENDBRANCH  16  17
ENDBRANCH   6  16
TORSDOF 6
ENDMDL
MODEL 9
REMARK VINA RESULT:      -4.4      2.006      2.523
REMARK  Name = 
REMARK  6 active torsions:
REMARK  status: ('A' for Active; 'I' for Inactive)
REMARK    1  A    between atoms: N_1  and  C_2
REMARK    2  A    between atoms: C_4  and  C_6
REMARK    3  A    between atoms: C_6  and  O_7
REMARK    4  A    between atoms: C_9  and  O_11
REMARK    5  A    between atoms: C_12  and  O_14
REMARK    6  A    between atoms: C_15  and  O_17
REMARK                            x       y       z     vdW  Elec       q    Type
REMARK                         _______ _______ _______ _____ _____    ______ ____
ROOT
ATOM      1  C   UNL     1       9.415  -0.894  22.607  0.00  0.00    +0.114 C 
ATOM      2  C   UNL     1       9.328  -1.912  23.775  0.00  0.00    +0.167 C 
ATOM      3  C   UNL     1       8.597  -1.310  24.979  0.00  0.00    +0.200 C 
ATOM      4  C   UNL     1       9.187   0.065  25.319  0.00  0.00    +0.279 C 
ATOM      5  O   UNL     1       9.171   0.943  24.205  0.00  0.00    -0.342 OA
ATOM      6  C   UNL     1       9.985   0.448  23.121  0.00  0.00    +0.166 C 
ENDROOT
BRANCH   1   7
ATOM      7  N   UNL     1      10.139  -1.505  21.479  0.00  0.00    -0.323 NA
ATOM      8  H   UNL     1       9.501  -1.834  20.755  0.00  0.00    +0.119 HD
ATOM      9  H   UNL     1      10.753  -0.820  21.031  0.00  0.00    +0.119 HD
ENDBRANCH   1   7
BRANCH   2  10
ATOM     10  O   UNL     1       8.635  -3.100  23.356  0.00  0.00    -0.387 OA
ATOM     11  H   UNL     1       8.697  -3.748  24.080  0.00  0.00    +0.210 HD
ENDBRANCH   2  10
BRANCH   3  12
ATOM     12  O   UNL     1       8.698  -2.176  26.119  0.00  0.00    -0.384 OA
ATOM     13  H   UNL     1       9.211  -1.690  26.792  0.00  0.00    +0.210 HD
ENDBRANCH   3  12
BRANCH   4  14
ATOM     14  O   UNL     1       8.418   0.665  26.355  0.00  0.00    -0.365 OA
ATOM     15  H   UNL     1       8.645   0.174  27.164  0.00  0.00    +0.213 HD
ENDBRANCH   4  14
BRANCH   6  16
ATOM     16  C   UNL     1       9.966   1.547  22.044  0.00  0.00    +0.189 C 
BRANCH  16  17
ATOM     17  O   UNL     1       8.988   1.238  21.056  0.00  0.00    -0.392 OA
ATOM     18  H   UNL     1       8.199   1.769  21.283  0.00  0.00    +0.210 HD
ENDBRANCH  16  17
ENDBRANCH   6  16
TORSDOF 6
ENDMDL
