MODEL 1
REMARK VINA RESULT:      -8.1      0.000      0.000
REMARK  Name = 
REMARK  6 active torsions:
REMARK  status: ('A' for Active; 'I' for Inactive)
REMARK    1  A    between atoms: C_1  and  C_2
REMARK    2  A    between atoms: C_2  and  C_3
REMARK    3  A    between atoms: C_2  and  C_4
REMARK    4  A    between atoms: C_25  and  O_27
REMARK    5  A    between atoms: C_29  and  C_30
REMARK    6  A    between atoms: C_39  and  C_41
REMARK                            x       y       z     vdW  Elec       q    Type
REMARK                         _______ _______ _______ _____ _____    ______ ____
ROOT
ATOM      1  C   UNL     1       5.533  -4.147  24.964  0.00  0.00    +0.186 C 
ATOM      2  C   UNL     1       4.958  -2.255  25.264  0.00  0.00    +0.050 C 
ATOM      3  C   UNL     1       5.832  -1.694  24.132  0.00  0.00    +0.015 C 
ATOM      4  C   UNL     1       4.420  -1.044  26.694  0.00  0.00    -0.015 C 
ATOM      5  C   UNL     1       3.748   0.322  27.110  0.00  0.00    +0.063 C 
ATOM      6  C   UNL     1       2.781   1.684  28.054  0.00  0.00    +0.237 C 
ATOM      7  O   UNL     1       1.546   1.469  28.073  0.00  0.00    -0.271 OA
ATOM      8  N   UNL     1       3.103   2.868  29.040  0.00  0.00    -0.308 N 
ATOM      9  H   UNL     1       2.354   2.699  29.708  0.00  0.00    +0.149 HD
ATOM     10  C   UNL     1       2.757   4.621  29.129  0.00  0.00    +0.132 C 
ATOM     11  C   UNL     1       3.901   5.702  28.925  0.00  0.00    -0.008 C 
ATOM     12  C   UNL     1       4.356   6.141  27.730  0.00  0.00    +0.000 C 
ATOM     13  C   UNL     1       5.019   5.114  26.947  0.00  0.00    -0.052 C 
ATOM     14  C   UNL     1       4.856   3.741  27.501  0.00  0.00    +0.043 C 
ATOM     15  C   UNL     1       5.502   5.226  25.717  0.00  0.00    +0.007 C 
ATOM     16  C   UNL     1       5.906   3.935  25.097  0.00  0.00    +0.145 C 
ATOM     17  C   UNL     1       6.777   4.117  23.912  0.00  0.00    +0.110 C 
ATOM     18  C   UNL     1       7.357   2.722  23.634  0.00  0.00    +0.145 C 
ATOM     19  O   UNL     1       7.169   1.850  24.465  0.00  0.00    -0.297 OA
ATOM     20  C   UNL     1       8.142   2.688  22.340  0.00  0.00    +0.170 C 
ATOM     21  C   UNL     1       8.536   1.290  22.171  0.00  0.00    +0.203 A 
ATOM     22  N   UNL     1       8.530   0.333  23.063  0.00  0.00    -0.208 NA
ATOM     23  C   UNL     1       9.058  -0.738  22.443  0.00  0.00    +0.164 A 
ATOM     24  C   UNL     1       9.401  -0.381  21.149  0.00  0.00    +0.230 A 
ATOM     25  C   UNL     1       9.165  -2.025  23.102  0.00  0.00    +0.272 C 
ATOM     26  O   UNL     1       9.305  -3.017  22.391  0.00  0.00    -0.268 OA
ATOM     27  N   UNL     1       9.073  -2.066  24.516  0.00  0.00    -0.260 N 
ATOM     28  C   UNL     1       8.978  -3.256  25.186  0.00  0.00    +0.118 C 
ATOM     29  C   UNL     1       8.659  -3.212  26.479  0.00  0.00    +0.005 C 
ATOM     30  C   UNL     1       8.184  -1.837  26.754  0.00  0.00    +0.048 C 
ATOM     31  C   UNL     1       8.422  -4.409  24.545  0.00  0.00    +0.354 C 
ATOM     32  O   UNL     1       9.121  -5.308  24.110  0.00  0.00    -0.244 OA
ATOM     33  C   UNL     1       8.701  -1.038  25.530  0.00  0.00    +0.118 C 
ATOM     34  O   UNL     1       9.068   0.939  20.970  0.00  0.00    -0.447 OA
ATOM     35  O   UNL     1       7.086  -4.388  24.651  0.00  0.00    -0.456 OA
ENDROOT
BRANCH   1  37
ATOM     36  C   UNL     1       5.318  -5.649  22.235  0.00  0.00    +0.011 C 
ATOM     37  C   UNL     1       5.546  -5.674  23.887  0.00  0.00    +0.024 C 
ATOM     38  C   UNL     1       4.424  -6.767  24.147  0.00  0.00    +0.011 C 
ENDBRANCH   1  37
BRANCH  16  39
ATOM     39  O   UNL     1       4.752   3.163  24.742  0.00  0.00    -0.387 OA
ATOM     40  H   UNL     1       4.245   2.941  25.536  0.00  0.00    +0.210 HD
ENDBRANCH  16  39
TORSDOF 2
ENDMDL
MODEL 2
REMARK VINA RESULT:      -7.8      2.462      8.087
REMARK  Name = 
REMARK  6 active torsions:
REMARK  status: ('A' for Active; 'I' for Inactive)
REMARK    1  A    between atoms: C_1  and  C_2
REMARK    2  A    between atoms: C_2  and  C_3
REMARK    3  A    between atoms: C_2  and  C_4
REMARK    4  A    between atoms: C_25  and  O_27
REMARK    5  A    between atoms: C_29  and  C_30
REMARK    6  A    between atoms: C_39  and  C_41
REMARK                            x       y       z     vdW  Elec       q    Type
REMARK                         _______ _______ _______ _____ _____    ______ ____
ROOT
ATOM      1  C   UNL     1       5.343   3.199  28.114  0.00  0.00    +0.186 C 
ATOM      2  C   UNL     1       5.708   1.400  27.318  0.00  0.00    +0.050 C 
ATOM      3  C   UNL     1       6.953   1.871  26.552  0.00  0.00    +0.015 C 
ATOM      4  C   UNL     1       4.779  -0.187  26.673  0.00  0.00    -0.015 C 
ATOM      5  C   UNL     1       4.857  -1.706  26.250  0.00  0.00    +0.063 C 
ATOM      6  C   UNL     1       4.441  -3.553  25.941  0.00  0.00    +0.237 C 
ATOM      7  O   UNL     1       4.363  -4.211  27.004  0.00  0.00    -0.271 OA
ATOM      8  N   UNL     1       3.911  -4.443  24.756  0.00  0.00    -0.308 N 
ATOM      9  H   UNL     1       3.233  -4.988  25.284  0.00  0.00    +0.149 HD
ATOM     10  C   UNL     1       4.425  -5.937  23.917  0.00  0.00    +0.132 C 
ATOM     11  C   UNL     1       4.970  -5.905  22.427  0.00  0.00    -0.008 C 
ATOM     12  C   UNL     1       6.239  -5.605  22.067  0.00  0.00    +0.000 C 
ATOM     13  C   UNL     1       6.620  -4.237  22.365  0.00  0.00    -0.052 C 
ATOM     14  C   UNL     1       5.636  -3.514  23.218  0.00  0.00    +0.043 C 
ATOM     15  C   UNL     1       7.810  -3.677  22.194  0.00  0.00    +0.007 C 
ATOM     16  C   UNL     1       7.952  -2.334  22.816  0.00  0.00    +0.145 C 
ATOM     17  C   UNL     1       9.119  -1.582  22.298  0.00  0.00    +0.110 C 
ATOM     18  C   UNL     1       8.902  -0.140  22.779  0.00  0.00    +0.145 C 
ATOM     19  O   UNL     1       7.827   0.139  23.281  0.00  0.00    -0.297 OA
ATOM     20  C   UNL     1      10.100   0.737  22.481  0.00  0.00    +0.170 C 
ATOM     21  C   UNL     1       9.781   2.032  23.081  0.00  0.00    +0.203 A 
ATOM     22  N   UNL     1       8.618   2.473  23.486  0.00  0.00    -0.208 NA
ATOM     23  C   UNL     1       8.833   3.742  23.879  0.00  0.00    +0.164 A 
ATOM     24  C   UNL     1      10.167   4.053  23.676  0.00  0.00    +0.230 A 
ATOM     25  C   UNL     1       7.775   4.553  24.451  0.00  0.00    +0.272 C 
ATOM     26  O   UNL     1       8.106   5.536  25.109  0.00  0.00    -0.268 OA
ATOM     27  N   UNL     1       6.432   4.149  24.244  0.00  0.00    -0.260 N 
ATOM     28  C   UNL     1       5.399   4.757  24.907  0.00  0.00    +0.118 C 
ATOM     29  C   UNL     1       4.201   4.177  24.845  0.00  0.00    +0.005 C 
ATOM     30  C   UNL     1       4.414   2.817  24.298  0.00  0.00    +0.048 C 
ATOM     31  C   UNL     1       5.618   5.381  26.177  0.00  0.00    +0.354 C 
ATOM     32  O   UNL     1       5.715   6.591  26.295  0.00  0.00    -0.244 OA
ATOM     33  C   UNL     1       5.830   2.909  23.675  0.00  0.00    +0.118 C 
ATOM     34  O   UNL     1      10.786   2.945  23.152  0.00  0.00    -0.447 OA
ATOM     35  O   UNL     1       5.539   4.466  27.153  0.00  0.00    -0.456 OA
ENDROOT
BRANCH   1  37
ATOM     36  C   UNL     1       7.210   4.543  30.225  0.00  0.00    +0.011 C 
ATOM     37  C   UNL     1       5.838   4.575  29.276  0.00  0.00    +0.024 C 
ATOM     38  C   UNL     1       4.863   4.904  30.485  0.00  0.00    +0.011 C 
ENDBRANCH   1  37
BRANCH  16  39
ATOM     39  O   UNL     1       8.037  -2.446  24.243  0.00  0.00    -0.387 OA
ATOM     40  H   UNL     1       8.955  -2.338  24.529  0.00  0.00    +0.210 HD
ENDBRANCH  16  39
TORSDOF 2
ENDMDL
MODEL 3
REMARK VINA RESULT:      -7.6      2.777      8.292
REMARK  Name = 
REMARK  6 active torsions:
REMARK  status: ('A' for Active; 'I' for Inactive)
REMARK    1  A    between atoms: C_1  and  C_2
REMARK    2  A    between atoms: C_2  and  C_3
REMARK    3  A    between atoms: C_2  and  C_4
REMARK    4  A    between atoms: C_25  and  O_27
REMARK    5  A    between atoms: C_29  and  C_30
REMARK    6  A    between atoms: C_39  and  C_41
REMARK                            x       y       z     vdW  Elec       q    Type
REMARK                         _______ _______ _______ _____ _____    ______ ____
ROOT
ATOM      1  C   UNL     1       3.536   4.368  26.344  0.00  0.00    +0.186 C 
ATOM      2  C   UNL     1       4.649   2.707  26.405  0.00  0.00    +0.050 C 
ATOM      3  C   UNL     1       5.928   3.415  25.934  0.00  0.00    +0.015 C 
ATOM      4  C   UNL     1       4.512   0.782  26.134  0.00  0.00    -0.015 C 
ATOM      5  C   UNL     1       5.149  -0.648  26.335  0.00  0.00    +0.063 C 
ATOM      6  C   UNL     1       5.393  -2.531  26.608  0.00  0.00    +0.237 C 
ATOM      7  O   UNL     1       5.065  -2.895  27.762  0.00  0.00    -0.271 OA
ATOM      8  N   UNL     1       5.643  -3.811  25.727  0.00  0.00    -0.308 N 
ATOM      9  H   UNL     1       4.977  -4.428  26.187  0.00  0.00    +0.149 HD
ATOM     10  C   UNL     1       6.824  -5.154  25.684  0.00  0.00    +0.132 C 
ATOM     11  C   UNL     1       7.899  -5.276  24.523  0.00  0.00    -0.008 C 
ATOM     12  C   UNL     1       9.078  -4.614  24.478  0.00  0.00    +0.000 C 
ATOM     13  C   UNL     1       8.933  -3.175  24.360  0.00  0.00    -0.052 C 
ATOM     14  C   UNL     1       7.536  -2.696  24.552  0.00  0.00    +0.043 C 
ATOM     15  C   UNL     1       9.899  -2.265  24.363  0.00  0.00    +0.007 C 
ATOM     16  C   UNL     1       9.419  -0.862  24.467  0.00  0.00    +0.145 C 
ATOM     17  C   UNL     1      10.455   0.128  24.088  0.00  0.00    +0.110 C 
ATOM     18  C   UNL     1       9.692   1.451  23.923  0.00  0.00    +0.145 C 
ATOM     19  O   UNL     1       8.474   1.414  23.941  0.00  0.00    -0.297 OA
ATOM     20  C   UNL     1      10.633   2.617  23.702  0.00  0.00    +0.170 C 
ATOM     21  C   UNL     1       9.771   3.798  23.665  0.00  0.00    +0.203 A 
ATOM     22  N   UNL     1       8.473   3.849  23.512  0.00  0.00    -0.208 NA
ATOM     23  C   UNL     1       8.171   5.160  23.462  0.00  0.00    +0.164 A 
ATOM     24  C   UNL     1       9.340   5.893  23.572  0.00  0.00    +0.230 A 
ATOM     25  C   UNL     1       6.800   5.622  23.354  0.00  0.00    +0.272 C 
ATOM     26  O   UNL     1       6.566   6.784  23.677  0.00  0.00    -0.268 OA
ATOM     27  N   UNL     1       5.813   4.704  22.914  0.00  0.00    -0.260 N 
ATOM     28  C   UNL     1       4.481   5.015  22.967  0.00  0.00    +0.118 C 
ATOM     29  C   UNL     1       3.609   4.029  22.763  0.00  0.00    +0.005 C 
ATOM     30  C   UNL     1       4.373   2.763  22.838  0.00  0.00    +0.048 C 
ATOM     31  C   UNL     1       3.994   5.960  23.927  0.00  0.00    +0.354 C 
ATOM     32  O   UNL     1       3.714   7.108  23.620  0.00  0.00    -0.244 OA
ATOM     33  C   UNL     1       5.842   3.231  22.682  0.00  0.00    +0.118 C 
ATOM     34  O   UNL     1      10.384   5.011  23.698  0.00  0.00    -0.447 OA
ATOM     35  O   UNL     1       3.767   5.346  25.096  0.00  0.00    -0.456 OA
ENDROOT
BRANCH   1  37
ATOM     36  C   UNL     1       4.037   6.833  28.195  0.00  0.00    +0.011 C 
ATOM     37  C   UNL     1       3.138   6.065  27.019  0.00  0.00    +0.024 C 
ATOM     38  C   UNL     1       1.758   6.248  27.783  0.00  0.00    +0.011 C 
ENDBRANCH   1  37
BRANCH  16  39
ATOM     39  O   UNL     1       8.942  -0.588  25.791  0.00  0.00    -0.387 OA
ATOM     40  H   UNL     1       8.118  -1.068  25.952  0.00  0.00    +0.210 HD
ENDBRANCH  16  39
TORSDOF 2
ENDMDL
MODEL 4
REMARK VINA RESULT:      -7.6      2.481      7.891
REMARK  Name = 
REMARK  6 active torsions:
REMARK  status: ('A' for Active; 'I' for Inactive)
REMARK    1  A    between atoms: C_1  and  C_2
REMARK    2  A    between atoms: C_2  and  C_3
REMARK    3  A    between atoms: C_2  and  C_4
REMARK    4  A    between atoms: C_25  and  O_27
REMARK    5  A    between atoms: C_29  and  C_30
REMARK    6  A    between atoms: C_39  and  C_41
REMARK                            x       y       z     vdW  Elec       q    Type
REMARK                         _______ _______ _______ _____ _____    ______ ____
ROOT
ATOM      1  C   UNL     1       5.522   3.294  27.847  0.00  0.00    +0.186 C 
ATOM      2  C   UNL     1       5.462   1.320  27.526  0.00  0.00    +0.050 C 
ATOM      3  C   UNL     1       6.851   1.273  26.873  0.00  0.00    +0.015 C 
ATOM      4  C   UNL     1       4.204  -0.109  27.110  0.00  0.00    -0.015 C 
ATOM      5  C   UNL     1       3.910  -1.658  27.044  0.00  0.00    +0.063 C 
ATOM      6  C   UNL     1       3.044  -3.370  27.085  0.00  0.00    +0.237 C 
ATOM      7  O   UNL     1       2.698  -3.704  28.242  0.00  0.00    -0.271 OA
ATOM      8  N   UNL     1       2.404  -4.374  26.057  0.00  0.00    -0.308 N 
ATOM      9  H   UNL     1       1.561  -4.593  26.583  0.00  0.00    +0.149 HD
ATOM     10  C   UNL     1       2.572  -6.109  25.651  0.00  0.00    +0.132 C 
ATOM     11  C   UNL     1       3.238  -6.580  24.289  0.00  0.00    -0.008 C 
ATOM     12  C   UNL     1       4.568  -6.691  24.069  0.00  0.00    +0.000 C 
ATOM     13  C   UNL     1       5.273  -5.424  24.116  0.00  0.00    -0.052 C 
ATOM     14  C   UNL     1       4.446  -4.297  24.632  0.00  0.00    +0.043 C 
ATOM     15  C   UNL     1       6.580  -5.225  24.008  0.00  0.00    +0.007 C 
ATOM     16  C   UNL     1       7.020  -3.842  24.337  0.00  0.00    +0.145 C 
ATOM     17  C   UNL     1       8.387  -3.545  23.851  0.00  0.00    +0.110 C 
ATOM     18  C   UNL     1       8.522  -2.019  23.967  0.00  0.00    +0.145 C 
ATOM     19  O   UNL     1       7.520  -1.376  24.229  0.00  0.00    -0.297 OA
ATOM     20  C   UNL     1       9.933  -1.556  23.670  0.00  0.00    +0.170 C 
ATOM     21  C   UNL     1       9.919  -0.115  23.919  0.00  0.00    +0.203 A 
ATOM     22  N   UNL     1       8.885   0.677  24.037  0.00  0.00    -0.208 NA
ATOM     23  C   UNL     1       9.395   1.915  24.172  0.00  0.00    +0.164 A 
ATOM     24  C   UNL     1      10.777   1.838  24.110  0.00  0.00    +0.230 A 
ATOM     25  C   UNL     1       8.546   3.071  24.387  0.00  0.00    +0.272 C 
ATOM     26  O   UNL     1       9.068   4.079  24.858  0.00  0.00    -0.268 OA
ATOM     27  N   UNL     1       7.168   2.961  24.073  0.00  0.00    -0.260 N 
ATOM     28  C   UNL     1       6.281   3.943  24.424  0.00  0.00    +0.118 C 
ATOM     29  C   UNL     1       4.982   3.669  24.310  0.00  0.00    +0.005 C 
ATOM     30  C   UNL     1       4.871   2.206  24.110  0.00  0.00    +0.048 C 
ATOM     31  C   UNL     1       6.544   4.793  25.546  0.00  0.00    +0.354 C 
ATOM     32  O   UNL     1       6.950   5.935  25.410  0.00  0.00    -0.244 OA
ATOM     33  C   UNL     1       6.310   1.799  23.704  0.00  0.00    +0.118 C 
ATOM     34  O   UNL     1      11.121   0.520  23.939  0.00  0.00    -0.447 OA
ATOM     35  O   UNL     1       6.136   4.197  26.674  0.00  0.00    -0.456 OA
ENDROOT
BRANCH   1  37
ATOM     36  C   UNL     1       7.193   4.630  30.121  0.00  0.00    +0.011 C 
ATOM     37  C   UNL     1       6.261   4.757  28.743  0.00  0.00    +0.024 C 
ATOM     38  C   UNL     1       5.261   5.818  29.371  0.00  0.00    +0.011 C 
ENDBRANCH   1  37
BRANCH  16  39
ATOM     39  O   UNL     1       6.943  -3.612  25.750  0.00  0.00    -0.387 OA
ATOM     40  H   UNL     1       6.103  -3.185  25.971  0.00  0.00    +0.210 HD
ENDBRANCH  16  39
TORSDOF 2
ENDMDL
MODEL 5
REMARK VINA RESULT:      -6.9      1.484      1.812
REMARK  Name = 
REMARK  6 active torsions:
REMARK  status: ('A' for Active; 'I' for Inactive)
REMARK    1  A    between atoms: C_1  and  C_2
REMARK    2  A    between atoms: C_2  and  C_3
REMARK    3  A    between atoms: C_2  and  C_4
REMARK    4  A    between atoms: C_25  and  O_27
REMARK    5  A    between atoms: C_29  and  C_30
REMARK    6  A    between atoms: C_39  and  C_41
REMARK                            x       y       z     vdW  Elec       q    Type
REMARK                         _______ _______ _______ _____ _____    ______ ____
ROOT
ATOM      1  C   UNL     1       6.193  -3.872  24.912  0.00  0.00    +0.186 C 
ATOM      2  C   UNL     1       4.995  -2.313  25.281  0.00  0.00    +0.050 C 
ATOM      3  C   UNL     1       5.649  -1.418  24.219  0.00  0.00    +0.015 C 
ATOM      4  C   UNL     1       4.038  -1.452  26.745  0.00  0.00    -0.015 C 
ATOM      5  C   UNL     1       2.928  -0.427  27.200  0.00  0.00    +0.063 C 
ATOM      6  C   UNL     1       1.529   0.460  28.168  0.00  0.00    +0.237 C 
ATOM      7  O   UNL     1       0.444  -0.165  28.122  0.00  0.00    -0.271 OA
ATOM      8  N   UNL     1       1.400   1.618  29.226  0.00  0.00    -0.308 N 
ATOM      9  H   UNL     1       0.739   1.162  29.851  0.00  0.00    +0.149 HD
ATOM     10  C   UNL     1       0.471   3.138  29.389  0.00  0.00    +0.132 C 
ATOM     11  C   UNL     1       1.177   4.556  29.291  0.00  0.00    -0.008 C 
ATOM     12  C   UNL     1       1.483   5.198  28.141  0.00  0.00    +0.000 C 
ATOM     13  C   UNL     1       2.477   4.511  27.337  0.00  0.00    -0.052 C 
ATOM     14  C   UNL     1       2.783   3.133  27.812  0.00  0.00    +0.043 C 
ATOM     15  C   UNL     1       2.922   4.858  26.137  0.00  0.00    +0.007 C 
ATOM     16  C   UNL     1       3.759   3.825  25.471  0.00  0.00    +0.145 C 
ATOM     17  C   UNL     1       4.543   4.367  24.336  0.00  0.00    +0.110 C 
ATOM     18  C   UNL     1       5.574   3.275  24.013  0.00  0.00    +0.145 C 
ATOM     19  O   UNL     1       5.678   2.341  24.790  0.00  0.00    -0.297 OA
ATOM     20  C   UNL     1       6.354   3.594  22.755  0.00  0.00    +0.170 C 
ATOM     21  C   UNL     1       7.209   2.428  22.534  0.00  0.00    +0.203 A 
ATOM     22  N   UNL     1       7.510   1.473  23.375  0.00  0.00    -0.208 NA
ATOM     23  C   UNL     1       8.390   0.689  22.725  0.00  0.00    +0.164 A 
ATOM     24  C   UNL     1       8.620   1.221  21.467  0.00  0.00    +0.230 A 
ATOM     25  C   UNL     1       8.917  -0.523  23.323  0.00  0.00    +0.272 C 
ATOM     26  O   UNL     1       9.407  -1.361  22.569  0.00  0.00    -0.268 OA
ATOM     27  N   UNL     1       8.810  -0.682  24.727  0.00  0.00    -0.260 N 
ATOM     28  C   UNL     1       9.115  -1.872  25.331  0.00  0.00    +0.118 C 
ATOM     29  C   UNL     1       8.769  -2.022  26.609  0.00  0.00    +0.005 C 
ATOM     30  C   UNL     1       7.843  -0.912  26.932  0.00  0.00    +0.048 C 
ATOM     31  C   UNL     1       9.004  -3.103  24.608  0.00  0.00    +0.354 C 
ATOM     32  O   UNL     1       9.981  -3.680  24.159  0.00  0.00    -0.244 OA
ATOM     33  C   UNL     1       8.083   0.091  25.774  0.00  0.00    +0.118 C 
ATOM     34  O   UNL     1       7.858   2.356  21.341  0.00  0.00    -0.447 OA
ATOM     35  O   UNL     1       7.741  -3.547  24.655  0.00  0.00    -0.456 OA
ENDROOT
BRANCH   1  37
ATOM     36  C   UNL     1       7.158  -4.988  22.160  0.00  0.00    +0.011 C 
ATOM     37  C   UNL     1       6.756  -5.232  23.760  0.00  0.00    +0.024 C 
ATOM     38  C   UNL     1       5.732  -6.405  23.451  0.00  0.00    +0.011 C 
ENDBRANCH   1  37
BRANCH  16  39
ATOM     39  O   UNL     1       2.950   2.729  25.026  0.00  0.00    -0.387 OA
ATOM     40  H   UNL     1       2.038   3.024  24.889  0.00  0.00    +0.210 HD
ENDBRANCH  16  39
TORSDOF 2
ENDMDL
MODEL 6
REMARK VINA RESULT:      -6.8      2.478      3.323
REMARK  Name = 
REMARK  6 active torsions:
REMARK  status: ('A' for Active; 'I' for Inactive)
REMARK    1  A    between atoms: C_1  and  C_2
REMARK    2  A    between atoms: C_2  and  C_3
REMARK    3  A    between atoms: C_2  and  C_4
REMARK    4  A    between atoms: C_25  and  O_27
REMARK    5  A    between atoms: C_29  and  C_30
REMARK    6  A    between atoms: C_39  and  C_41
REMARK                            x       y       z     vdW  Elec       q    Type
REMARK                         _______ _______ _______ _____ _____    ______ ____
ROOT
ATOM      1  C   UNL     1       2.255  -4.745  25.810  0.00  0.00    +0.186 C 
ATOM      2  C   UNL     1       2.767  -2.855  26.221  0.00  0.00    +0.050 C 
ATOM      3  C   UNL     1       3.843  -2.793  25.127  0.00  0.00    +0.015 C 
ATOM      4  C   UNL     1       2.907  -1.617  27.719  0.00  0.00    -0.015 C 
ATOM      5  C   UNL     1       3.053  -0.125  28.215  0.00  0.00    +0.063 C 
ATOM      6  C   UNL     1       2.928   1.495  29.236  0.00  0.00    +0.237 C 
ATOM      7  O   UNL     1       1.769   1.972  29.238  0.00  0.00    -0.271 OA
ATOM      8  N   UNL     1       3.797   2.274  30.292  0.00  0.00    -0.308 N 
ATOM      9  H   UNL     1       3.051   2.498  30.946  0.00  0.00    +0.149 HD
ATOM     10  C   UNL     1       4.436   3.934  30.485  0.00  0.00    +0.132 C 
ATOM     11  C   UNL     1       5.986   4.246  30.349  0.00  0.00    -0.008 C 
ATOM     12  C   UNL     1       6.646   4.432  29.184  0.00  0.00    +0.000 C 
ATOM     13  C   UNL     1       6.686   3.250  28.343  0.00  0.00    -0.052 C 
ATOM     14  C   UNL     1       5.798   2.150  28.813  0.00  0.00    +0.043 C 
ATOM     15  C   UNL     1       7.196   3.147  27.123  0.00  0.00    +0.007 C 
ATOM     16  C   UNL     1       6.872   1.872  26.428  0.00  0.00    +0.145 C 
ATOM     17  C   UNL     1       7.745   1.619  25.258  0.00  0.00    +0.110 C 
ATOM     18  C   UNL     1       7.502   0.145  24.899  0.00  0.00    +0.145 C 
ATOM     19  O   UNL     1       6.851  -0.532  25.675  0.00  0.00    -0.297 OA
ATOM     20  C   UNL     1       8.193  -0.238  23.607  0.00  0.00    +0.170 C 
ATOM     21  C   UNL     1       7.787  -1.621  23.356  0.00  0.00    +0.203 A 
ATOM     22  N   UNL     1       7.241  -2.469  24.189  0.00  0.00    -0.208 NA
ATOM     23  C   UNL     1       7.139  -3.625  23.507  0.00  0.00    +0.164 A 
ATOM     24  C   UNL     1       7.663  -3.443  22.238  0.00  0.00    +0.230 A 
ATOM     25  C   UNL     1       6.521  -4.801  24.089  0.00  0.00    +0.272 C 
ATOM     26  O   UNL     1       6.136  -5.678  23.320  0.00  0.00    -0.268 OA
ATOM     27  N   UNL     1       6.373  -4.856  25.498  0.00  0.00    -0.260 N 
ATOM     28  C   UNL     1       5.636  -5.843  26.095  0.00  0.00    +0.118 C 
ATOM     29  C   UNL     1       5.345  -5.699  27.387  0.00  0.00    +0.005 C 
ATOM     30  C   UNL     1       5.666  -4.298  27.743  0.00  0.00    +0.048 C 
ATOM     31  C   UNL     1       4.573  -6.487  25.384  0.00  0.00    +0.354 C 
ATOM     32  O   UNL     1       4.700  -7.599  24.898  0.00  0.00    -0.244 OA
ATOM     33  C   UNL     1       6.571  -3.839  26.571  0.00  0.00    +0.118 C 
ATOM     34  O   UNL     1       8.091  -2.143  22.138  0.00  0.00    -0.447 OA
ATOM     35  O   UNL     1       3.451  -5.762  25.487  0.00  0.00    -0.456 OA
ENDROOT
BRANCH   1  37
ATOM     36  C   UNL     1       0.526  -5.575  23.346  0.00  0.00    +0.011 C 
ATOM     37  C   UNL     1       1.490  -5.988  24.644  0.00  0.00    +0.024 C 
ATOM     38  C   UNL     1       0.443  -7.017  25.249  0.00  0.00    +0.011 C 
ENDBRANCH   1  37
BRANCH  16  39
ATOM     39  O   UNL     1       5.497   1.854  26.024  0.00  0.00    -0.387 OA
ATOM     40  H   UNL     1       5.262   2.697  25.611  0.00  0.00    +0.210 HD
ENDBRANCH  16  39
TORSDOF 2
ENDMDL
MODEL 7
REMARK VINA RESULT:      -6.5      2.595      7.452
REMARK  Name = 
REMARK  6 active torsions:
REMARK  status: ('A' for Active; 'I' for Inactive)
REMARK    1  A    between atoms: C_1  and  C_2
REMARK    2  A    between atoms: C_2  and  C_3
REMARK    3  A    between atoms: C_2  and  C_4
REMARK    4  A    between atoms: C_25  and  O_27
REMARK    5  A    between atoms: C_29  and  C_30
REMARK    6  A    between atoms: C_39  and  C_41
REMARK                            x       y       z     vdW  Elec       q    Type
REMARK                         _______ _______ _______ _____ _____    ______ ____
ROOT
ATOM      1  C   UNL     1       7.106   4.709  26.022  0.00  0.00    +0.186 C 
ATOM      2  C   UNL     1       6.734   2.843  26.637  0.00  0.00    +0.050 C 
ATOM      3  C   UNL     1       7.639   2.196  25.579  0.00  0.00    +0.015 C 
ATOM      4  C   UNL     1       5.312   1.760  27.414  0.00  0.00    -0.015 C 
ATOM      5  C   UNL     1       4.891   0.425  28.145  0.00  0.00    +0.063 C 
ATOM      6  C   UNL     1       4.005  -0.861  29.260  0.00  0.00    +0.237 C 
ATOM      7  O   UNL     1       4.221  -0.668  30.479  0.00  0.00    -0.271 OA
ATOM      8  N   UNL     1       2.872  -1.943  29.112  0.00  0.00    -0.308 N 
ATOM      9  H   UNL     1       2.362  -1.727  29.967  0.00  0.00    +0.149 HD
ATOM     10  C   UNL     1       2.680  -3.686  29.465  0.00  0.00    +0.132 C 
ATOM     11  C   UNL     1       2.580  -4.761  28.301  0.00  0.00    -0.008 C 
ATOM     12  C   UNL     1       3.632  -5.300  27.644  0.00  0.00    +0.000 C 
ATOM     13  C   UNL     1       4.381  -4.338  26.857  0.00  0.00    -0.052 C 
ATOM     14  C   UNL     1       3.995  -2.922  27.116  0.00  0.00    +0.043 C 
ATOM     15  C   UNL     1       5.493  -4.553  26.167  0.00  0.00    +0.007 C 
ATOM     16  C   UNL     1       6.151  -3.318  25.664  0.00  0.00    +0.145 C 
ATOM     17  C   UNL     1       7.146  -3.592  24.600  0.00  0.00    +0.110 C 
ATOM     18  C   UNL     1       7.449  -2.219  23.982  0.00  0.00    +0.145 C 
ATOM     19  O   UNL     1       6.749  -1.277  24.313  0.00  0.00    -0.297 OA
ATOM     20  C   UNL     1       8.585  -2.291  22.984  0.00  0.00    +0.170 C 
ATOM     21  C   UNL     1       8.813  -0.907  22.569  0.00  0.00    +0.203 A 
ATOM     22  N   UNL     1       8.030   0.128  22.732  0.00  0.00    -0.208 NA
ATOM     23  C   UNL     1       8.647   1.146  22.106  0.00  0.00    +0.164 A 
ATOM     24  C   UNL     1       9.822   0.678  21.542  0.00  0.00    +0.230 A 
ATOM     25  C   UNL     1       8.102   2.491  22.117  0.00  0.00    +0.272 C 
ATOM     26  O   UNL     1       8.868   3.415  21.858  0.00  0.00    -0.268 OA
ATOM     27  N   UNL     1       6.736   2.660  22.455  0.00  0.00    -0.260 N 
ATOM     28  C   UNL     1       6.207   3.905  22.666  0.00  0.00    +0.118 C 
ATOM     29  C   UNL     1       4.991   3.975  23.206  0.00  0.00    +0.005 C 
ATOM     30  C   UNL     1       4.675   2.622  23.719  0.00  0.00    +0.048 C 
ATOM     31  C   UNL     1       7.041   4.984  23.105  0.00  0.00    +0.354 C 
ATOM     32  O   UNL     1       7.430   5.852  22.342  0.00  0.00    -0.244 OA
ATOM     33  C   UNL     1       5.710   1.723  22.996  0.00  0.00    +0.118 C 
ATOM     34  O   UNL     1       9.931  -0.658  21.837  0.00  0.00    -0.447 OA
ATOM     35  O   UNL     1       7.166   4.949  24.439  0.00  0.00    -0.456 OA
ENDROOT
BRANCH   1  37
ATOM     36  C   UNL     1       9.884   5.952  25.324  0.00  0.00    +0.011 C 
ATOM     37  C   UNL     1       8.302   6.131  25.825  0.00  0.00    +0.024 C 
ATOM     38  C   UNL     1       8.680   6.960  27.124  0.00  0.00    +0.011 C 
ENDBRANCH   1  37
BRANCH  16  39
ATOM     39  O   UNL     1       6.772  -2.603  26.740  0.00  0.00    -0.387 OA
ATOM     40  H   UNL     1       6.655  -3.087  27.570  0.00  0.00    +0.210 HD
ENDBRANCH  16  39
TORSDOF 2
ENDMDL
MODEL 8
REMARK VINA RESULT:      -6.3      2.654      4.220
REMARK  Name = 
REMARK  6 active torsions:
REMARK  status: ('A' for Active; 'I' for Inactive)
REMARK    1  A    between atoms: C_1  and  C_2
REMARK    2  A    between atoms: C_2  and  C_3
REMARK    3  A    between atoms: C_2  and  C_4
REMARK    4  A    between atoms: C_25  and  O_27
REMARK    5  A    between atoms: C_29  and  C_30
REMARK    6  A    between atoms: C_39  and  C_41
REMARK                            x       y       z     vdW  Elec       q    Type
REMARK                         _______ _______ _______ _____ _____    ______ ____
ROOT
ATOM      1  C   UNL     1       2.676  -4.027  27.076  0.00  0.00    +0.186 C 
ATOM      2  C   UNL     1       3.414  -2.277  26.449  0.00  0.00    +0.050 C 
ATOM      3  C   UNL     1       4.154  -2.892  25.253  0.00  0.00    +0.015 C 
ATOM      4  C   UNL     1       4.046  -0.567  27.139  0.00  0.00    -0.015 C 
ATOM      5  C   UNL     1       4.429   0.936  26.846  0.00  0.00    +0.063 C 
ATOM      6  C   UNL     1       4.704   2.829  27.004  0.00  0.00    +0.237 C 
ATOM      7  O   UNL     1       3.627   3.469  27.029  0.00  0.00    -0.271 OA
ATOM      8  N   UNL     1       5.881   3.806  27.372  0.00  0.00    -0.308 N 
ATOM      9  H   UNL     1       5.360   4.425  27.989  0.00  0.00    +0.149 HD
ATOM     10  C   UNL     1       6.666   5.236  26.637  0.00  0.00    +0.132 C 
ATOM     11  C   UNL     1       8.139   5.163  26.050  0.00  0.00    -0.008 C 
ATOM     12  C   UNL     1       8.467   4.705  24.821  0.00  0.00    +0.000 C 
ATOM     13  C   UNL     1       8.192   3.292  24.634  0.00  0.00    -0.052 C 
ATOM     14  C   UNL     1       7.389   2.688  25.734  0.00  0.00    +0.043 C 
ATOM     15  C   UNL     1       8.342   2.583  23.523  0.00  0.00    +0.007 C 
ATOM     16  C   UNL     1       7.749   1.220  23.582  0.00  0.00    +0.145 C 
ATOM     17  C   UNL     1       8.250   0.331  22.507  0.00  0.00    +0.110 C 
ATOM     18  C   UNL     1       7.813  -1.080  22.929  0.00  0.00    +0.145 C 
ATOM     19  O   UNL     1       7.351  -1.224  24.048  0.00  0.00    -0.297 OA
ATOM     20  C   UNL     1       8.097  -2.102  21.848  0.00  0.00    +0.170 C 
ATOM     21  C   UNL     1       7.539  -3.355  22.356  0.00  0.00    +0.203 A 
ATOM     22  N   UNL     1       7.182  -3.646  23.580  0.00  0.00    -0.208 NA
ATOM     23  C   UNL     1       6.815  -4.940  23.548  0.00  0.00    +0.164 A 
ATOM     24  C   UNL     1       6.985  -5.421  22.261  0.00  0.00    +0.230 A 
ATOM     25  C   UNL     1       6.296  -5.615  24.723  0.00  0.00    +0.272 C 
ATOM     26  O   UNL     1       5.653  -6.647  24.546  0.00  0.00    -0.268 OA
ATOM     27  N   UNL     1       6.533  -5.032  25.993  0.00  0.00    -0.260 N 
ATOM     28  C   UNL     1       5.918  -5.511  27.118  0.00  0.00    +0.118 C 
ATOM     29  C   UNL     1       6.001  -4.775  28.227  0.00  0.00    +0.005 C 
ATOM     30  C   UNL     1       6.508  -3.445  27.818  0.00  0.00    +0.048 C 
ATOM     31  C   UNL     1       4.658  -6.185  27.027  0.00  0.00    +0.354 C 
ATOM     32  O   UNL     1       4.568  -7.400  27.095  0.00  0.00    -0.244 OA
ATOM     33  C   UNL     1       7.089  -3.711  26.406  0.00  0.00    +0.118 C 
ATOM     34  O   UNL     1       7.462  -4.395  21.483  0.00  0.00    -0.447 OA
ATOM     35  O   UNL     1       3.662  -5.289  27.016  0.00  0.00    -0.456 OA
ENDROOT
BRANCH   1  37
ATOM     36  C   UNL     1       0.448  -5.590  25.545  0.00  0.00    +0.011 C 
ATOM     37  C   UNL     1       1.534  -5.482  26.806  0.00  0.00    +0.024 C 
ATOM     38  C   UNL     1       0.450  -5.783  27.925  0.00  0.00    +0.011 C 
ENDBRANCH   1  37
BRANCH  16  39
ATOM     39  O   UNL     1       6.318   1.289  23.531  0.00  0.00    -0.387 OA
ATOM     40  H   UNL     1       6.043   2.015  22.953  0.00  0.00    +0.210 HD
ENDBRANCH  16  39
TORSDOF 2
ENDMDL
MODEL 9
REMARK VINA RESULT:      -6.3      1.738      2.153
REMARK  Name = 
REMARK  6 active torsions:
REMARK  status: ('A' for Active; 'I' for Inactive)
REMARK    1  A    between atoms: C_1  and  C_2
REMARK    2  A    between atoms: C_2  and  C_3
REMARK    3  A    between atoms: C_2  and  C_4
REMARK    4  A    between atoms: C_25  and  O_27
REMARK    5  A    between atoms: C_29  and  C_30
REMARK    6  A    between atoms: C_39  and  C_41
REMARK                            x       y       z     vdW  Elec       q    Type
REMARK                         _______ _______ _______ _____ _____    ______ ____
ROOT
ATOM      1  C   UNL     1       6.389  -2.713  23.983  0.00  0.00    +0.186 C 
ATOM      2  C   UNL     1       5.518  -1.082  24.746  0.00  0.00    +0.050 C 
ATOM      3  C   UNL     1       6.558  -0.117  24.158  0.00  0.00    +0.015 C 
ATOM      4  C   UNL     1       4.500  -0.497  26.302  0.00  0.00    -0.015 C 
ATOM      5  C   UNL     1       3.576   0.599  26.964  0.00  0.00    +0.063 C 
ATOM      6  C   UNL     1       2.242   1.488  28.018  0.00  0.00    +0.237 C 
ATOM      7  O   UNL     1       1.078   1.238  27.627  0.00  0.00    -0.271 OA
ATOM      8  N   UNL     1       2.161   2.239  29.398  0.00  0.00    -0.308 N 
ATOM      9  H   UNL     1       1.302   1.813  29.738  0.00  0.00    +0.149 HD
ATOM     10  C   UNL     1       1.579   3.826  29.986  0.00  0.00    +0.132 C 
ATOM     11  C   UNL     1       2.588   4.946  30.484  0.00  0.00    -0.008 C 
ATOM     12  C   UNL     1       3.256   5.806  29.682  0.00  0.00    +0.000 C 
ATOM     13  C   UNL     1       4.215   5.160  28.806  0.00  0.00    -0.052 C 
ATOM     14  C   UNL     1       4.104   3.675  28.788  0.00  0.00    +0.043 C 
ATOM     15  C   UNL     1       4.961   5.730  27.869  0.00  0.00    +0.007 C 
ATOM     16  C   UNL     1       5.666   4.770  26.978  0.00  0.00    +0.145 C 
ATOM     17  C   UNL     1       6.765   5.401  26.210  0.00  0.00    +0.110 C 
ATOM     18  C   UNL     1       7.571   4.225  25.639  0.00  0.00    +0.145 C 
ATOM     19  O   UNL     1       7.304   3.104  26.036  0.00  0.00    -0.297 OA
ATOM     20  C   UNL     1       8.641   4.694  24.676  0.00  0.00    +0.170 C 
ATOM     21  C   UNL     1       9.243   3.468  24.151  0.00  0.00    +0.203 A 
ATOM     22  N   UNL     1       9.147   2.253  24.623  0.00  0.00    -0.208 NA
ATOM     23  C   UNL     1       9.943   1.501  23.841  0.00  0.00    +0.164 A 
ATOM     24  C   UNL     1      10.537   2.317  22.893  0.00  0.00    +0.230 A 
ATOM     25  C   UNL     1      10.055   0.066  24.022  0.00  0.00    +0.272 C 
ATOM     26  O   UNL     1      10.490  -0.592  23.080  0.00  0.00    -0.268 OA
ATOM     27  N   UNL     1       9.632  -0.492  25.254  0.00  0.00    -0.260 N 
ATOM     28  C   UNL     1       9.535  -1.847  25.423  0.00  0.00    +0.118 C 
ATOM     29  C   UNL     1       8.911  -2.289  26.514  0.00  0.00    +0.005 C 
ATOM     30  C   UNL     1       8.209  -1.126  27.104  0.00  0.00    +0.048 C 
ATOM     31  C   UNL     1       9.303  -2.704  24.299  0.00  0.00    +0.354 C 
ATOM     32  O   UNL     1      10.198  -3.358  23.789  0.00  0.00    -0.244 OA
ATOM     33  C   UNL     1       8.896   0.082  26.418  0.00  0.00    +0.118 C 
ATOM     34  O   UNL     1      10.089   3.599  23.095  0.00  0.00    -0.447 OA
ATOM     35  O   UNL     1       7.990  -2.769  24.040  0.00  0.00    -0.456 OA
ENDROOT
BRANCH   1  37
ATOM     36  C   UNL     1       5.945  -3.830  21.101  0.00  0.00    +0.011 C 
ATOM     37  C   UNL     1       6.859  -3.740  22.494  0.00  0.00    +0.024 C 
ATOM     38  C   UNL     1       6.946  -5.313  22.683  0.00  0.00    +0.011 C 
ENDBRANCH   1  37
BRANCH  16  39
ATOM     39  O   UNL     1       4.741   4.142  26.081  0.00  0.00    -0.387 OA
ATOM     40  H   UNL     1       4.139   4.802  25.710  0.00  0.00    +0.210 HD
ENDBRANCH  16  39
TORSDOF 2
ENDMDL
