MODEL 1
REMARK VINA RESULT:      -3.9      0.000      0.000
REMARK  Name = 
REMARK  6 active torsions:
REMARK  status: ('A' for Active; 'I' for Inactive)
REMARK    1  A    between atoms: N_1  and  CA_2
REMARK    2  A    between atoms: CA_2  and  C_4
REMARK    3  A    between atoms: CA_2  and  C_8
REMARK    4  A    between atoms: C_4  and  C_5
REMARK    5  A    between atoms: C_5  and  C_6
REMARK    6  A    between atoms: C_8  and  O_9
REMARK                            x       y       z     vdW  Elec       q    Type
REMARK                         _______ _______ _______ _____ _____    ______ ____
ROOT
ATOM      1  CA  UNL     1       9.045  -4.582  26.358  0.00  0.00    +0.161 C 
ENDROOT
BRANCH   1   2
ATOM      2  N   UNL     1      10.021  -5.441  25.611  0.00  0.00    -0.318 NA
ATOM      3  H1  UNL     1       9.651  -6.397  25.574  0.00  0.00    +0.119 HD
ATOM      4  H2  UNL     1      10.005  -5.143  24.630  0.00  0.00    +0.119 HD
ENDBRANCH   1   2
BRANCH   1   5
ATOM      5  C   UNL     1       7.739  -5.389  26.531  0.00  0.00    +0.322 C 
ATOM      6  OXT UNL     1       6.846  -5.476  25.705  0.00  0.00    -0.249 OA
BRANCH   5   7
ATOM      7  O   UNL     1       7.684  -5.983  27.751  0.00  0.00    -0.480 OA
ATOM      8  H   UNL     1       8.620  -6.226  27.966  0.00  0.00    +0.295 HD
ENDBRANCH   5   7
ENDBRANCH   1   5
BRANCH   1   9
ATOM      9  C   UNL     1       8.839  -3.271  25.594  0.00  0.00    +0.037 C 
BRANCH   9  10
ATOM     10  C   UNL     1       9.214  -3.348  24.115  0.00  0.00    +0.073 C 
BRANCH  10  11
ATOM     11  C   UNL     1       9.915  -2.097  23.643  0.00  0.00    +0.223 C 
ATOM     12  O   UNL     1      10.539  -2.009  22.591  0.00  0.00    -0.301 OA
ENDBRANCH  10  11
ENDBRANCH   9  10
ENDBRANCH   1   9
TORSDOF 6
ENDMDL
MODEL 2
REMARK VINA RESULT:      -3.8      3.946      6.384
REMARK  Name = 
REMARK  6 active torsions:
REMARK  status: ('A' for Active; 'I' for Inactive)
REMARK    1  A    between atoms: N_1  and  CA_2
REMARK    2  A    between atoms: CA_2  and  C_4
REMARK    3  A    between atoms: CA_2  and  C_8
REMARK    4  A    between atoms: C_4  and  C_5
REMARK    5  A    between atoms: C_5  and  C_6
REMARK    6  A    between atoms: C_8  and  O_9
REMARK                            x       y       z     vdW  Elec       q    Type
REMARK                         _______ _______ _______ _____ _____    ______ ____
ROOT
ATOM      1  CA  UNL     1       9.125   0.089  22.219  0.00  0.00    +0.161 C 
ENDROOT
BRANCH   1   2
ATOM      2  N   UNL     1       9.579  -0.747  21.060  0.00  0.00    -0.318 NA
ATOM      3  H1  UNL     1      10.315  -0.236  20.559  0.00  0.00    +0.119 HD
ATOM      4  H2  UNL     1      10.074  -1.560  21.443  0.00  0.00    +0.119 HD
ENDBRANCH   1   2
BRANCH   1   5
ATOM      5  C   UNL     1       8.889   1.527  21.703  0.00  0.00    +0.322 C 
ATOM      6  OXT UNL     1       7.803   2.018  21.445  0.00  0.00    -0.249 OA
BRANCH   5   7
ATOM      7  O   UNL     1      10.063   2.190  21.537  0.00  0.00    -0.480 OA
ATOM      8  H   UNL     1       9.819   3.149  21.505  0.00  0.00    +0.295 HD
ENDBRANCH   5   7
ENDBRANCH   1   5
BRANCH   1   9
ATOM      9  C   UNL     1      10.172   0.020  23.333  0.00  0.00    +0.037 C 
BRANCH   9  10
ATOM     10  C   UNL     1       9.751  -0.833  24.529  0.00  0.00    +0.073 C 
BRANCH  10  11
ATOM     11  C   UNL     1       9.667  -2.298  24.178  0.00  0.00    +0.223 C 
ATOM     12  O   UNL     1      10.383  -2.853  23.350  0.00  0.00    -0.301 OA
ENDBRANCH  10  11
ENDBRANCH   9  10
ENDBRANCH   1   9
TORSDOF 6
ENDMDL
MODEL 3
REMARK VINA RESULT:      -3.8      4.340      6.726
REMARK  Name = 
REMARK  6 active torsions:
REMARK  status: ('A' for Active; 'I' for Inactive)
REMARK    1  A    between atoms: N_1  and  CA_2
REMARK    2  A    between atoms: CA_2  and  C_4
REMARK    3  A    between atoms: CA_2  and  C_8
REMARK    4  A    between atoms: C_4  and  C_5
REMARK    5  A    between atoms: C_5  and  C_6
REMARK    6  A    between atoms: C_8  and  O_9
REMARK                            x       y       z     vdW  Elec       q    Type
REMARK                         _______ _______ _______ _____ _____    ______ ____
ROOT
ATOM      1  CA  UNL     1       9.091   0.731  22.088  0.00  0.00    +0.161 C 
ENDROOT
BRANCH   1   2
ATOM      2  N   UNL     1       8.433   1.464  20.958  0.00  0.00    -0.318 NA
ATOM      3  H1  UNL     1       7.972   2.300  21.336  0.00  0.00    +0.119 HD
ATOM      4  H2  UNL     1       9.178   1.852  20.369  0.00  0.00    +0.119 HD
ENDBRANCH   1   2
BRANCH   1   5
ATOM      5  C   UNL     1      10.177   1.654  22.685  0.00  0.00    +0.322 C 
ATOM      6  OXT UNL     1      10.601   1.603  23.827  0.00  0.00    -0.249 OA
BRANCH   5   7
ATOM      7  O   UNL     1      10.597   2.573  21.776  0.00  0.00    -0.480 OA
ATOM      8  H   UNL     1      11.532   2.782  22.029  0.00  0.00    +0.295 HD
ENDBRANCH   5   7
ENDBRANCH   1   5
BRANCH   1   9
ATOM      9  C   UNL     1       9.654  -0.595  21.571  0.00  0.00    +0.037 C 
BRANCH   9  10
ATOM     10  C   UNL     1       9.132  -1.824  22.313  0.00  0.00    +0.073 C 
BRANCH  10  11
ATOM     11  C   UNL     1       9.954  -2.136  23.540  0.00  0.00    +0.223 C 
ATOM     12  O   UNL     1      10.100  -3.262  24.006  0.00  0.00    -0.301 OA
ENDBRANCH  10  11
ENDBRANCH   9  10
ENDBRANCH   1   9
TORSDOF 6
ENDMDL
MODEL 4
REMARK VINA RESULT:      -3.8      3.463      6.025
REMARK  Name = 
REMARK  6 active torsions:
REMARK  status: ('A' for Active; 'I' for Inactive)
REMARK    1  A    between atoms: N_1  and  CA_2
REMARK    2  A    between atoms: CA_2  and  C_4
REMARK    3  A    between atoms: CA_2  and  C_8
REMARK    4  A    between atoms: C_4  and  C_5
REMARK    5  A    between atoms: C_5  and  C_6
REMARK    6  A    between atoms: C_8  and  O_9
REMARK                            x       y       z     vdW  Elec       q    Type
REMARK                         _______ _______ _______ _____ _____    ______ ____
ROOT
ATOM      1  CA  UNL     1       9.198  -0.408  21.780  0.00  0.00    +0.161 C 
ENDROOT
BRANCH   1   2
ATOM      2  N   UNL     1      10.288  -1.405  21.521  0.00  0.00    -0.318 NA
ATOM      3  H1  UNL     1      10.990  -0.968  20.912  0.00  0.00    +0.119 HD
ATOM      4  H2  UNL     1      10.794  -1.543  22.403  0.00  0.00    +0.119 HD
ENDBRANCH   1   2
BRANCH   1   5
ATOM      5  C   UNL     1       9.860   0.909  22.243  0.00  0.00    +0.322 C 
ATOM      6  OXT UNL     1      10.468   1.068  23.287  0.00  0.00    -0.249 OA
BRANCH   5   7
ATOM      7  O   UNL     1       9.657   1.906  21.342  0.00  0.00    -0.480 OA
ATOM      8  H   UNL     1       9.858   2.744  21.830  0.00  0.00    +0.295 HD
ENDBRANCH   5   7
ENDBRANCH   1   5
BRANCH   1   9
ATOM      9  C   UNL     1       8.226  -0.981  22.814  0.00  0.00    +0.037 C 
BRANCH   9  10
ATOM     10  C   UNL     1       8.070  -2.500  22.747  0.00  0.00    +0.073 C 
BRANCH  10  11
ATOM     11  C   UNL     1       8.766  -3.191  23.895  0.00  0.00    +0.223 C 
ATOM     12  O   UNL     1       9.983  -3.230  24.042  0.00  0.00    -0.301 OA
ENDBRANCH  10  11
ENDBRANCH   9  10
ENDBRANCH   1   9
TORSDOF 6
ENDMDL
MODEL 5
REMARK VINA RESULT:      -3.8      5.239      6.943
REMARK  Name = 
REMARK  6 active torsions:
REMARK  status: ('A' for Active; 'I' for Inactive)
REMARK    1  A    between atoms: N_1  and  CA_2
REMARK    2  A    between atoms: CA_2  and  C_4
REMARK    3  A    between atoms: CA_2  and  C_8
REMARK    4  A    between atoms: C_4  and  C_5
REMARK    5  A    between atoms: C_5  and  C_6
REMARK    6  A    between atoms: C_8  and  O_9
REMARK                            x       y       z     vdW  Elec       q    Type
REMARK                         _______ _______ _______ _____ _____    ______ ____
ROOT
ATOM      1  CA  UNL     1       9.911   1.783  24.150  0.00  0.00    +0.161 C 
ENDROOT
BRANCH   1   2
ATOM      2  N   UNL     1       8.545   1.420  23.648  0.00  0.00    -0.318 NA
ATOM      3  H1  UNL     1       8.423   0.405  23.742  0.00  0.00    +0.119 HD
ATOM      4  H2  UNL     1       7.863   1.803  24.311  0.00  0.00    +0.119 HD
ENDBRANCH   1   2
BRANCH   1   5
ATOM      5  C   UNL     1      10.587   2.673  23.082  0.00  0.00    +0.322 C 
ATOM      6  OXT UNL     1      11.313   3.625  23.311  0.00  0.00    -0.249 OA
BRANCH   5   7
ATOM      7  O   UNL     1      10.248   2.282  21.827  0.00  0.00    -0.480 OA
ATOM      8  H   UNL     1       9.701   1.465  21.946  0.00  0.00    +0.295 HD
ENDBRANCH   5   7
ENDBRANCH   1   5
BRANCH   1   9
ATOM      9  C   UNL     1      10.698   0.504  24.444  0.00  0.00    +0.037 C 
BRANCH   9  10
ATOM     10  C   UNL     1       9.962  -0.780  24.061  0.00  0.00    +0.073 C 
BRANCH  10  11
ATOM     11  C   UNL     1      10.302  -1.231  22.662  0.00  0.00    +0.223 C 
ATOM     12  O   UNL     1       9.898  -0.683  21.641  0.00  0.00    -0.301 OA
ENDBRANCH  10  11
ENDBRANCH   9  10
ENDBRANCH   1   9
TORSDOF 6
ENDMDL
MODEL 6
REMARK VINA RESULT:      -3.7      2.736      3.365
REMARK  Name = 
REMARK  6 active torsions:
REMARK  status: ('A' for Active; 'I' for Inactive)
REMARK    1  A    between atoms: N_1  and  CA_2
REMARK    2  A    between atoms: CA_2  and  C_4
REMARK    3  A    between atoms: CA_2  and  C_8
REMARK    4  A    between atoms: C_4  and  C_5
REMARK    5  A    between atoms: C_5  and  C_6
REMARK    6  A    between atoms: C_8  and  O_9
REMARK                            x       y       z     vdW  Elec       q    Type
REMARK                         _______ _______ _______ _____ _____    ______ ____
ROOT
ATOM      1  CA  UNL     1       8.191  -5.476  25.612  0.00  0.00    +0.161 C 
ENDROOT
BRANCH   1   2
ATOM      2  N   UNL     1       8.121  -5.504  27.110  0.00  0.00    -0.318 NA
ATOM      3  H1  UNL     1       7.354  -4.891  27.411  0.00  0.00    +0.119 HD
ATOM      4  H2  UNL     1       7.800  -6.438  27.385  0.00  0.00    +0.119 HD
ENDBRANCH   1   2
BRANCH   1   5
ATOM      5  C   UNL     1       9.565  -4.892  25.213  0.00  0.00    +0.322 C 
ATOM      6  OXT UNL     1       9.740  -3.926  24.490  0.00  0.00    -0.249 OA
BRANCH   5   7
ATOM      7  O   UNL     1      10.583  -5.613  25.749  0.00  0.00    -0.480 OA
ATOM      8  H   UNL     1      10.804  -6.299  25.070  0.00  0.00    +0.295 HD
ENDBRANCH   5   7
ENDBRANCH   1   5
BRANCH   1   9
ATOM      9  C   UNL     1       7.016  -4.662  25.067  0.00  0.00    +0.037 C 
BRANCH   9  10
ATOM     10  C   UNL     1       6.285  -5.329  23.902  0.00  0.00    +0.073 C 
BRANCH  10  11
ATOM     11  C   UNL     1       6.988  -5.100  22.586  0.00  0.00    +0.223 C 
ATOM     12  O   UNL     1       7.291  -5.991  21.800  0.00  0.00    -0.301 OA
ENDBRANCH  10  11
ENDBRANCH   9  10
ENDBRANCH   1   9
TORSDOF 6
ENDMDL
MODEL 7
REMARK VINA RESULT:      -3.7      3.787      4.855
REMARK  Name = 
REMARK  6 active torsions:
REMARK  status: ('A' for Active; 'I' for Inactive)
REMARK    1  A    between atoms: N_1  and  CA_2
REMARK    2  A    between atoms: CA_2  and  C_4
REMARK    3  A    between atoms: CA_2  and  C_8
REMARK    4  A    between atoms: C_4  and  C_5
REMARK    5  A    between atoms: C_5  and  C_6
REMARK    6  A    between atoms: C_8  and  O_9
REMARK                            x       y       z     vdW  Elec       q    Type
REMARK                         _______ _______ _______ _____ _____    ______ ____
ROOT
ATOM      1  CA  UNL     1       9.250  -0.832  23.969  0.00  0.00    +0.161 C 
ENDROOT
BRANCH   1   2
ATOM      2  N   UNL     1       8.146  -1.434  24.786  0.00  0.00    -0.318 NA
ATOM      3  H1  UNL     1       8.180  -2.454  24.677  0.00  0.00    +0.119 HD
ATOM      4  H2  UNL     1       8.382  -1.294  25.773  0.00  0.00    +0.119 HD
ENDBRANCH   1   2
BRANCH   1   5
ATOM      5  C   UNL     1      10.016  -1.986  23.284  0.00  0.00    +0.322 C 
ATOM      6  OXT UNL     1      10.277  -3.063  23.792  0.00  0.00    -0.249 OA
BRANCH   5   7
ATOM      7  O   UNL     1      10.403  -1.643  22.028  0.00  0.00    -0.480 OA
ATOM      8  H   UNL     1       9.660  -1.098  21.665  0.00  0.00    +0.295 HD
ENDBRANCH   5   7
ENDBRANCH   1   5
BRANCH   1   9
ATOM      9  C   UNL     1      10.142   0.019  24.876  0.00  0.00    +0.037 C 
BRANCH   9  10
ATOM     10  C   UNL     1      10.804   1.200  24.166  0.00  0.00    +0.073 C 
BRANCH  10  11
ATOM     11  C   UNL     1       9.954   1.731  23.038  0.00  0.00    +0.223 C 
ATOM     12  O   UNL     1      10.183   1.536  21.848  0.00  0.00    -0.301 OA
ENDBRANCH  10  11
ENDBRANCH   9  10
ENDBRANCH   1   9
TORSDOF 6
ENDMDL
MODEL 8
REMARK VINA RESULT:      -3.7      4.325      6.520
REMARK  Name = 
REMARK  6 active torsions:
REMARK  status: ('A' for Active; 'I' for Inactive)
REMARK    1  A    between atoms: N_1  and  CA_2
REMARK    2  A    between atoms: CA_2  and  C_4
REMARK    3  A    between atoms: CA_2  and  C_8
REMARK    4  A    between atoms: C_4  and  C_5
REMARK    5  A    between atoms: C_5  and  C_6
REMARK    6  A    between atoms: C_8  and  O_9
REMARK                            x       y       z     vdW  Elec       q    Type
REMARK                         _______ _______ _______ _____ _____    ______ ____
ROOT
ATOM      1  CA  UNL     1      10.070   1.856  23.997  0.00  0.00    +0.161 C 
ENDROOT
BRANCH   1   2
ATOM      2  N   UNL     1       8.994   2.032  25.026  0.00  0.00    -0.318 NA
ATOM      3  H1  UNL     1       8.180   1.472  24.746  0.00  0.00    +0.119 HD
ATOM      4  H2  UNL     1       9.312   1.573  25.886  0.00  0.00    +0.119 HD
ENDBRANCH   1   2
BRANCH   1   5
ATOM      5  C   UNL     1       9.403   1.890  22.603  0.00  0.00    +0.322 C 
ATOM      6  OXT UNL     1       8.245   1.594  22.365  0.00  0.00    -0.249 OA
BRANCH   5   7
ATOM      7  O   UNL     1      10.286   2.270  21.644  0.00  0.00    -0.480 OA
ATOM      8  H   UNL     1      11.177   2.217  22.072  0.00  0.00    +0.295 HD
ENDBRANCH   5   7
ENDBRANCH   1   5
BRANCH   1   9
ATOM      9  C   UNL     1      10.817   0.548  24.268  0.00  0.00    +0.037 C 
BRANCH   9  10
ATOM     10  C   UNL     1       9.903  -0.640  24.567  0.00  0.00    +0.073 C 
BRANCH  10  11
ATOM     11  C   UNL     1      10.042  -1.735  23.537  0.00  0.00    +0.223 C 
ATOM     12  O   UNL     1      10.159  -2.926  23.806  0.00  0.00    -0.301 OA
ENDBRANCH  10  11
ENDBRANCH   9  10
ENDBRANCH   1   9
TORSDOF 6
ENDMDL
MODEL 9
REMARK VINA RESULT:      -3.7      1.985      2.102
REMARK  Name = 
REMARK  6 active torsions:
REMARK  status: ('A' for Active; 'I' for Inactive)
REMARK    1  A    between atoms: N_1  and  CA_2
REMARK    2  A    between atoms: CA_2  and  C_4
REMARK    3  A    between atoms: CA_2  and  C_8
REMARK    4  A    between atoms: C_4  and  C_5
REMARK    5  A    between atoms: C_5  and  C_6
REMARK    6  A    between atoms: C_8  and  O_9
REMARK                            x       y       z     vdW  Elec       q    Type
REMARK                         _______ _______ _______ _____ _____    ______ ____
ROOT
ATOM      1  CA  UNL     1       8.075  -4.706  25.946  0.00  0.00    +0.161 C 
ENDROOT
BRANCH   1   2
ATOM      2  N   UNL     1       8.263  -5.617  27.122  0.00  0.00    -0.318 NA
ATOM      3  H1  UNL     1       7.469  -6.266  27.161  0.00  0.00    +0.119 HD
ATOM      4  H2  UNL     1       9.059  -6.229  26.912  0.00  0.00    +0.119 HD
ENDBRANCH   1   2
BRANCH   1   5
ATOM      5  C   UNL     1       8.937  -5.248  24.783  0.00  0.00    +0.322 C 
ATOM      6  OXT UNL     1       8.512  -5.648  23.713  0.00  0.00    -0.249 OA
BRANCH   5   7
ATOM      7  O   UNL     1      10.256  -5.257  25.109  0.00  0.00    -0.480 OA
ATOM      8  H   UNL     1      10.711  -4.779  24.370  0.00  0.00    +0.295 HD
ENDBRANCH   5   7
ENDBRANCH   1   5
BRANCH   1   9
ATOM      9  C   UNL     1       8.449  -3.278  26.348  0.00  0.00    +0.037 C 
BRANCH   9  10
ATOM     10  C   UNL     1       8.133  -2.229  25.283  0.00  0.00    +0.073 C 
BRANCH  10  11
ATOM     11  C   UNL     1       9.383  -1.686  24.635  0.00  0.00    +0.223 C 
ATOM     12  O   UNL     1      10.087  -2.317  23.854  0.00  0.00    -0.301 OA
ENDBRANCH  10  11
ENDBRANCH   9  10
ENDBRANCH   1   9
TORSDOF 6
ENDMDL
