MODEL 1
REMARK VINA RESULT:      -3.9      0.000      0.000
REMARK  Name = 
REMARK  2 active torsions:
REMARK  status: ('A' for Active; 'I' for Inactive)
REMARK    1  A    between atoms: O_1  and  C_2
REMARK    2  A    between atoms: C_2  and  C_4
REMARK                            x       y       z     vdW  Elec       q    Type
REMARK                         _______ _______ _______ _____ _____    ______ ____
ROOT
ATOM      1  C   UNK     1       8.080  -4.743  26.023  0.00  0.00    +0.174 C 
ATOM      2  N   UNK     1       8.043  -5.638  27.225  0.00  0.00    -0.295 NA
ATOM      3  H   UNK     1       8.187  -6.596  26.889  0.00  0.00    +0.123 HD
ATOM      4  C   UNK     1       6.654  -5.611  27.707  0.00  0.00    +0.151 C 
ATOM      5  S   UNK     1       5.555  -5.305  26.308  0.00  0.00    -0.143 S 
ATOM      6  C   UNK     1       6.906  -5.097  25.129  0.00  0.00    +0.100 C 
ENDROOT
BRANCH   1   7
ATOM      7  C   UNK     1       9.405  -4.948  25.290  0.00  0.00    +0.323 C 
ATOM      8  O   UNK     1       9.929  -4.138  24.543  0.00  0.00    -0.249 OA
BRANCH   7   9
ATOM      9  O   UNK     1       9.957  -6.150  25.586  0.00  0.00    -0.480 OA
ATOM     10  H   UNK     1       9.616  -6.812  24.941  0.00  0.00    +0.295 HD
ENDBRANCH   7   9
ENDBRANCH   1   7
TORSDOF 2
ENDMDL
MODEL 2
REMARK VINA RESULT:      -3.7      2.887      3.603
REMARK  Name = 
REMARK  2 active torsions:
REMARK  status: ('A' for Active; 'I' for Inactive)
REMARK    1  A    between atoms: O_1  and  C_2
REMARK    2  A    between atoms: C_2  and  C_4
REMARK                            x       y       z     vdW  Elec       q    Type
REMARK                         _______ _______ _______ _____ _____    ______ ____
ROOT
ATOM      1  C   UNK     1       8.695  -3.884  24.942  0.00  0.00    +0.174 C 
ATOM      2  N   UNK     1       9.943  -3.555  24.180  0.00  0.00    -0.295 NA
ATOM      3  H   UNK     1      10.720  -3.593  24.848  0.00  0.00    +0.123 HD
ATOM      4  C   UNK     1       9.829  -2.136  23.812  0.00  0.00    +0.151 C 
ATOM      5  S   UNK     1       8.828  -1.288  25.052  0.00  0.00    -0.143 S 
ATOM      6  C   UNK     1       8.466  -2.796  25.975  0.00  0.00    +0.100 C 
ENDROOT
BRANCH   1   7
ATOM      7  C   UNK     1       8.867  -5.247  25.615  0.00  0.00    +0.323 C 
ATOM      8  O   UNK     1       8.035  -5.793  26.321  0.00  0.00    -0.249 OA
BRANCH   7   9
ATOM      9  O   UNK     1      10.066  -5.802  25.312  0.00  0.00    -0.480 OA
ATOM     10  H   UNK     1      10.768  -5.285  25.771  0.00  0.00    +0.295 HD
ENDBRANCH   7   9
ENDBRANCH   1   7
TORSDOF 2
ENDMDL
MODEL 3
REMARK VINA RESULT:      -3.6      6.536      7.172
REMARK  Name = 
REMARK  2 active torsions:
REMARK  status: ('A' for Active; 'I' for Inactive)
REMARK    1  A    between atoms: O_1  and  C_2
REMARK    2  A    between atoms: C_2  and  C_4
REMARK                            x       y       z     vdW  Elec       q    Type
REMARK                         _______ _______ _______ _____ _____    ______ ____
ROOT
ATOM      1  C   UNK     1       9.627   1.042  23.519  0.00  0.00    +0.174 C 
ATOM      2  N   UNK     1       9.914   1.033  24.991  0.00  0.00    -0.295 NA
ATOM      3  H   UNK     1      10.934   1.032  25.096  0.00  0.00    +0.123 HD
ATOM      4  C   UNK     1       9.481  -0.285  25.477  0.00  0.00    +0.151 C 
ATOM      5  S   UNK     1       9.638  -1.485  24.138  0.00  0.00    -0.143 S 
ATOM      6  C   UNK     1      10.150  -0.251  22.924  0.00  0.00    +0.100 C 
ENDROOT
BRANCH   1   7
ATOM      7  C   UNK     1      10.316   2.252  22.885  0.00  0.00    +0.323 C 
ATOM      8  O   UNK     1      10.968   3.087  23.489  0.00  0.00    -0.249 OA
BRANCH   7   9
ATOM      9  O   UNK     1      10.134   2.279  21.543  0.00  0.00    -0.480 OA
ATOM     10  H   UNK     1      10.400   3.170  21.215  0.00  0.00    +0.295 HD
ENDBRANCH   7   9
ENDBRANCH   1   7
TORSDOF 2
ENDMDL
MODEL 4
REMARK VINA RESULT:      -3.6      6.285      7.030
REMARK  Name = 
REMARK  2 active torsions:
REMARK  status: ('A' for Active; 'I' for Inactive)
REMARK    1  A    between atoms: O_1  and  C_2
REMARK    2  A    between atoms: C_2  and  C_4
REMARK                            x       y       z     vdW  Elec       q    Type
REMARK                         _______ _______ _______ _____ _____    ______ ____
ROOT
ATOM      1  C   UNK     1       9.738  -0.124  23.094  0.00  0.00    +0.174 C 
ATOM      2  N   UNK     1       9.781   0.649  21.810  0.00  0.00    -0.295 NA
ATOM      3  H   UNK     1      10.720   0.526  21.419  0.00  0.00    +0.123 HD
ATOM      4  C   UNK     1       9.711   2.067  22.191  0.00  0.00    +0.151 C 
ATOM      5  S   UNK     1      10.440   2.272  23.829  0.00  0.00    -0.143 S 
ATOM      6  C   UNK     1      10.724   0.504  24.061  0.00  0.00    +0.100 C 
ENDROOT
BRANCH   1   7
ATOM      7  C   UNK     1      10.104  -1.581  22.811  0.00  0.00    +0.323 C 
ATOM      8  O   UNK     1      10.166  -2.467  23.647  0.00  0.00    -0.249 OA
BRANCH   7   9
ATOM      9  O   UNK     1      10.336  -1.787  21.491  0.00  0.00    -0.480 OA
ATOM     10  H   UNK     1      10.626  -0.933  21.093  0.00  0.00    +0.295 HD
ENDBRANCH   7   9
ENDBRANCH   1   7
TORSDOF 2
ENDMDL
MODEL 5
REMARK VINA RESULT:      -3.6      6.373      7.072
REMARK  Name = 
REMARK  2 active torsions:
REMARK  status: ('A' for Active; 'I' for Inactive)
REMARK    1  A    between atoms: O_1  and  C_2
REMARK    2  A    between atoms: C_2  and  C_4
REMARK                            x       y       z     vdW  Elec       q    Type
REMARK                         _______ _______ _______ _____ _____    ______ ____
ROOT
ATOM      1  C   UNK     1       9.529   0.598  23.012  0.00  0.00    +0.174 C 
ATOM      2  N   UNK     1      10.397  -0.283  23.858  0.00  0.00    -0.295 NA
ATOM      3  H   UNK     1      11.304  -0.351  23.385  0.00  0.00    +0.123 HD
ATOM      4  C   UNK     1       9.818  -1.631  23.765  0.00  0.00    +0.151 C 
ATOM      5  S   UNK     1       8.993  -1.805  22.169  0.00  0.00    -0.143 S 
ATOM      6  C   UNK     1       9.301  -0.095  21.681  0.00  0.00    +0.100 C 
ENDROOT
BRANCH   1   7
ATOM      7  C   UNK     1      10.226   1.944  22.813  0.00  0.00    +0.323 C 
ATOM      8  O   UNK     1      10.760   2.596  23.695  0.00  0.00    -0.249 OA
BRANCH   7   9
ATOM      9  O   UNK     1      10.204   2.329  21.514  0.00  0.00    -0.480 OA
ATOM     10  H   UNK     1       9.363   2.006  21.113  0.00  0.00    +0.295 HD
ENDBRANCH   7   9
ENDBRANCH   1   7
TORSDOF 2
ENDMDL
MODEL 6
REMARK VINA RESULT:      -3.6     11.784     12.163
REMARK  Name = 
REMARK  2 active torsions:
REMARK  status: ('A' for Active; 'I' for Inactive)
REMARK    1  A    between atoms: O_1  and  C_2
REMARK    2  A    between atoms: C_2  and  C_4
REMARK                            x       y       z     vdW  Elec       q    Type
REMARK                         _______ _______ _______ _____ _____    ______ ____
ROOT
ATOM      1  C   UNK     1      12.203   6.261  23.488  0.00  0.00    +0.174 C 
ATOM      2  N   UNK     1      12.823   6.497  24.832  0.00  0.00    -0.295 NA
ATOM      3  H   UNK     1      13.028   5.576  25.232  0.00  0.00    +0.123 HD
ATOM      4  C   UNK     1      11.755   7.049  25.678  0.00  0.00    +0.151 C 
ATOM      5  S   UNK     1      10.165   6.424  25.098  0.00  0.00    -0.143 S 
ATOM      6  C   UNK     1      10.881   5.545  23.693  0.00  0.00    +0.100 C 
ENDROOT
BRANCH   1   7
ATOM      7  C   UNK     1      13.155   5.416  22.641  0.00  0.00    +0.323 C 
ATOM      8  O   UNK     1      12.997   5.146  21.462  0.00  0.00    -0.249 OA
BRANCH   7   9
ATOM      9  O   UNK     1      14.230   5.009  23.359  0.00  0.00    -0.480 OA
ATOM     10  H   UNK     1      14.065   5.222  24.307  0.00  0.00    +0.295 HD
ENDBRANCH   7   9
ENDBRANCH   1   7
TORSDOF 2
ENDMDL
MODEL 7
REMARK VINA RESULT:      -3.6      3.718      4.338
REMARK  Name = 
REMARK  2 active torsions:
REMARK  status: ('A' for Active; 'I' for Inactive)
REMARK    1  A    between atoms: O_1  and  C_2
REMARK    2  A    between atoms: C_2  and  C_4
REMARK                            x       y       z     vdW  Elec       q    Type
REMARK                         _______ _______ _______ _____ _____    ______ ____
ROOT
ATOM      1  C   UNK     1       9.097  -2.165  23.507  0.00  0.00    +0.174 C 
ATOM      2  N   UNK     1       9.872  -3.281  24.141  0.00  0.00    -0.295 NA
ATOM      3  H   UNK     1      10.401  -3.740  23.392  0.00  0.00    +0.123 HD
ATOM      4  C   UNK     1       8.874  -4.274  24.565  0.00  0.00    +0.151 C 
ATOM      5  S   UNK     1       7.444  -4.174  23.468  0.00  0.00    -0.143 S 
ATOM      6  C   UNK     1       8.095  -2.769  22.541  0.00  0.00    +0.100 C 
ENDROOT
BRANCH   1   7
ATOM      7  C   UNK     1      10.068  -1.237  22.776  0.00  0.00    +0.323 C 
ATOM      8  O   UNK     1      10.660  -0.298  23.282  0.00  0.00    -0.249 OA
BRANCH   7   9
ATOM      9  O   UNK     1      10.218  -1.598  21.478  0.00  0.00    -0.480 OA
ATOM     10  H   UNK     1      10.757  -0.907  21.027  0.00  0.00    +0.295 HD
ENDBRANCH   7   9
ENDBRANCH   1   7
TORSDOF 2
ENDMDL
MODEL 8
REMARK VINA RESULT:      -3.5      6.577      7.197
REMARK  Name = 
REMARK  2 active torsions:
REMARK  status: ('A' for Active; 'I' for Inactive)
REMARK    1  A    between atoms: O_1  and  C_2
REMARK    2  A    between atoms: C_2  and  C_4
REMARK                            x       y       z     vdW  Elec       q    Type
REMARK                         _______ _______ _______ _____ _____    ______ ____
ROOT
ATOM      1  C   UNK     1       8.793   0.370  22.594  0.00  0.00    +0.174 C 
ATOM      2  N   UNK     1       9.526   0.641  23.873  0.00  0.00    -0.295 NA
ATOM      3  H   UNK     1      10.428   1.056  23.618  0.00  0.00    +0.123 HD
ATOM      4  C   UNK     1       9.860  -0.677  24.434  0.00  0.00    +0.151 C 
ATOM      5  S   UNK     1      10.043  -1.860  23.082  0.00  0.00    -0.143 S 
ATOM      6  C   UNK     1       9.571  -0.670  21.810  0.00  0.00    +0.100 C 
ENDROOT
BRANCH   1   7
ATOM      7  C   UNK     1       8.673   1.673  21.803  0.00  0.00    +0.323 C 
ATOM      8  O   UNK     1       7.625   2.228  21.516  0.00  0.00    -0.249 OA
BRANCH   7   9
ATOM      9  O   UNK     1       9.891   2.165  21.468  0.00  0.00    -0.480 OA
ATOM     10  H   UNK     1       9.756   2.983  20.936  0.00  0.00    +0.295 HD
ENDBRANCH   7   9
ENDBRANCH   1   7
TORSDOF 2
ENDMDL
MODEL 9
REMARK VINA RESULT:      -3.5      2.773      3.290
REMARK  Name = 
REMARK  2 active torsions:
REMARK  status: ('A' for Active; 'I' for Inactive)
REMARK    1  A    between atoms: O_1  and  C_2
REMARK    2  A    between atoms: C_2  and  C_4
REMARK                            x       y       z     vdW  Elec       q    Type
REMARK                         _______ _______ _______ _____ _____    ______ ____
ROOT
ATOM      1  C   UNK     1       8.063  -4.489  24.396  0.00  0.00    +0.174 C 
ATOM      2  N   UNK     1       7.759  -5.385  23.234  0.00  0.00    -0.295 NA
ATOM      3  H   UNK     1       8.650  -5.581  22.766  0.00  0.00    +0.123 HD
ATOM      4  C   UNK     1       7.003  -4.563  22.278  0.00  0.00    +0.151 C 
ATOM      5  S   UNK     1       7.501  -2.838  22.465  0.00  0.00    -0.143 S 
ATOM      6  C   UNK     1       8.598  -3.175  23.858  0.00  0.00    +0.100 C 
ENDROOT
BRANCH   1   7
ATOM      7  C   UNK     1       9.096  -5.171  25.294  0.00  0.00    +0.323 C 
ATOM      8  O   UNK     1      10.305  -5.106  25.151  0.00  0.00    -0.249 OA
BRANCH   7   9
ATOM      9  O   UNK     1       8.502  -5.854  26.304  0.00  0.00    -0.480 OA
ATOM     10  H   UNK     1       8.637  -6.817  26.144  0.00  0.00    +0.295 HD
ENDBRANCH   7   9
ENDBRANCH   1   7
TORSDOF 2
ENDMDL
