MODEL 1
REMARK VINA RESULT:      -6.7      0.000      0.000
REMARK  Name = 
REMARK  8 active torsions:
REMARK  status: ('A' for Active; 'I' for Inactive)
REMARK    1  A    between atoms: N_1  and  C_2
REMARK    2  A    between atoms: C_2  and  C_4
REMARK    3  A    between atoms: C_2  and  C_24
REMARK    4  A    between atoms: C_4  and  S_5
REMARK    5  A    between atoms: S_5  and  C_6
REMARK    6  A    between atoms: C_6  and  C_7
REMARK    7  A    between atoms: N_9  and  C_10
REMARK    8  A    between atoms: C_24  and  O_25
REMARK                            x       y       z     vdW  Elec       q    Type
REMARK                         _______ _______ _______ _____ _____    ______ ____
ROOT
ATOM      1  C   UNK     1       9.584  -2.267  23.865  0.00  0.00    +0.227 C 
ATOM      2  N   UNK     1       8.221  -2.251  24.166  0.00  0.00    -0.284 N 
ATOM      3  H   UNK     1       7.784  -1.349  24.291  0.00  0.00    +0.155 HD
ATOM      4  O   UNK     1      10.290  -3.268  23.967  0.00  0.00    -0.275 OA
ENDROOT
BRANCH   2   5
ATOM      5  C   UNK     1       7.484  -3.416  24.566  0.00  0.00    +0.043 A 
ATOM      6  C   UNK     1       6.875  -4.287  23.622  0.00  0.00    +0.024 A 
ATOM      7  C   UNK     1       6.989  -4.134  22.218  0.00  0.00    +0.013 A 
ATOM      8  C   UNK     1       6.353  -5.007  21.342  0.00  0.00    +0.020 A 
ATOM      9  C   UNK     1       5.604  -6.023  21.880  0.00  0.00    +0.111 A 
ATOM     10  N   UNK     1       5.465  -6.212  23.204  0.00  0.00    -0.253 NA
ATOM     11  C   UNK     1       6.074  -5.376  24.082  0.00  0.00    +0.099 A 
ATOM     12  C   UNK     1       5.885  -5.598  25.460  0.00  0.00    +0.097 A 
ATOM     13  N   UNK     1       5.096  -6.601  25.936  0.00  0.00    -0.253 NA
ATOM     14  C   UNK     1       4.934  -6.755  27.269  0.00  0.00    +0.111 A 
ATOM     15  C   UNK     1       5.536  -5.951  28.210  0.00  0.00    +0.020 A 
ATOM     16  C   UNK     1       6.354  -4.935  27.749  0.00  0.00    +0.011 A 
ATOM     17  C   UNK     1       6.534  -4.751  26.371  0.00  0.00    +0.004 A 
ATOM     18  C   UNK     1       7.342  -3.710  25.922  0.00  0.00    +0.034 A 
ENDBRANCH   2   5
BRANCH   1  19
ATOM     19  C   UNK     1      10.174  -0.913  23.419  0.00  0.00    +0.165 C 
BRANCH  19  20
ATOM     20  S   UNK     1       9.938   0.279  24.799  0.00  0.00    -0.149 S 
BRANCH  20  21
ATOM     21  C   UNK     1       9.144   1.699  23.988  0.00  0.00    +0.099 C 
BRANCH  21  22
ATOM     22  C   UNK     1       8.638   1.215  22.614  0.00  0.00    +0.171 C 
BRANCH  22  23
ATOM     23  N   UNK     1       9.126   2.041  21.455  0.00  0.00    -0.318 NA
ATOM     24  H   UNK     1       9.939   2.579  21.775  0.00  0.00    +0.119 HD
ATOM     25  H   UNK     1       9.550   1.372  20.795  0.00  0.00    +0.119 HD
ENDBRANCH  22  23
BRANCH  22  26
ATOM     26  C   UNK     1       7.110   1.193  22.560  0.00  0.00    +0.323 C 
ATOM     27  O   UNK     1       6.394   2.153  22.331  0.00  0.00    -0.249 OA
BRANCH  26  28
ATOM     28  O   UNK     1       6.636  -0.050  22.848  0.00  0.00    -0.480 OA
ATOM     29  H   UNK     1       5.956   0.074  23.561  0.00  0.00    +0.295 HD
ENDBRANCH  26  28
ENDBRANCH  22  26
ENDBRANCH  21  22
ENDBRANCH  20  21
ENDBRANCH  19  20
ENDBRANCH   1  19
TORSDOF 8
ENDMDL
MODEL 2
REMARK VINA RESULT:      -6.6      2.955      8.324
REMARK  Name = 
REMARK  8 active torsions:
REMARK  status: ('A' for Active; 'I' for Inactive)
REMARK    1  A    between atoms: N_1  and  C_2
REMARK    2  A    between atoms: C_2  and  C_4
REMARK    3  A    between atoms: C_2  and  C_24
REMARK    4  A    between atoms: C_4  and  S_5
REMARK    5  A    between atoms: S_5  and  C_6
REMARK    6  A    between atoms: C_6  and  C_7
REMARK    7  A    between atoms: N_9  and  C_10
REMARK    8  A    between atoms: C_24  and  O_25
REMARK                            x       y       z     vdW  Elec       q    Type
REMARK                         _______ _______ _______ _____ _____    ______ ____
ROOT
ATOM      1  C   UNK     1       9.696  -1.103  24.180  0.00  0.00    +0.227 C 
ATOM      2  N   UNK     1       9.555  -0.141  23.178  0.00  0.00    -0.284 N 
ATOM      3  H   UNK     1       9.757  -0.425  22.231  0.00  0.00    +0.155 HD
ATOM      4  O   UNK     1       9.761  -0.832  25.377  0.00  0.00    -0.275 OA
ENDROOT
BRANCH   2   5
ATOM      5  C   UNK     1       9.407   1.262  23.442  0.00  0.00    +0.043 A 
ATOM      6  C   UNK     1       8.138   1.855  23.691  0.00  0.00    +0.024 A 
ATOM      7  C   UNK     1       6.927   1.125  23.770  0.00  0.00    +0.013 A 
ATOM      8  C   UNK     1       5.712   1.763  23.995  0.00  0.00    +0.020 A 
ATOM      9  C   UNK     1       5.721   3.128  24.136  0.00  0.00    +0.111 A 
ATOM     10  N   UNK     1       6.842   3.866  24.071  0.00  0.00    -0.253 NA
ATOM     11  C   UNK     1       8.042   3.271  23.852  0.00  0.00    +0.099 A 
ATOM     12  C   UNK     1       9.189   4.085  23.770  0.00  0.00    +0.097 A 
ATOM     13  N   UNK     1       9.130   5.440  23.878  0.00  0.00    -0.253 NA
ATOM     14  C   UNK     1      10.262   6.173  23.772  0.00  0.00    +0.111 A 
ATOM     15  C   UNK     1      11.509   5.629  23.565  0.00  0.00    +0.020 A 
ATOM     16  C   UNK     1      11.592   4.252  23.468  0.00  0.00    +0.011 A 
ATOM     17  C   UNK     1      10.433   3.469  23.569  0.00  0.00    +0.004 A 
ATOM     18  C   UNK     1      10.531   2.086  23.446  0.00  0.00    +0.034 A 
ENDBRANCH   2   5
BRANCH   1  19
ATOM     19  C   UNK     1       9.804  -2.558  23.683  0.00  0.00    +0.165 C 
BRANCH  19  20
ATOM     20  S   UNK     1       8.112  -3.120  23.232  0.00  0.00    -0.149 S 
BRANCH  20  21
ATOM     21  C   UNK     1       7.978  -4.735  24.056  0.00  0.00    +0.099 C 
BRANCH  21  22
ATOM     22  C   UNK     1       8.943  -4.713  25.259  0.00  0.00    +0.171 C 
BRANCH  22  23
ATOM     23  N   UNK     1       9.936  -5.843  25.269  0.00  0.00    -0.318 NA
ATOM     24  H   UNK     1      10.202  -6.018  26.246  0.00  0.00    +0.119 HD
ATOM     25  H   UNK     1       9.399  -6.690  25.033  0.00  0.00    +0.119 HD
ENDBRANCH  22  23
BRANCH  22  26
ATOM     26  C   UNK     1       8.180  -4.751  26.583  0.00  0.00    +0.323 C 
ATOM     27  O   UNK     1       7.663  -3.792  27.133  0.00  0.00    -0.249 OA
BRANCH  26  28
ATOM     28  O   UNK     1       8.183  -6.007  27.106  0.00  0.00    -0.480 OA
ATOM     29  H   UNK     1       8.018  -5.900  28.079  0.00  0.00    +0.295 HD
ENDBRANCH  26  28
ENDBRANCH  22  26
ENDBRANCH  21  22
ENDBRANCH  20  21
ENDBRANCH  19  20
ENDBRANCH   1  19
TORSDOF 8
ENDMDL
MODEL 3
REMARK VINA RESULT:      -6.5      2.495      4.370
REMARK  Name = 
REMARK  8 active torsions:
REMARK  status: ('A' for Active; 'I' for Inactive)
REMARK    1  A    between atoms: N_1  and  C_2
REMARK    2  A    between atoms: C_2  and  C_4
REMARK    3  A    between atoms: C_2  and  C_24
REMARK    4  A    between atoms: C_4  and  S_5
REMARK    5  A    between atoms: S_5  and  C_6
REMARK    6  A    between atoms: C_6  and  C_7
REMARK    7  A    between atoms: N_9  and  C_10
REMARK    8  A    between atoms: C_24  and  O_25
REMARK                            x       y       z     vdW  Elec       q    Type
REMARK                         _______ _______ _______ _____ _____    ______ ____
ROOT
ATOM      1  C   UNK     1       6.898   0.843  22.712  0.00  0.00    +0.227 C 
ATOM      2  N   UNK     1       6.275  -0.077  23.557  0.00  0.00    -0.284 N 
ATOM      3  H   UNK     1       5.765   0.290  24.348  0.00  0.00    +0.155 HD
ATOM      4  O   UNK     1       7.767   0.536  21.899  0.00  0.00    -0.275 OA
ENDROOT
BRANCH   2   5
ATOM      5  C   UNK     1       6.536  -1.488  23.523  0.00  0.00    +0.043 A 
ATOM      6  C   UNK     1       7.293  -2.142  24.535  0.00  0.00    +0.024 A 
ATOM      7  C   UNK     1       7.796  -1.492  25.688  0.00  0.00    +0.013 A 
ATOM      8  C   UNK     1       8.549  -2.179  26.634  0.00  0.00    +0.020 A 
ATOM      9  C   UNK     1       8.794  -3.511  26.414  0.00  0.00    +0.111 A 
ATOM     10  N   UNK     1       8.338  -4.174  25.337  0.00  0.00    -0.253 NA
ATOM     11  C   UNK     1       7.602  -3.530  24.398  0.00  0.00    +0.099 A 
ATOM     12  C   UNK     1       7.162  -4.257  23.275  0.00  0.00    +0.097 A 
ATOM     13  N   UNK     1       7.471  -5.570  23.090  0.00  0.00    -0.253 NA
ATOM     14  C   UNK     1       7.038  -6.214  21.983  0.00  0.00    +0.111 A 
ATOM     15  C   UNK     1       6.276  -5.621  21.002  0.00  0.00    +0.020 A 
ATOM     16  C   UNK     1       5.938  -4.291  21.177  0.00  0.00    +0.011 A 
ATOM     17  C   UNK     1       6.379  -3.599  22.315  0.00  0.00    +0.004 A 
ATOM     18  C   UNK     1       6.049  -2.255  22.465  0.00  0.00    +0.034 A 
ENDBRANCH   2   5
BRANCH   1  19
ATOM     19  C   UNK     1       6.446   2.306  22.888  0.00  0.00    +0.165 C 
BRANCH  19  20
ATOM     20  S   UNK     1       7.921   3.378  22.646  0.00  0.00    -0.149 S 
BRANCH  20  21
ATOM     21  C   UNK     1       9.010   2.901  24.020  0.00  0.00    +0.099 C 
BRANCH  21  22
ATOM     22  C   UNK     1      10.288   2.299  23.401  0.00  0.00    +0.171 C 
BRANCH  22  23
ATOM     23  N   UNK     1      10.278   2.253  21.897  0.00  0.00    -0.318 NA
ATOM     24  H   UNK     1      11.254   2.202  21.580  0.00  0.00    +0.119 HD
ATOM     25  H   UNK     1       9.916   1.321  21.648  0.00  0.00    +0.119 HD
ENDBRANCH  22  23
BRANCH  22  26
ATOM     26  C   UNK     1      10.535   0.878  23.909  0.00  0.00    +0.323 C 
ATOM     27  O   UNK     1      10.839   0.576  25.051  0.00  0.00    -0.249 OA
BRANCH  26  28
ATOM     28  O   UNK     1      10.411  -0.024  22.898  0.00  0.00    -0.480 OA
ATOM     29  H   UNK     1      10.264  -0.904  23.332  0.00  0.00    +0.295 HD
ENDBRANCH  26  28
ENDBRANCH  22  26
ENDBRANCH  21  22
ENDBRANCH  20  21
ENDBRANCH  19  20
ENDBRANCH   1  19
TORSDOF 8
ENDMDL
MODEL 4
REMARK VINA RESULT:      -6.1      3.125      4.375
REMARK  Name = 
REMARK  8 active torsions:
REMARK  status: ('A' for Active; 'I' for Inactive)
REMARK    1  A    between atoms: N_1  and  C_2
REMARK    2  A    between atoms: C_2  and  C_4
REMARK    3  A    between atoms: C_2  and  C_24
REMARK    4  A    between atoms: C_4  and  S_5
REMARK    5  A    between atoms: S_5  and  C_6
REMARK    6  A    between atoms: C_6  and  C_7
REMARK    7  A    between atoms: N_9  and  C_10
REMARK    8  A    between atoms: C_24  and  O_25
REMARK                            x       y       z     vdW  Elec       q    Type
REMARK                         _______ _______ _______ _____ _____    ______ ____
ROOT
ATOM      1  C   UNK     1       7.072   1.478  26.038  0.00  0.00    +0.227 C 
ATOM      2  N   UNK     1       8.309   0.858  26.232  0.00  0.00    -0.284 N 
ATOM      3  H   UNK     1       9.068   1.432  26.570  0.00  0.00    +0.155 HD
ATOM      4  O   UNK     1       6.162   0.983  25.378  0.00  0.00    -0.275 OA
ENDROOT
BRANCH   2   5
ATOM      5  C   UNK     1       8.626  -0.450  25.735  0.00  0.00    +0.043 A 
ATOM      6  C   UNK     1       9.242  -0.649  24.468  0.00  0.00    +0.024 A 
ATOM      7  C   UNK     1       9.656   0.405  23.617  0.00  0.00    +0.013 A 
ATOM      8  C   UNK     1      10.234   0.150  22.379  0.00  0.00    +0.020 A 
ATOM      9  C   UNK     1      10.388  -1.161  22.001  0.00  0.00    +0.111 A 
ATOM     10  N   UNK     1      10.013  -2.197  22.771  0.00  0.00    -0.253 NA
ATOM     11  C   UNK     1       9.446  -1.977  23.984  0.00  0.00    +0.099 A 
ATOM     12  C   UNK     1       9.048  -3.091  24.749  0.00  0.00    +0.097 A 
ATOM     13  N   UNK     1       9.189  -4.369  24.305  0.00  0.00    -0.253 NA
ATOM     14  C   UNK     1       8.771  -5.400  25.074  0.00  0.00    +0.111 A 
ATOM     15  C   UNK     1       8.203  -5.245  26.318  0.00  0.00    +0.020 A 
ATOM     16  C   UNK     1       8.064  -3.954  26.795  0.00  0.00    +0.011 A 
ATOM     17  C   UNK     1       8.485  -2.867  26.015  0.00  0.00    +0.004 A 
ATOM     18  C   UNK     1       8.317  -1.574  26.500  0.00  0.00    +0.034 A 
ENDBRANCH   2   5
BRANCH   1  19
ATOM     19  C   UNK     1       6.926   2.868  26.687  0.00  0.00    +0.165 C 
BRANCH  19  20
ATOM     20  S   UNK     1       7.749   4.089  25.585  0.00  0.00    -0.149 S 
BRANCH  20  21
ATOM     21  C   UNK     1       6.584   4.246  24.199  0.00  0.00    +0.099 C 
BRANCH  21  22
ATOM     22  C   UNK     1       7.367   3.937  22.907  0.00  0.00    +0.171 C 
BRANCH  22  23
ATOM     23  N   UNK     1       7.282   5.019  21.864  0.00  0.00    -0.318 NA
ATOM     24  H   UNK     1       8.113   5.614  21.962  0.00  0.00    +0.119 HD
ATOM     25  H   UNK     1       7.451   4.550  20.962  0.00  0.00    +0.119 HD
ENDBRANCH  22  23
BRANCH  22  26
ATOM     26  C   UNK     1       6.891   2.633  22.267  0.00  0.00    +0.323 C 
ATOM     27  O   UNK     1       7.485   2.007  21.404  0.00  0.00    -0.249 OA
BRANCH  26  28
ATOM     28  O   UNK     1       5.676   2.270  22.760  0.00  0.00    -0.480 OA
ATOM     29  H   UNK     1       5.819   2.071  23.723  0.00  0.00    +0.295 HD
ENDBRANCH  26  28
ENDBRANCH  22  26
ENDBRANCH  21  22
ENDBRANCH  20  21
ENDBRANCH  19  20
ENDBRANCH   1  19
TORSDOF 8
ENDMDL
MODEL 5
REMARK VINA RESULT:      -6.0      1.905      3.267
REMARK  Name = 
REMARK  8 active torsions:
REMARK  status: ('A' for Active; 'I' for Inactive)
REMARK    1  A    between atoms: N_1  and  C_2
REMARK    2  A    between atoms: C_2  and  C_4
REMARK    3  A    between atoms: C_2  and  C_24
REMARK    4  A    between atoms: C_4  and  S_5
REMARK    5  A    between atoms: S_5  and  C_6
REMARK    6  A    between atoms: C_6  and  C_7
REMARK    7  A    between atoms: N_9  and  C_10
REMARK    8  A    between atoms: C_24  and  O_25
REMARK                            x       y       z     vdW  Elec       q    Type
REMARK                         _______ _______ _______ _____ _____    ______ ____
ROOT
ATOM      1  C   UNK     1       7.604  -2.147  22.740  0.00  0.00    +0.227 C 
ATOM      2  N   UNK     1       7.533  -3.539  22.667  0.00  0.00    -0.284 N 
ATOM      3  H   UNK     1       8.004  -3.989  21.896  0.00  0.00    +0.155 HD
ATOM      4  O   UNK     1       6.860  -1.464  23.441  0.00  0.00    -0.275 OA
ENDROOT
BRANCH   2   5
ATOM      5  C   UNK     1       6.625  -4.328  23.451  0.00  0.00    +0.043 A 
ATOM      6  C   UNK     1       6.930  -4.737  24.778  0.00  0.00    +0.024 A 
ATOM      7  C   UNK     1       8.107  -4.359  25.470  0.00  0.00    +0.013 A 
ATOM      8  C   UNK     1       8.362  -4.809  26.761  0.00  0.00    +0.020 A 
ATOM      9  C   UNK     1       7.437  -5.636  27.346  0.00  0.00    +0.111 A 
ATOM     10  N   UNK     1       6.305  -6.023  26.734  0.00  0.00    -0.253 NA
ATOM     11  C   UNK     1       6.030  -5.601  25.474  0.00  0.00    +0.099 A 
ATOM     12  C   UNK     1       4.843  -6.047  24.861  0.00  0.00    +0.097 A 
ATOM     13  N   UNK     1       3.981  -6.902  25.477  0.00  0.00    -0.253 NA
ATOM     14  C   UNK     1       2.866  -7.314  24.833  0.00  0.00    +0.111 A 
ATOM     15  C   UNK     1       2.523  -6.910  23.563  0.00  0.00    +0.020 A 
ATOM     16  C   UNK     1       3.378  -6.029  22.925  0.00  0.00    +0.011 A 
ATOM     17  C   UNK     1       4.544  -5.591  23.568  0.00  0.00    +0.004 A 
ATOM     18  C   UNK     1       5.405  -4.723  22.904  0.00  0.00    +0.034 A 
ENDBRANCH   2   5
BRANCH   1  19
ATOM     19  C   UNK     1       8.675  -1.497  21.840  0.00  0.00    +0.165 C 
BRANCH  19  20
ATOM     20  S   UNK     1      10.265  -1.512  22.765  0.00  0.00    -0.149 S 
BRANCH  20  21
ATOM     21  C   UNK     1      10.499   0.234  23.214  0.00  0.00    +0.099 C 
BRANCH  21  22
ATOM     22  C   UNK     1       9.352   1.031  22.559  0.00  0.00    +0.171 C 
BRANCH  22  23
ATOM     23  N   UNK     1       9.813   2.076  21.580  0.00  0.00    -0.318 NA
ATOM     24  H   UNK     1      10.605   1.687  21.056  0.00  0.00    +0.119 HD
ATOM     25  H   UNK     1       9.077   2.129  20.861  0.00  0.00    +0.119 HD
ENDBRANCH  22  23
BRANCH  22  26
ATOM     26  C   UNK     1       8.487   1.725  23.611  0.00  0.00    +0.323 C 
ATOM     27  O   UNK     1       7.287   1.928  23.523  0.00  0.00    -0.249 OA
BRANCH  26  28
ATOM     28  O   UNK     1       9.245   2.135  24.664  0.00  0.00    -0.480 OA
ATOM     29  H   UNK     1       8.624   2.596  25.286  0.00  0.00    +0.295 HD
ENDBRANCH  26  28
ENDBRANCH  22  26
ENDBRANCH  21  22
ENDBRANCH  20  21
ENDBRANCH  19  20
ENDBRANCH   1  19
TORSDOF 8
ENDMDL
MODEL 6
REMARK VINA RESULT:      -6.0      2.941      8.278
REMARK  Name = 
REMARK  8 active torsions:
REMARK  status: ('A' for Active; 'I' for Inactive)
REMARK    1  A    between atoms: N_1  and  C_2
REMARK    2  A    between atoms: C_2  and  C_4
REMARK    3  A    between atoms: C_2  and  C_24
REMARK    4  A    between atoms: C_4  and  S_5
REMARK    5  A    between atoms: S_5  and  C_6
REMARK    6  A    between atoms: C_6  and  C_7
REMARK    7  A    between atoms: N_9  and  C_10
REMARK    8  A    between atoms: C_24  and  O_25
REMARK                            x       y       z     vdW  Elec       q    Type
REMARK                         _______ _______ _______ _____ _____    ______ ____
ROOT
ATOM      1  C   UNK     1       8.522  -0.878  23.714  0.00  0.00    +0.227 C 
ATOM      2  N   UNK     1       8.622   0.042  22.668  0.00  0.00    -0.284 N 
ATOM      3  H   UNK     1       9.238  -0.191  21.903  0.00  0.00    +0.155 HD
ATOM      4  O   UNK     1       8.046  -0.605  24.814  0.00  0.00    -0.275 OA
ENDROOT
BRANCH   2   5
ATOM      5  C   UNK     1       8.122   1.385  22.743  0.00  0.00    +0.043 A 
ATOM      6  C   UNK     1       8.966   2.490  23.046  0.00  0.00    +0.024 A 
ATOM      7  C   UNK     1      10.366   2.387  23.231  0.00  0.00    +0.013 A 
ATOM      8  C   UNK     1      11.137   3.500  23.547  0.00  0.00    +0.020 A 
ATOM      9  C   UNK     1      10.498   4.707  23.677  0.00  0.00    +0.111 A 
ATOM     10  N   UNK     1       9.173   4.859  23.509  0.00  0.00    -0.253 NA
ATOM     11  C   UNK     1       8.395   3.790  23.202  0.00  0.00    +0.099 A 
ATOM     12  C   UNK     1       7.009   3.990  23.057  0.00  0.00    +0.097 A 
ATOM     13  N   UNK     1       6.424   5.205  23.238  0.00  0.00    -0.253 NA
ATOM     14  C   UNK     1       5.084   5.335  23.105  0.00  0.00    +0.111 A 
ATOM     15  C   UNK     1       4.244   4.295  22.780  0.00  0.00    +0.020 A 
ATOM     16  C   UNK     1       4.820   3.053  22.576  0.00  0.00    +0.011 A 
ATOM     17  C   UNK     1       6.206   2.891  22.713  0.00  0.00    +0.004 A 
ATOM     18  C   UNK     1       6.767   1.631  22.528  0.00  0.00    +0.034 A 
ENDBRANCH   2   5
BRANCH   1  19
ATOM     19  C   UNK     1       9.089  -2.279  23.412  0.00  0.00    +0.165 C 
BRANCH  19  20
ATOM     20  S   UNK     1       7.667  -3.403  23.103  0.00  0.00    -0.149 S 
BRANCH  20  21
ATOM     21  C   UNK     1       8.167  -4.941  23.932  0.00  0.00    +0.099 C 
BRANCH  21  22
ATOM     22  C   UNK     1       9.062  -4.547  25.124  0.00  0.00    +0.171 C 
BRANCH  22  23
ATOM     23  N   UNK     1      10.209  -5.490  25.369  0.00  0.00    -0.318 NA
ATOM     24  H   UNK     1      10.647  -5.692  24.462  0.00  0.00    +0.119 HD
ATOM     25  H   UNK     1      10.933  -4.932  25.844  0.00  0.00    +0.119 HD
ENDBRANCH  22  23
BRANCH  22  26
ATOM     26  C   UNK     1       8.254  -4.450  26.417  0.00  0.00    +0.323 C 
ATOM     27  O   UNK     1       7.637  -3.468  26.798  0.00  0.00    -0.249 OA
BRANCH  26  28
ATOM     28  O   UNK     1       8.341  -5.607  27.128  0.00  0.00    -0.480 OA
ATOM     29  H   UNK     1       7.526  -5.644  27.695  0.00  0.00    +0.295 HD
ENDBRANCH  26  28
ENDBRANCH  22  26
ENDBRANCH  21  22
ENDBRANCH  20  21
ENDBRANCH  19  20
ENDBRANCH   1  19
TORSDOF 8
ENDMDL
MODEL 7
REMARK VINA RESULT:      -5.8      2.303      3.636
REMARK  Name = 
REMARK  8 active torsions:
REMARK  status: ('A' for Active; 'I' for Inactive)
REMARK    1  A    between atoms: N_1  and  C_2
REMARK    2  A    between atoms: C_2  and  C_4
REMARK    3  A    between atoms: C_2  and  C_24
REMARK    4  A    between atoms: C_4  and  S_5
REMARK    5  A    between atoms: S_5  and  C_6
REMARK    6  A    between atoms: C_6  and  C_7
REMARK    7  A    between atoms: N_9  and  C_10
REMARK    8  A    between atoms: C_24  and  O_25
REMARK                            x       y       z     vdW  Elec       q    Type
REMARK                         _______ _______ _______ _____ _____    ______ ____
ROOT
ATOM      1  C   UNK     1       9.449  -0.345  23.099  0.00  0.00    +0.227 C 
ATOM      2  N   UNK     1       8.155  -0.516  22.604  0.00  0.00    -0.284 N 
ATOM      3  H   UNK     1       7.723   0.275  22.151  0.00  0.00    +0.155 HD
ATOM      4  O   UNK     1       9.975  -1.109  23.905  0.00  0.00    -0.275 OA
ENDROOT
BRANCH   2   5
ATOM      5  C   UNK     1       7.322  -1.638  22.936  0.00  0.00    +0.043 A 
ATOM      6  C   UNK     1       6.399  -1.600  24.017  0.00  0.00    +0.024 A 
ATOM      7  C   UNK     1       6.163  -0.454  24.815  0.00  0.00    +0.013 A 
ATOM      8  C   UNK     1       5.262  -0.484  25.874  0.00  0.00    +0.020 A 
ATOM      9  C   UNK     1       4.607  -1.663  26.125  0.00  0.00    +0.111 A 
ATOM     10  N   UNK     1       4.793  -2.778  25.397  0.00  0.00    -0.253 NA
ATOM     11  C   UNK     1       5.667  -2.778  24.359  0.00  0.00    +0.099 A 
ATOM     12  C   UNK     1       5.847  -3.974  23.636  0.00  0.00    +0.097 A 
ATOM     13  N   UNK     1       5.199  -5.126  23.958  0.00  0.00    -0.253 NA
ATOM     14  C   UNK     1       5.425  -6.250  23.241  0.00  0.00    +0.111 A 
ATOM     15  C   UNK     1       6.286  -6.311  22.169  0.00  0.00    +0.020 A 
ATOM     16  C   UNK     1       6.945  -5.147  21.815  0.00  0.00    +0.011 A 
ATOM     17  C   UNK     1       6.731  -3.970  22.546  0.00  0.00    +0.004 A 
ATOM     18  C   UNK     1       7.418  -2.813  22.192  0.00  0.00    +0.034 A 
ENDBRANCH   2   5
BRANCH   1  19
ATOM     19  C   UNK     1      10.186   0.910  22.588  0.00  0.00    +0.165 C 
BRANCH  19  20
ATOM     20  S   UNK     1      10.303   2.097  23.987  0.00  0.00    -0.149 S 
BRANCH  20  21
ATOM     21  C   UNK     1       8.619   2.770  24.102  0.00  0.00    +0.099 C 
BRANCH  21  22
ATOM     22  C   UNK     1       8.276   3.377  22.726  0.00  0.00    +0.171 C 
BRANCH  22  23
ATOM     23  N   UNK     1       8.331   4.880  22.688  0.00  0.00    -0.318 NA
ATOM     24  H   UNK     1       8.230   5.222  23.651  0.00  0.00    +0.119 HD
ATOM     25  H   UNK     1       9.310   5.118  22.471  0.00  0.00    +0.119 HD
ENDBRANCH  22  23
BRANCH  22  26
ATOM     26  C   UNK     1       6.884   2.949  22.261  0.00  0.00    +0.323 C 
ATOM     27  O   UNK     1       6.471   1.802  22.220  0.00  0.00    -0.249 OA
BRANCH  26  28
ATOM     28  O   UNK     1       6.161   4.027  21.851  0.00  0.00    -0.480 OA
ATOM     29  H   UNK     1       5.570   3.699  21.123  0.00  0.00    +0.295 HD
ENDBRANCH  26  28
ENDBRANCH  22  26
ENDBRANCH  21  22
ENDBRANCH  20  21
ENDBRANCH  19  20
ENDBRANCH   1  19
TORSDOF 8
ENDMDL
MODEL 8
REMARK VINA RESULT:      -5.7      3.045      7.308
REMARK  Name = 
REMARK  8 active torsions:
REMARK  status: ('A' for Active; 'I' for Inactive)
REMARK    1  A    between atoms: N_1  and  C_2
REMARK    2  A    between atoms: C_2  and  C_4
REMARK    3  A    between atoms: C_2  and  C_24
REMARK    4  A    between atoms: C_4  and  S_5
REMARK    5  A    between atoms: S_5  and  C_6
REMARK    6  A    between atoms: C_6  and  C_7
REMARK    7  A    between atoms: N_9  and  C_10
REMARK    8  A    between atoms: C_24  and  O_25
REMARK                            x       y       z     vdW  Elec       q    Type
REMARK                         _______ _______ _______ _____ _____    ______ ____
ROOT
ATOM      1  C   UNK     1       6.967  -2.194  25.475  0.00  0.00    +0.227 C 
ATOM      2  N   UNK     1       8.010  -1.336  25.827  0.00  0.00    -0.284 N 
ATOM      3  H   UNK     1       8.646  -1.649  26.546  0.00  0.00    +0.155 HD
ATOM      4  O   UNK     1       5.978  -1.835  24.840  0.00  0.00    -0.275 OA
ENDROOT
BRANCH   2   5
ATOM      5  C   UNK     1       8.069   0.043  25.432  0.00  0.00    +0.043 A 
ATOM      6  C   UNK     1       8.696   0.457  24.224  0.00  0.00    +0.024 A 
ATOM      7  C   UNK     1       9.254  -0.437  23.277  0.00  0.00    +0.013 A 
ATOM      8  C   UNK     1       9.874   0.028  22.123  0.00  0.00    +0.020 A 
ATOM      9  C   UNK     1       9.934   1.385  21.929  0.00  0.00    +0.111 A 
ATOM     10  N   UNK     1       9.420   2.275  22.796  0.00  0.00    -0.253 NA
ATOM     11  C   UNK     1       8.809   1.850  23.931  0.00  0.00    +0.099 A 
ATOM     12  C   UNK     1       8.304   2.817  24.822  0.00  0.00    +0.097 A 
ATOM     13  N   UNK     1       8.428   4.153  24.596  0.00  0.00    -0.253 NA
ATOM     14  C   UNK     1       7.941   5.037  25.496  0.00  0.00    +0.111 A 
ATOM     15  C   UNK     1       7.299   4.670  26.656  0.00  0.00    +0.020 A 
ATOM     16  C   UNK     1       7.148   3.317  26.899  0.00  0.00    +0.011 A 
ATOM     17  C   UNK     1       7.649   2.379  25.983  0.00  0.00    +0.004 A 
ATOM     18  C   UNK     1       7.510   1.021  26.252  0.00  0.00    +0.034 A 
ENDBRANCH   2   5
BRANCH   1  19
ATOM     19  C   UNK     1       7.116  -3.646  25.972  0.00  0.00    +0.165 C 
BRANCH  19  20
ATOM     20  S   UNK     1       6.157  -4.726  24.834  0.00  0.00    -0.149 S 
BRANCH  20  21
ATOM     21  C   UNK     1       7.208  -4.806  23.354  0.00  0.00    +0.099 C 
BRANCH  21  22
ATOM     22  C   UNK     1       6.322  -4.445  22.144  0.00  0.00    +0.171 C 
BRANCH  22  23
ATOM     23  N   UNK     1       4.960  -3.923  22.516  0.00  0.00    -0.318 NA
ATOM     24  H   UNK     1       4.427  -4.702  22.920  0.00  0.00    +0.119 HD
ATOM     25  H   UNK     1       5.109  -3.311  23.331  0.00  0.00    +0.119 HD
ENDBRANCH  22  23
BRANCH  22  26
ATOM     26  C   UNK     1       6.125  -5.648  21.222  0.00  0.00    +0.323 C 
ATOM     27  O   UNK     1       5.994  -5.599  20.010  0.00  0.00    -0.249 OA
BRANCH  26  28
ATOM     28  O   UNK     1       6.072  -6.803  21.940  0.00  0.00    -0.480 OA
ATOM     29  H   UNK     1       5.486  -7.418  21.426  0.00  0.00    +0.295 HD
ENDBRANCH  26  28
ENDBRANCH  22  26
ENDBRANCH  21  22
ENDBRANCH  20  21
ENDBRANCH  19  20
ENDBRANCH   1  19
TORSDOF 8
ENDMDL
MODEL 9
REMARK VINA RESULT:      -5.6      1.885      3.699
REMARK  Name = 
REMARK  8 active torsions:
REMARK  status: ('A' for Active; 'I' for Inactive)
REMARK    1  A    between atoms: N_1  and  C_2
REMARK    2  A    between atoms: C_2  and  C_4
REMARK    3  A    between atoms: C_2  and  C_24
REMARK    4  A    between atoms: C_4  and  S_5
REMARK    5  A    between atoms: S_5  and  C_6
REMARK    6  A    between atoms: C_6  and  C_7
REMARK    7  A    between atoms: N_9  and  C_10
REMARK    8  A    between atoms: C_24  and  O_25
REMARK                            x       y       z     vdW  Elec       q    Type
REMARK                         _______ _______ _______ _____ _____    ______ ____
ROOT
ATOM      1  C   UNK     1       9.810  -0.635  22.649  0.00  0.00    +0.227 C 
ATOM      2  N   UNK     1       8.562  -0.893  23.220  0.00  0.00    -0.284 N 
ATOM      3  H   UNK     1       8.141  -0.156  23.768  0.00  0.00    +0.155 HD
ATOM      4  O   UNK     1      10.550  -1.512  22.210  0.00  0.00    -0.275 OA
ENDROOT
BRANCH   2   5
ATOM      5  C   UNK     1       7.982  -2.203  23.297  0.00  0.00    +0.043 A 
ATOM      6  C   UNK     1       8.035  -2.985  24.483  0.00  0.00    +0.024 A 
ATOM      7  C   UNK     1       8.595  -2.533  25.703  0.00  0.00    +0.013 A 
ATOM      8  C   UNK     1       8.639  -3.351  26.826  0.00  0.00    +0.020 A 
ATOM      9  C   UNK     1       8.124  -4.618  26.716  0.00  0.00    +0.111 A 
ATOM     10  N   UNK     1       7.580  -5.096  25.583  0.00  0.00    -0.253 NA
ATOM     11  C   UNK     1       7.525  -4.320  24.471  0.00  0.00    +0.099 A 
ATOM     12  C   UNK     1       6.967  -4.866  23.299  0.00  0.00    +0.097 A 
ATOM     13  N   UNK     1       6.508  -6.146  23.238  0.00  0.00    -0.253 NA
ATOM     14  C   UNK     1       6.000  -6.625  22.080  0.00  0.00    +0.111 A 
ATOM     15  C   UNK     1       5.902  -5.884  20.925  0.00  0.00    +0.020 A 
ATOM     16  C   UNK     1       6.349  -4.576  20.969  0.00  0.00    +0.011 A 
ATOM     17  C   UNK     1       6.885  -4.057  22.156  0.00  0.00    +0.004 A 
ATOM     18  C   UNK     1       7.351  -2.746  22.178  0.00  0.00    +0.034 A 
ENDBRANCH   2   5
BRANCH   1  19
ATOM     19  C   UNK     1      10.231   0.848  22.635  0.00  0.00    +0.165 C 
BRANCH  19  20
ATOM     20  S   UNK     1       9.918   1.534  24.312  0.00  0.00    -0.149 S 
BRANCH  20  21
ATOM     21  C   UNK     1       8.582   2.732  24.027  0.00  0.00    +0.099 C 
BRANCH  21  22
ATOM     22  C   UNK     1       7.305   2.153  24.669  0.00  0.00    +0.171 C 
BRANCH  22  23
ATOM     23  N   UNK     1       7.561   1.039  25.647  0.00  0.00    -0.318 NA
ATOM     24  H   UNK     1       6.658   0.603  25.869  0.00  0.00    +0.119 HD
ATOM     25  H   UNK     1       8.037   0.299  25.110  0.00  0.00    +0.119 HD
ENDBRANCH  22  23
BRANCH  22  26
ATOM     26  C   UNK     1       6.338   1.629  23.608  0.00  0.00    +0.323 C 
ATOM     27  O   UNK     1       6.595   1.480  22.424  0.00  0.00    -0.249 OA
BRANCH  26  28
ATOM     28  O   UNK     1       5.115   1.381  24.150  0.00  0.00    -0.480 OA
ATOM     29  H   UNK     1       5.193   1.602  25.115  0.00  0.00    +0.295 HD
ENDBRANCH  26  28
ENDBRANCH  22  26
ENDBRANCH  21  22
ENDBRANCH  20  21
ENDBRANCH  19  20
ENDBRANCH   1  19
TORSDOF 8
ENDMDL
