MODEL 1
REMARK VINA RESULT:      -8.1      0.000      0.000
REMARK  Name = 
REMARK  5 active torsions:
REMARK  status: ('A' for Active; 'I' for Inactive)
REMARK    1  A    between atoms: C_1  and  C_2
REMARK    2  A    between atoms: C_3  and  C_20
REMARK    3  A    between atoms: N_6  and  C_9
REMARK    4  A    between atoms: C_16  and  C_17
REMARK    5  A    between atoms: C_16  and  C_18
REMARK                            x       y       z     vdW  Elec       q    Type
REMARK                         _______ _______ _______ _____ _____    ______ ____
ROOT
ATOM      1  C   UNL     1       7.943  -4.075  22.362  0.00  0.00    +0.044 C 
ATOM      2  C   UNL     1       8.076  -2.648  22.820  0.00  0.00    -0.036 A 
ATOM      3  C   UNL     1       8.215  -1.680  21.759  0.00  0.00    +0.022 A 
ATOM      4  C   UNL     1       8.371  -0.378  22.020  0.00  0.00    +0.095 A 
ATOM      5  N   UNL     1       8.455   0.136  23.314  0.00  0.00    -0.284 N 
ATOM      6  C   UNL     1       8.335  -0.755  24.414  0.00  0.00    +0.264 A 
ATOM      7  O   UNL     1       8.467  -0.458  25.603  0.00  0.00    -0.267 OA
ATOM      8  C   UNL     1       8.058  -2.217  24.100  0.00  0.00    +0.050 A 
ENDROOT
BRANCH   8   9
ATOM      9  C   UNL     1       7.774  -3.136  25.223  0.00  0.00    -0.012 A 
ATOM     10  C   UNL     1       8.785  -3.967  25.717  0.00  0.00    +0.011 A 
ATOM     11  C   UNL     1       8.510  -4.889  26.735  0.00  0.00    +0.029 A 
ATOM     12  C   UNL     1       7.235  -5.029  27.271  0.00  0.00    +0.076 A 
ATOM     13  C   UNL     1       6.230  -4.193  26.777  0.00  0.00    +0.019 A 
ATOM     14  C   UNL     1       4.978  -4.405  27.331  0.00  0.00    +0.124 A 
ATOM     15  N   UNL     1       4.713  -5.347  28.257  0.00  0.00    -0.222 NA
ATOM     16  C   UNL     1       5.745  -6.104  28.637  0.00  0.00    +0.213 A 
ATOM     17  N   UNL     1       5.491  -7.097  29.557  0.00  0.00    -0.327 N 
ATOM     18  H   UNL     1       6.321  -7.297  30.096  0.00  0.00    +0.145 HD
ATOM     19  H   UNL     1       4.637  -6.898  30.056  0.00  0.00    +0.145 HD
ATOM     20  N   UNL     1       7.003  -5.959  28.208  0.00  0.00    -0.215 NA
ATOM     21  C   UNL     1       6.494  -3.237  25.773  0.00  0.00    +0.020 A 
ENDBRANCH   8   9
BRANCH   5  22
ATOM     22  C   UNL     1       8.711   1.561  23.534  0.00  0.00    +0.051 A 
ATOM     23  C   UNL     1       9.981   2.120  23.268  0.00  0.00    +0.049 A 
ATOM     24  C   UNL     1      10.220   3.473  23.492  0.00  0.00    +0.033 A 
ATOM     25  N   UNL     1      11.474   4.107  23.360  0.00  0.00    -0.343 N 
ATOM     26  H   UNL     1      11.921   3.881  22.476  0.00  0.00    +0.146 HD
ATOM     27  C   UNL     1      11.187   5.541  23.559  0.00  0.00    +0.112 C 
ATOM     28  C   UNL     1       9.759   5.696  24.164  0.00  0.00    +0.007 C 
ATOM     29  C   UNL     1       8.936   6.708  23.360  0.00  0.00    +0.017 C 
ATOM     30  C   UNL     1       9.818   6.111  25.637  0.00  0.00    +0.017 C 
ATOM     31  C   UNL     1       9.230   4.300  24.001  0.00  0.00    -0.019 A 
ATOM     32  C   UNL     1       7.973   3.796  24.274  0.00  0.00    +0.008 A 
ATOM     33  C   UNL     1       7.720   2.437  24.028  0.00  0.00    +0.026 A 
ENDBRANCH   5  22
TORSDOF 2
ENDMDL
MODEL 2
REMARK VINA RESULT:      -7.8      2.531      3.344
REMARK  Name = 
REMARK  5 active torsions:
REMARK  status: ('A' for Active; 'I' for Inactive)
REMARK    1  A    between atoms: C_1  and  C_2
REMARK    2  A    between atoms: C_3  and  C_20
REMARK    3  A    between atoms: N_6  and  C_9
REMARK    4  A    between atoms: C_16  and  C_17
REMARK    5  A    between atoms: C_16  and  C_18
REMARK                            x       y       z     vdW  Elec       q    Type
REMARK                         _______ _______ _______ _____ _____    ______ ____
ROOT
ATOM      1  C   UNL     1       9.777  -4.612  24.858  0.00  0.00    +0.044 C 
ATOM      2  C   UNL     1       9.094  -3.326  24.480  0.00  0.00    -0.036 A 
ATOM      3  C   UNL     1       9.978  -2.203  24.282  0.00  0.00    +0.022 A 
ATOM      4  C   UNL     1       9.507  -0.991  23.972  0.00  0.00    +0.095 A 
ATOM      5  N   UNL     1       8.146  -0.707  23.861  0.00  0.00    -0.284 N 
ATOM      6  C   UNL     1       7.210  -1.757  24.051  0.00  0.00    +0.264 A 
ATOM      7  O   UNL     1       5.983  -1.640  24.061  0.00  0.00    -0.267 OA
ATOM      8  C   UNL     1       7.766  -3.151  24.303  0.00  0.00    +0.050 A 
ENDROOT
BRANCH   8   9
ATOM      9  C   UNL     1       6.822  -4.287  24.349  0.00  0.00    -0.012 A 
ATOM     10  C   UNL     1       6.491  -4.967  23.171  0.00  0.00    +0.011 A 
ATOM     11  C   UNL     1       5.547  -6.001  23.191  0.00  0.00    +0.029 A 
ATOM     12  C   UNL     1       4.891  -6.371  24.360  0.00  0.00    +0.076 A 
ATOM     13  C   UNL     1       5.229  -5.692  25.534  0.00  0.00    +0.019 A 
ATOM     14  C   UNL     1       4.518  -6.088  26.655  0.00  0.00    +0.124 A 
ATOM     15  N   UNL     1       3.559  -7.034  26.645  0.00  0.00    -0.222 NA
ATOM     16  C   UNL     1       3.304  -7.599  25.463  0.00  0.00    +0.213 A 
ATOM     17  N   UNL     1       2.303  -8.544  25.420  0.00  0.00    -0.327 N 
ATOM     18  H   UNL     1       2.471  -9.200  24.672  0.00  0.00    +0.145 HD
ATOM     19  H   UNL     1       2.131  -8.909  26.344  0.00  0.00    +0.145 HD
ATOM     20  N   UNL     1       3.956  -7.331  24.327  0.00  0.00    -0.215 NA
ATOM     21  C   UNL     1       6.201  -4.668  25.540  0.00  0.00    +0.020 A 
ENDBRANCH   8   9
BRANCH   5  22
ATOM     22  C   UNL     1       7.690   0.660  23.601  0.00  0.00    +0.051 A 
ATOM     23  C   UNL     1       7.522   1.583  24.658  0.00  0.00    +0.049 A 
ATOM     24  C   UNL     1       7.075   2.876  24.406  0.00  0.00    +0.033 A 
ATOM     25  N   UNL     1       6.775   3.838  25.394  0.00  0.00    -0.343 N 
ATOM     26  H   UNL     1       7.521   3.922  26.079  0.00  0.00    +0.146 HD
ATOM     27  C   UNL     1       6.488   5.071  24.636  0.00  0.00    +0.112 C 
ATOM     28  C   UNL     1       6.288   4.711  23.133  0.00  0.00    +0.007 C 
ATOM     29  C   UNL     1       7.158   5.604  22.241  0.00  0.00    +0.017 C 
ATOM     30  C   UNL     1       4.817   4.823  22.722  0.00  0.00    +0.017 C 
ATOM     31  C   UNL     1       6.763   3.287  23.118  0.00  0.00    -0.019 A 
ATOM     32  C   UNL     1       6.913   2.418  22.054  0.00  0.00    +0.008 A 
ATOM     33  C   UNL     1       7.386   1.120  22.301  0.00  0.00    +0.026 A 
ENDBRANCH   5  22
TORSDOF 2
ENDMDL
MODEL 3
REMARK VINA RESULT:      -7.7      2.610      3.404
REMARK  Name = 
REMARK  5 active torsions:
REMARK  status: ('A' for Active; 'I' for Inactive)
REMARK    1  A    between atoms: C_1  and  C_2
REMARK    2  A    between atoms: C_3  and  C_20
REMARK    3  A    between atoms: N_6  and  C_9
REMARK    4  A    between atoms: C_16  and  C_17
REMARK    5  A    between atoms: C_16  and  C_18
REMARK                            x       y       z     vdW  Elec       q    Type
REMARK                         _______ _______ _______ _____ _____    ______ ____
ROOT
ATOM      1  C   UNL     1       9.683  -3.636  24.468  0.00  0.00    +0.044 C 
ATOM      2  C   UNL     1       9.182  -2.230  24.283  0.00  0.00    -0.036 A 
ATOM      3  C   UNL     1      10.184  -1.203  24.435  0.00  0.00    +0.022 A 
ATOM      4  C   UNL     1       9.876   0.093  24.326  0.00  0.00    +0.095 A 
ATOM      5  N   UNL     1       8.577   0.553  24.106  0.00  0.00    -0.284 N 
ATOM      6  C   UNL     1       7.532  -0.396  23.954  0.00  0.00    +0.264 A 
ATOM      7  O   UNL     1       6.333  -0.139  23.834  0.00  0.00    -0.267 OA
ATOM      8  C   UNL     1       7.916  -1.868  23.980  0.00  0.00    +0.050 A 
ENDROOT
BRANCH   8   9
ATOM      9  C   UNL     1       6.876  -2.872  23.669  0.00  0.00    -0.012 A 
ATOM     10  C   UNL     1       6.754  -3.368  22.366  0.00  0.00    +0.011 A 
ATOM     11  C   UNL     1       5.730  -4.268  22.044  0.00  0.00    +0.029 A 
ATOM     12  C   UNL     1       4.794  -4.679  22.987  0.00  0.00    +0.076 A 
ATOM     13  C   UNL     1       4.924  -4.184  24.287  0.00  0.00    +0.019 A 
ATOM     14  C   UNL     1       3.943  -4.609  25.168  0.00  0.00    +0.124 A 
ATOM     15  N   UNL     1       2.921  -5.417  24.826  0.00  0.00    -0.222 NA
ATOM     16  C   UNL     1       2.884  -5.809  23.550  0.00  0.00    +0.213 A 
ATOM     17  N   UNL     1       1.828  -6.607  23.168  0.00  0.00    -0.327 N 
ATOM     18  H   UNL     1       2.094  -7.191  22.390  0.00  0.00    +0.145 HD
ATOM     19  H   UNL     1       1.417  -7.048  23.976  0.00  0.00    +0.145 HD
ATOM     20  N   UNL     1       3.799  -5.502  22.625  0.00  0.00    -0.215 NA
ATOM     21  C   UNL     1       5.968  -3.300  24.638  0.00  0.00    +0.020 A 
ENDBRANCH   8   9
BRANCH   5  22
ATOM     22  C   UNL     1       8.289   1.989  24.081  0.00  0.00    +0.051 A 
ATOM     23  C   UNL     1       7.995   2.648  22.867  0.00  0.00    +0.049 A 
ATOM     24  C   UNL     1       7.736   4.015  22.849  0.00  0.00    +0.033 A 
ATOM     25  N   UNL     1       7.535   4.788  21.685  0.00  0.00    -0.343 N 
ATOM     26  H   UNL     1       6.858   4.360  21.059  0.00  0.00    +0.146 HD
ATOM     27  C   UNL     1       7.159   6.123  22.185  0.00  0.00    +0.112 C 
ATOM     28  C   UNL     1       7.485   6.209  23.707  0.00  0.00    +0.007 C 
ATOM     29  C   UNL     1       6.271   6.714  24.494  0.00  0.00    +0.017 C 
ATOM     30  C   UNL     1       8.699   7.105  23.970  0.00  0.00    +0.017 C 
ATOM     31  C   UNL     1       7.780   4.768  24.013  0.00  0.00    -0.019 A 
ATOM     32  C   UNL     1       8.063   4.164  25.223  0.00  0.00    +0.008 A 
ATOM     33  C   UNL     1       8.303   2.781  25.250  0.00  0.00    +0.026 A 
ENDBRANCH   5  22
TORSDOF 2
ENDMDL
MODEL 4
REMARK VINA RESULT:      -7.6      2.025      2.802
REMARK  Name = 
REMARK  5 active torsions:
REMARK  status: ('A' for Active; 'I' for Inactive)
REMARK    1  A    between atoms: C_1  and  C_2
REMARK    2  A    between atoms: C_3  and  C_20
REMARK    3  A    between atoms: N_6  and  C_9
REMARK    4  A    between atoms: C_16  and  C_17
REMARK    5  A    between atoms: C_16  and  C_18
REMARK                            x       y       z     vdW  Elec       q    Type
REMARK                         _______ _______ _______ _____ _____    ______ ____
ROOT
ATOM      1  C   UNL     1       9.679  -5.244  25.113  0.00  0.00    +0.044 C 
ATOM      2  C   UNL     1       9.038  -3.906  24.862  0.00  0.00    -0.036 A 
ATOM      3  C   UNL     1       9.851  -2.972  24.121  0.00  0.00    +0.022 A 
ATOM      4  C   UNL     1       9.421  -1.736  23.851  0.00  0.00    +0.095 A 
ATOM      5  N   UNL     1       8.194  -1.241  24.294  0.00  0.00    -0.284 N 
ATOM      6  C   UNL     1       7.339  -2.097  25.037  0.00  0.00    +0.264 A 
ATOM      7  O   UNL     1       6.268  -1.776  25.557  0.00  0.00    -0.267 OA
ATOM      8  C   UNL     1       7.800  -3.531  25.249  0.00  0.00    +0.050 A 
ENDROOT
BRANCH   8   9
ATOM      9  C   UNL     1       6.864  -4.484  25.883  0.00  0.00    -0.012 A 
ATOM     10  C   UNL     1       5.872  -5.103  25.114  0.00  0.00    +0.011 A 
ATOM     11  C   UNL     1       4.938  -5.955  25.716  0.00  0.00    +0.029 A 
ATOM     12  C   UNL     1       4.943  -6.197  27.085  0.00  0.00    +0.076 A 
ATOM     13  C   UNL     1       5.939  -5.580  27.847  0.00  0.00    +0.019 A 
ATOM     14  C   UNL     1       5.869  -5.839  29.206  0.00  0.00    +0.124 A 
ATOM     15  N   UNL     1       4.919  -6.602  29.781  0.00  0.00    -0.222 NA
ATOM     16  C   UNL     1       4.005  -7.121  28.958  0.00  0.00    +0.213 A 
ATOM     17  N   UNL     1       3.003  -7.876  29.527  0.00  0.00    -0.327 N 
ATOM     18  H   UNL     1       2.658  -8.556  28.866  0.00  0.00    +0.145 HD
ATOM     19  H   UNL     1       3.289  -8.200  30.439  0.00  0.00    +0.145 HD
ATOM     20  N   UNL     1       4.000  -6.979  27.629  0.00  0.00    -0.215 NA
ATOM     21  C   UNL     1       6.908  -4.742  27.254  0.00  0.00    +0.020 A 
ENDBRANCH   8   9
BRANCH   5  22
ATOM     22  C   UNL     1       7.815   0.150  24.037  0.00  0.00    +0.051 A 
ATOM     23  C   UNL     1       8.272   1.193  24.874  0.00  0.00    +0.049 A 
ATOM     24  C   UNL     1       7.897   2.511  24.631  0.00  0.00    +0.033 A 
ATOM     25  N   UNL     1       8.210   3.609  25.462  0.00  0.00    -0.343 N 
ATOM     26  H   UNL     1       9.197   3.632  25.703  0.00  0.00    +0.146 HD
ATOM     27  C   UNL     1       7.726   4.787  24.717  0.00  0.00    +0.112 C 
ATOM     28  C   UNL     1       6.795   4.313  23.561  0.00  0.00    +0.007 C 
ATOM     29  C   UNL     1       7.220   4.941  22.229  0.00  0.00    +0.017 C 
ATOM     30  C   UNL     1       5.327   4.637  23.856  0.00  0.00    +0.017 C 
ATOM     31  C   UNL     1       7.052   2.833  23.580  0.00  0.00    -0.019 A 
ATOM     32  C   UNL     1       6.582   1.846  22.736  0.00  0.00    +0.008 A 
ATOM     33  C   UNL     1       6.976   0.517  22.962  0.00  0.00    +0.026 A 
ENDBRANCH   5  22
TORSDOF 2
ENDMDL
MODEL 5
REMARK VINA RESULT:      -7.6      2.434      3.041
REMARK  Name = 
REMARK  5 active torsions:
REMARK  status: ('A' for Active; 'I' for Inactive)
REMARK    1  A    between atoms: C_1  and  C_2
REMARK    2  A    between atoms: C_3  and  C_20
REMARK    3  A    between atoms: N_6  and  C_9
REMARK    4  A    between atoms: C_16  and  C_17
REMARK    5  A    between atoms: C_16  and  C_18
REMARK                            x       y       z     vdW  Elec       q    Type
REMARK                         _______ _______ _______ _____ _____    ______ ____
ROOT
ATOM      1  C   UNL     1       9.502  -4.705  24.860  0.00  0.00    +0.044 C 
ATOM      2  C   UNL     1       8.924  -3.350  24.553  0.00  0.00    -0.036 A 
ATOM      3  C   UNL     1       9.872  -2.385  24.052  0.00  0.00    +0.022 A 
ATOM      4  C   UNL     1       9.505  -1.132  23.765  0.00  0.00    +0.095 A 
ATOM      5  N   UNL     1       8.211  -0.652  23.964  0.00  0.00    -0.284 N 
ATOM      6  C   UNL     1       7.220  -1.539  24.462  0.00  0.00    +0.264 A 
ATOM      7  O   UNL     1       6.063  -1.237  24.761  0.00  0.00    -0.267 OA
ATOM      8  C   UNL     1       7.630  -2.986  24.689  0.00  0.00    +0.050 A 
ENDROOT
BRANCH   8   9
ATOM      9  C   UNL     1       6.584  -3.964  25.058  0.00  0.00    -0.012 A 
ATOM     10  C   UNL     1       6.371  -4.282  26.403  0.00  0.00    +0.011 A 
ATOM     11  C   UNL     1       5.430  -5.256  26.760  0.00  0.00    +0.029 A 
ATOM     12  C   UNL     1       4.699  -5.952  25.804  0.00  0.00    +0.076 A 
ATOM     13  C   UNL     1       4.913  -5.627  24.463  0.00  0.00    +0.019 A 
ATOM     14  C   UNL     1       4.176  -6.377  23.561  0.00  0.00    +0.124 A 
ATOM     15  N   UNL     1       3.328  -7.363  23.915  0.00  0.00    -0.222 NA
ATOM     16  C   UNL     1       3.221  -7.603  25.225  0.00  0.00    +0.213 A 
ATOM     17  N   UNL     1       2.388  -8.629  25.610  0.00  0.00    -0.327 N 
ATOM     18  H   UNL     1       2.028  -8.461  26.537  0.00  0.00    +0.145 HD
ATOM     19  H   UNL     1       1.729  -8.836  24.874  0.00  0.00    +0.145 HD
ATOM     20  N   UNL     1       3.845  -6.913  26.185  0.00  0.00    -0.215 NA
ATOM     21  C   UNL     1       5.835  -4.627  24.084  0.00  0.00    +0.020 A 
ENDBRANCH   8   9
BRANCH   5  22
ATOM     22  C   UNL     1       7.891   0.755  23.709  0.00  0.00    +0.051 A 
ATOM     23  C   UNL     1       8.308   1.767  24.601  0.00  0.00    +0.049 A 
ATOM     24  C   UNL     1       7.989   3.100  24.359  0.00  0.00    +0.033 A 
ATOM     25  N   UNL     1       8.264   4.172  25.235  0.00  0.00    -0.343 N 
ATOM     26  H   UNL     1       9.229   4.163  25.553  0.00  0.00    +0.146 HD
ATOM     27  C   UNL     1       7.872   5.378  24.481  0.00  0.00    +0.112 C 
ATOM     28  C   UNL     1       7.023   4.953  23.245  0.00  0.00    +0.007 C 
ATOM     29  C   UNL     1       7.568   5.595  21.965  0.00  0.00    +0.017 C 
ATOM     30  C   UNL     1       5.545   5.313  23.431  0.00  0.00    +0.017 C 
ATOM     31  C   UNL     1       7.238   3.467  23.252  0.00  0.00    -0.019 A 
ATOM     32  C   UNL     1       6.810   2.510  22.352  0.00  0.00    +0.008 A 
ATOM     33  C   UNL     1       7.149   1.166  22.580  0.00  0.00    +0.026 A 
ENDBRANCH   5  22
TORSDOF 2
ENDMDL
MODEL 6
REMARK VINA RESULT:      -7.6      2.441      3.196
REMARK  Name = 
REMARK  5 active torsions:
REMARK  status: ('A' for Active; 'I' for Inactive)
REMARK    1  A    between atoms: C_1  and  C_2
REMARK    2  A    between atoms: C_3  and  C_20
REMARK    3  A    between atoms: N_6  and  C_9
REMARK    4  A    between atoms: C_16  and  C_17
REMARK    5  A    between atoms: C_16  and  C_18
REMARK                            x       y       z     vdW  Elec       q    Type
REMARK                         _______ _______ _______ _____ _____    ______ ____
ROOT
ATOM      1  C   UNL     1       9.278  -5.359  24.882  0.00  0.00    +0.044 C 
ATOM      2  C   UNL     1       8.814  -3.937  24.719  0.00  0.00    -0.036 A 
ATOM      3  C   UNL     1       9.824  -3.017  24.253  0.00  0.00    +0.022 A 
ATOM      4  C   UNL     1       9.561  -1.718  24.090  0.00  0.00    +0.095 A 
ATOM      5  N   UNL     1       8.325  -1.145  24.394  0.00  0.00    -0.284 N 
ATOM      6  C   UNL     1       7.281  -1.983  24.866  0.00  0.00    +0.264 A 
ATOM      7  O   UNL     1       6.170  -1.609  25.247  0.00  0.00    -0.267 OA
ATOM      8  C   UNL     1       7.566  -3.475  24.950  0.00  0.00    +0.050 A 
ENDROOT
BRANCH   8   9
ATOM      9  C   UNL     1       6.452  -4.386  25.288  0.00  0.00    -0.012 A 
ATOM     10  C   UNL     1       6.180  -4.687  26.627  0.00  0.00    +0.011 A 
ATOM     11  C   UNL     1       5.171  -5.601  26.957  0.00  0.00    +0.029 A 
ATOM     12  C   UNL     1       4.428  -6.255  25.980  0.00  0.00    +0.076 A 
ATOM     13  C   UNL     1       4.701  -5.946  24.645  0.00  0.00    +0.019 A 
ATOM     14  C   UNL     1       3.947  -6.653  23.723  0.00  0.00    +0.124 A 
ATOM     15  N   UNL     1       3.031  -7.584  24.053  0.00  0.00    -0.222 NA
ATOM     16  C   UNL     1       2.871  -7.814  25.358  0.00  0.00    +0.213 A 
ATOM     17  N   UNL     1       1.965  -8.787  25.720  0.00  0.00    -0.327 N 
ATOM     18  H   UNL     1       1.589  -8.594  26.635  0.00  0.00    +0.145 HD
ATOM     19  H   UNL     1       1.317  -8.954  24.964  0.00  0.00    +0.145 HD
ATOM     20  N   UNL     1       3.506  -7.161  26.336  0.00  0.00    -0.215 NA
ATOM     21  C   UNL     1       5.693  -5.005  24.293  0.00  0.00    +0.020 A 
ENDBRANCH   8   9
BRANCH   5  22
ATOM     22  C   UNL     1       8.125   0.301  24.274  0.00  0.00    +0.051 A 
ATOM     23  C   UNL     1       7.683   0.874  23.061  0.00  0.00    +0.049 A 
ATOM     24  C   UNL     1       7.507   2.250  22.950  0.00  0.00    +0.033 A 
ATOM     25  N   UNL     1       7.173   2.932  21.760  0.00  0.00    -0.343 N 
ATOM     26  H   UNL     1       6.381   2.504  21.289  0.00  0.00    +0.146 HD
ATOM     27  C   UNL     1       6.961   4.330  22.181  0.00  0.00    +0.112 C 
ATOM     28  C   UNL     1       7.527   4.521  23.620  0.00  0.00    +0.007 C 
ATOM     29  C   UNL     1       6.486   5.182  24.530  0.00  0.00    +0.017 C 
ATOM     30  C   UNL     1       8.820   5.343  23.609  0.00  0.00    +0.017 C 
ATOM     31  C   UNL     1       7.780   3.094  24.015  0.00  0.00    -0.019 A 
ATOM     32  C   UNL     1       8.213   2.577  25.222  0.00  0.00    +0.008 A 
ATOM     33  C   UNL     1       8.369   1.187  25.345  0.00  0.00    +0.026 A 
ENDBRANCH   5  22
TORSDOF 2
ENDMDL
MODEL 7
REMARK VINA RESULT:      -7.3      2.374      3.114
REMARK  Name = 
REMARK  5 active torsions:
REMARK  status: ('A' for Active; 'I' for Inactive)
REMARK    1  A    between atoms: C_1  and  C_2
REMARK    2  A    between atoms: C_3  and  C_20
REMARK    3  A    between atoms: N_6  and  C_9
REMARK    4  A    between atoms: C_16  and  C_17
REMARK    5  A    between atoms: C_16  and  C_18
REMARK                            x       y       z     vdW  Elec       q    Type
REMARK                         _______ _______ _______ _____ _____    ______ ____
ROOT
ATOM      1  C   UNL     1       8.676  -4.708  24.125  0.00  0.00    +0.044 C 
ATOM      2  C   UNL     1       8.373  -3.237  24.038  0.00  0.00    -0.036 A 
ATOM      3  C   UNL     1       9.515  -2.395  23.775  0.00  0.00    +0.022 A 
ATOM      4  C   UNL     1       9.398  -1.066  23.700  0.00  0.00    +0.095 A 
ATOM      5  N   UNL     1       8.195  -0.392  23.911  0.00  0.00    -0.284 N 
ATOM      6  C   UNL     1       7.025  -1.150  24.184  0.00  0.00    +0.264 A 
ATOM      7  O   UNL     1       5.916  -0.692  24.466  0.00  0.00    -0.267 OA
ATOM      8  C   UNL     1       7.155  -2.665  24.166  0.00  0.00    +0.050 A 
ENDROOT
BRANCH   8   9
ATOM      9  C   UNL     1       5.927  -3.478  24.291  0.00  0.00    -0.012 A 
ATOM     10  C   UNL     1       5.189  -3.808  23.149  0.00  0.00    +0.011 A 
ATOM     11  C   UNL     1       3.988  -4.519  23.262  0.00  0.00    +0.029 A 
ATOM     12  C   UNL     1       3.476  -4.900  24.497  0.00  0.00    +0.076 A 
ATOM     13  C   UNL     1       4.220  -4.573  25.634  0.00  0.00    +0.019 A 
ATOM     14  C   UNL     1       3.640  -4.954  26.833  0.00  0.00    +0.124 A 
ATOM     15  N   UNL     1       2.448  -5.573  26.931  0.00  0.00    -0.222 NA
ATOM     16  C   UNL     1       1.815  -5.814  25.780  0.00  0.00    +0.213 A 
ATOM     17  N   UNL     1       0.577  -6.414  25.857  0.00  0.00    -0.327 N 
ATOM     18  H   UNL     1       0.390  -6.940  25.017  0.00  0.00    +0.145 HD
ATOM     19  H   UNL     1       0.473  -6.881  26.745  0.00  0.00    +0.145 HD
ATOM     20  N   UNL     1       2.297  -5.535  24.565  0.00  0.00    -0.215 NA
ATOM     21  C   UNL     1       5.448  -3.883  25.539  0.00  0.00    +0.020 A 
ENDBRANCH   8   9
BRANCH   5  22
ATOM     22  C   UNL     1       8.148   1.072  23.899  0.00  0.00    +0.051 A 
ATOM     23  C   UNL     1       7.657   1.773  22.775  0.00  0.00    +0.049 A 
ATOM     24  C   UNL     1       7.629   3.164  22.765  0.00  0.00    +0.033 A 
ATOM     25  N   UNL     1       7.259   3.960  21.660  0.00  0.00    -0.343 N 
ATOM     26  H   UNL     1       6.381   3.653  21.250  0.00  0.00    +0.146 HD
ATOM     27  C   UNL     1       7.250   5.339  22.182  0.00  0.00    +0.112 C 
ATOM     28  C   UNL     1       7.972   5.367  23.563  0.00  0.00    +0.007 C 
ATOM     29  C   UNL     1       7.107   6.069  24.614  0.00  0.00    +0.017 C 
ATOM     30  C   UNL     1       9.342   6.046  23.464  0.00  0.00    +0.017 C 
ATOM     31  C   UNL     1       8.099   3.897  23.844  0.00  0.00    -0.019 A 
ATOM     32  C   UNL     1       8.587   3.253  24.965  0.00  0.00    +0.008 A 
ATOM     33  C   UNL     1       8.596   1.849  24.989  0.00  0.00    +0.026 A 
ENDBRANCH   5  22
TORSDOF 2
ENDMDL
MODEL 8
REMARK VINA RESULT:      -7.3      1.534      2.157
REMARK  Name = 
REMARK  5 active torsions:
REMARK  status: ('A' for Active; 'I' for Inactive)
REMARK    1  A    between atoms: C_1  and  C_2
REMARK    2  A    between atoms: C_3  and  C_20
REMARK    3  A    between atoms: N_6  and  C_9
REMARK    4  A    between atoms: C_16  and  C_17
REMARK    5  A    between atoms: C_16  and  C_18
REMARK                            x       y       z     vdW  Elec       q    Type
REMARK                         _______ _______ _______ _____ _____    ______ ____
ROOT
ATOM      1  C   UNL     1       7.653  -4.835  22.998  0.00  0.00    +0.044 C 
ATOM      2  C   UNL     1       7.632  -3.383  23.393  0.00  0.00    -0.036 A 
ATOM      3  C   UNL     1       8.027  -2.465  22.353  0.00  0.00    +0.022 A 
ATOM      4  C   UNL     1       8.084  -1.148  22.571  0.00  0.00    +0.095 A 
ATOM      5  N   UNL     1       7.814  -0.567  23.810  0.00  0.00    -0.284 N 
ATOM      6  C   UNL     1       7.426  -1.406  24.889  0.00  0.00    +0.264 A 
ATOM      7  O   UNL     1       7.235  -1.046  26.052  0.00  0.00    -0.267 OA
ATOM      8  C   UNL     1       7.270  -2.890  24.597  0.00  0.00    +0.050 A 
ENDROOT
BRANCH   8   9
ATOM      9  C   UNL     1       6.718  -3.761  25.657  0.00  0.00    -0.012 A 
ATOM     10  C   UNL     1       7.583  -4.459  26.506  0.00  0.00    +0.011 A 
ATOM     11  C   UNL     1       7.073  -5.339  27.469  0.00  0.00    +0.029 A 
ATOM     12  C   UNL     1       5.708  -5.568  27.602  0.00  0.00    +0.076 A 
ATOM     13  C   UNL     1       4.849  -4.864  26.754  0.00  0.00    +0.019 A 
ATOM     14  C   UNL     1       3.506  -5.161  26.917  0.00  0.00    +0.124 A 
ATOM     15  N   UNL     1       3.034  -6.065  27.798  0.00  0.00    -0.222 NA
ATOM     16  C   UNL     1       3.949  -6.695  28.539  0.00  0.00    +0.213 A 
ATOM     17  N   UNL     1       3.495  -7.649  29.422  0.00  0.00    -0.327 N 
ATOM     18  H   UNL     1       4.128  -7.735  30.203  0.00  0.00    +0.145 HD
ATOM     19  H   UNL     1       2.515  -7.503  29.617  0.00  0.00    +0.145 HD
ATOM     20  N   UNL     1       5.264  -6.457  28.502  0.00  0.00    -0.215 NA
ATOM     21  C   UNL     1       5.342  -3.950  25.797  0.00  0.00    +0.020 A 
ENDBRANCH   8   9
BRANCH   5  22
ATOM     22  C   UNL     1       7.975   0.875  24.008  0.00  0.00    +0.051 A 
ATOM     23  C   UNL     1       6.865   1.746  23.936  0.00  0.00    +0.049 A 
ATOM     24  C   UNL     1       7.028   3.116  24.112  0.00  0.00    +0.033 A 
ATOM     25  N   UNL     1       6.009   4.081  23.957  0.00  0.00    -0.343 N 
ATOM     26  H   UNL     1       5.166   3.826  24.464  0.00  0.00    +0.146 HD
ATOM     27  C   UNL     1       6.630   5.349  24.385  0.00  0.00    +0.112 C 
ATOM     28  C   UNL     1       8.174   5.158  24.472  0.00  0.00    +0.007 C 
ATOM     29  C   UNL     1       8.706   5.644  25.824  0.00  0.00    +0.017 C 
ATOM     30  C   UNL     1       8.892   5.880  23.328  0.00  0.00    +0.017 C 
ATOM     31  C   UNL     1       8.281   3.665  24.341  0.00  0.00    -0.019 A 
ATOM     32  C   UNL     1       9.394   2.851  24.421  0.00  0.00    +0.008 A 
ATOM     33  C   UNL     1       9.232   1.465  24.267  0.00  0.00    +0.026 A 
ENDBRANCH   5  22
TORSDOF 2
ENDMDL
MODEL 9
REMARK VINA RESULT:      -7.3      1.814      9.177
REMARK  Name = 
REMARK  5 active torsions:
REMARK  status: ('A' for Active; 'I' for Inactive)
REMARK    1  A    between atoms: C_1  and  C_2
REMARK    2  A    between atoms: C_3  and  C_20
REMARK    3  A    between atoms: N_6  and  C_9
REMARK    4  A    between atoms: C_16  and  C_17
REMARK    5  A    between atoms: C_16  and  C_18
REMARK                            x       y       z     vdW  Elec       q    Type
REMARK                         _______ _______ _______ _____ _____    ______ ____
ROOT
ATOM      1  C   UNL     1       9.441  -1.099  21.256  0.00  0.00    +0.044 C 
ATOM      2  C   UNL     1       8.780  -1.566  22.524  0.00  0.00    -0.036 A 
ATOM      3  C   UNL     1       8.679  -2.999  22.665  0.00  0.00    +0.022 A 
ATOM      4  C   UNL     1       8.090  -3.554  23.728  0.00  0.00    +0.095 A 
ATOM      5  N   UNL     1       7.495  -2.810  24.746  0.00  0.00    -0.284 N 
ATOM      6  C   UNL     1       7.545  -1.393  24.677  0.00  0.00    +0.264 A 
ATOM      7  O   UNL     1       6.999  -0.610  25.457  0.00  0.00    -0.267 OA
ATOM      8  C   UNL     1       8.307  -0.778  23.513  0.00  0.00    +0.050 A 
ENDROOT
BRANCH   8   9
ATOM      9  C   UNL     1       8.508   0.687  23.500  0.00  0.00    -0.012 A 
ATOM     10  C   UNL     1       9.533   1.257  24.262  0.00  0.00    +0.011 A 
ATOM     11  C   UNL     1       9.690   2.648  24.311  0.00  0.00    +0.029 A 
ATOM     12  C   UNL     1       8.832   3.506  23.633  0.00  0.00    +0.076 A 
ATOM     13  C   UNL     1       7.812   2.931  22.869  0.00  0.00    +0.019 A 
ATOM     14  C   UNL     1       6.975   3.841  22.245  0.00  0.00    +0.124 A 
ATOM     15  N   UNL     1       7.093   5.177  22.360  0.00  0.00    -0.222 NA
ATOM     16  C   UNL     1       8.089   5.614  23.135  0.00  0.00    +0.213 A 
ATOM     17  N   UNL     1       8.209   6.976  23.297  0.00  0.00    -0.327 N 
ATOM     18  H   UNL     1       9.168   7.224  23.489  0.00  0.00    +0.145 HD
ATOM     19  H   UNL     1       7.734   7.458  22.548  0.00  0.00    +0.145 HD
ATOM     20  N   UNL     1       8.985   4.833  23.747  0.00  0.00    -0.215 NA
ATOM     21  C   UNL     1       7.656   1.530  22.783  0.00  0.00    +0.020 A 
ENDBRANCH   8   9
BRANCH   5  22
ATOM     22  C   UNL     1       6.790  -3.478  25.843  0.00  0.00    +0.051 A 
ATOM     23  C   UNL     1       7.378  -4.565  26.528  0.00  0.00    +0.049 A 
ATOM     24  C   UNL     1       6.696  -5.203  27.560  0.00  0.00    +0.033 A 
ATOM     25  N   UNL     1       7.145  -6.358  28.236  0.00  0.00    -0.343 N 
ATOM     26  H   UNL     1       8.109  -6.266  28.544  0.00  0.00    +0.146 HD
ATOM     27  C   UNL     1       6.165  -6.559  29.320  0.00  0.00    +0.112 C 
ATOM     28  C   UNL     1       4.913  -5.672  29.046  0.00  0.00    +0.007 C 
ATOM     29  C   UNL     1       4.555  -4.842  30.284  0.00  0.00    +0.017 C 
ATOM     30  C   UNL     1       3.713  -6.517  28.609  0.00  0.00    +0.017 C 
ATOM     31  C   UNL     1       5.420  -4.806  27.928  0.00  0.00    -0.019 A 
ATOM     32  C   UNL     1       4.807  -3.746  27.287  0.00  0.00    +0.008 A 
ATOM     33  C   UNL     1       5.500  -3.085  26.260  0.00  0.00    +0.026 A 
ENDBRANCH   5  22
TORSDOF 2
ENDMDL
