MODEL 1
REMARK VINA RESULT:      -8.4      0.000      0.000
REMARK  Name = 
REMARK  11 active torsions:
REMARK  status: ('A' for Active; 'I' for Inactive)
REMARK    1  A    between atoms: C_10  and  C_11
REMARK    2  A    between atoms: C_11  and  N_12
REMARK    3  A    between atoms: N_12  and  C_13
REMARK    4  A    between atoms: C_16  and  C_19
REMARK    5  A    between atoms: N_21  and  CA_22
REMARK    6  A    between atoms: CA_22  and  CB_24
REMARK    7  A    between atoms: CA_22  and  C_29
REMARK    8  A    between atoms: CB_24  and  CG_25
REMARK    9  A    between atoms: CG_25  and  CD_26
REMARK   10  A    between atoms: CD_26  and  OE1_27
REMARK   11  A    between atoms: C_29  and  O_30
REMARK                            x       y       z     vdW  Elec       q    Type
REMARK                         _______ _______ _______ _____ _____    ______ ____
ROOT
ATOM      1  C   UNK A   0       8.446  -1.365  22.412  0.00  0.00    +0.027 A 
ATOM      2  C   UNK A   0       9.438  -0.627  21.754  0.00  0.00    +0.023 A 
ATOM      3  C   UNK A   0       9.410   0.777  21.720  0.00  0.00    +0.015 A 
ATOM      4  C   UNK A   0       8.406   1.479  22.392  0.00  0.00    +0.037 A 
ATOM      5  C   UNK A   0       7.425   0.759  23.080  0.00  0.00    +0.015 A 
ATOM      6  C   UNK A   0       7.452  -0.643  23.092  0.00  0.00    +0.023 A 
ENDROOT
BRANCH   4   7
ATOM      7  C   UNK A   0       8.441   2.966  22.528  0.00  0.00    +0.245 C 
ATOM      8  N   GLU A   1       9.452   3.512  23.299  0.00  0.00    -0.298 N 
ATOM      9  H   GLU A   1      10.305   2.975  23.424  0.00  0.00    +0.150 HD
ATOM     10  O   UNK A   0       7.592   3.650  21.970  0.00  0.00    -0.270 OA
BRANCH   8  11
ATOM     11  CA  GLU A   1       9.489   4.961  23.600  0.00  0.00    +0.182 C 
BRANCH  11  12
ATOM     12  C   GLU A   1       8.737   5.224  24.920  0.00  0.00    +0.325 C 
ATOM     13  OXT GLU A   1       8.327   4.363  25.681  0.00  0.00    -0.249 OA
BRANCH  12  14
ATOM     14  O   GLU A   1       8.641   6.547  25.210  0.00  0.00    -0.479 OA
ATOM     15  H   GLU A   1       8.485   7.054  24.388  0.00  0.00    +0.295 HD
ENDBRANCH  12  14
ENDBRANCH  11  12
BRANCH  11  16
ATOM     16  CB  GLU A   1      10.904   5.546  23.670  0.00  0.00    +0.045 C 
BRANCH  16  17
ATOM     17  CG  GLU A   1      12.002   4.536  23.343  0.00  0.00    +0.123 C 
BRANCH  17  18
ATOM     18  CD  GLU A   1      13.176   5.179  22.645  0.00  0.00    +0.305 C 
ATOM     19  OE2 GLU A   1      13.123   5.814  21.605  0.00  0.00    -0.251 OA
BRANCH  18  20
ATOM     20  OE1 GLU A   1      14.334   4.992  23.323  0.00  0.00    -0.481 OA
ATOM     21  HE1 GLU A   1      14.572   4.051  23.432  0.00  0.00    +0.295 HD
ENDBRANCH  18  20
ENDBRANCH  17  18
ENDBRANCH  16  17
ENDBRANCH  11  16
ENDBRANCH   8  11
ENDBRANCH   4   7
BRANCH   1  22
ATOM     22  N   UNK A   0       8.489  -2.759  22.552  0.00  0.00    -0.338 N 
ATOM     23  H   UNK A   0       8.845  -3.024  23.468  0.00  0.00    +0.146 HD
BRANCH  22  24
ATOM     24  C   UNK A   0       7.317  -3.556  22.163  0.00  0.00    +0.154 C 
BRANCH  24  35
ATOM     25  N   UNK A   0       5.533  -7.465  28.573  0.00  0.00    -0.329 N 
ATOM     26  H   UNK A   0       4.527  -7.462  28.672  0.00  0.00    +0.145 HD
ATOM     27  H   UNK A   0       5.994  -7.337  29.471  0.00  0.00    +0.145 HD
ATOM     28  C   UNK A   0       6.039  -6.619  27.642  0.00  0.00    +0.195 A 
ATOM     29  N   UNK A   0       5.319  -6.565  26.500  0.00  0.00    -0.314 N 
ATOM     30  H   UNK A   0       4.538  -7.186  26.366  0.00  0.00    +0.170 HD
ATOM     31  C   UNK A   0       5.710  -5.804  25.436  0.00  0.00    +0.130 A 
ATOM     32  N   UNK A   0       4.972  -5.799  24.271  0.00  0.00    -0.323 N 
ATOM     33  H   UNK A   0       4.311  -6.553  24.146  0.00  0.00    +0.148 HD
ATOM     34  C   UNK A   0       5.460  -5.130  23.072  0.00  0.00    +0.155 C 
ATOM     35  C   UNK A   0       6.719  -4.306  23.350  0.00  0.00    +0.054 C 
ATOM     36  N   UNK A   0       7.345  -4.276  24.494  0.00  0.00    -0.245 NA
ATOM     37  C   UNK A   0       6.836  -5.054  25.528  0.00  0.00    +0.168 A 
ATOM     38  C   UNK A   0       7.596  -5.122  26.857  0.00  0.00    +0.302 A 
ATOM     39  O   UNK A   0       8.614  -4.451  27.011  0.00  0.00    -0.263 OA
ATOM     40  N   UNK A   0       7.122  -5.954  27.859  0.00  0.00    -0.176 NA
ENDBRANCH  24  35
ENDBRANCH  22  24
ENDBRANCH   1  22
TORSDOF 11
ENDMDL
MODEL 2
REMARK VINA RESULT:      -8.3      1.224      1.712
REMARK  Name = 
REMARK  11 active torsions:
REMARK  status: ('A' for Active; 'I' for Inactive)
REMARK    1  A    between atoms: C_10  and  C_11
REMARK    2  A    between atoms: C_11  and  N_12
REMARK    3  A    between atoms: N_12  and  C_13
REMARK    4  A    between atoms: C_16  and  C_19
REMARK    5  A    between atoms: N_21  and  CA_22
REMARK    6  A    between atoms: CA_22  and  CB_24
REMARK    7  A    between atoms: CA_22  and  C_29
REMARK    8  A    between atoms: CB_24  and  CG_25
REMARK    9  A    between atoms: CG_25  and  CD_26
REMARK   10  A    between atoms: CD_26  and  OE1_27
REMARK   11  A    between atoms: C_29  and  O_30
REMARK                            x       y       z     vdW  Elec       q    Type
REMARK                         _______ _______ _______ _____ _____    ______ ____
ROOT
ATOM      1  C   UNK A   0       8.775  -1.060  22.402  0.00  0.00    +0.027 A 
ATOM      2  C   UNK A   0       9.777  -0.244  21.863  0.00  0.00    +0.023 A 
ATOM      3  C   UNK A   0       9.658   1.156  21.849  0.00  0.00    +0.015 A 
ATOM      4  C   UNK A   0       8.544   1.775  22.423  0.00  0.00    +0.037 A 
ATOM      5  C   UNK A   0       7.548   0.976  22.992  0.00  0.00    +0.015 A 
ATOM      6  C   UNK A   0       7.669  -0.422  22.985  0.00  0.00    +0.023 A 
ENDROOT
BRANCH   4   7
ATOM      7  C   UNK A   0       8.463   3.257  22.586  0.00  0.00    +0.245 C 
ATOM      8  N   GLU A   1       9.533   3.891  23.192  0.00  0.00    -0.298 N 
ATOM      9  H   GLU A   1      10.442   3.437  23.163  0.00  0.00    +0.150 HD
ATOM     10  O   UNK A   0       7.474   3.862  22.191  0.00  0.00    -0.270 OA
BRANCH   8  11
ATOM     11  CA  GLU A   1       9.485   5.335  23.516  0.00  0.00    +0.182 C 
BRANCH  11  12
ATOM     12  C   GLU A   1       8.619   5.543  24.774  0.00  0.00    +0.325 C 
ATOM     13  OXT GLU A   1       9.009   5.439  25.925  0.00  0.00    -0.249 OA
BRANCH  12  14
ATOM     14  O   GLU A   1       7.357   5.948  24.475  0.00  0.00    -0.479 OA
ATOM     15  H   GLU A   1       7.159   6.784  24.943  0.00  0.00    +0.295 HD
ENDBRANCH  12  14
ENDBRANCH  11  12
BRANCH  11  16
ATOM     16  CB  GLU A   1      10.865   5.975  23.711  0.00  0.00    +0.045 C 
BRANCH  16  17
ATOM     17  CG  GLU A   1      12.005   4.961  23.790  0.00  0.00    +0.123 C 
BRANCH  17  18
ATOM     18  CD  GLU A   1      13.089   5.245  22.777  0.00  0.00    +0.305 C 
ATOM     19  OE2 GLU A   1      12.907   5.613  21.629  0.00  0.00    -0.251 OA
BRANCH  18  20
ATOM     20  OE1 GLU A   1      14.327   5.063  23.293  0.00  0.00    -0.481 OA
ATOM     21  HE1 GLU A   1      14.716   5.878  23.667  0.00  0.00    +0.295 HD
ENDBRANCH  18  20
ENDBRANCH  17  18
ENDBRANCH  16  17
ENDBRANCH  11  16
ENDBRANCH   8  11
ENDBRANCH   4   7
BRANCH   1  22
ATOM     22  N   UNK A   0       8.898  -2.451  22.523  0.00  0.00    -0.338 N 
ATOM     23  H   UNK A   0       9.615  -2.698  23.203  0.00  0.00    +0.146 HD
BRANCH  22  24
ATOM     24  C   UNK A   0       7.686  -3.268  22.678  0.00  0.00    +0.154 C 
BRANCH  24  35
ATOM     25  N   UNK A   0       6.443  -7.088  29.267  0.00  0.00    -0.329 N 
ATOM     26  H   UNK A   0       7.309  -7.534  29.538  0.00  0.00    +0.145 HD
ATOM     27  H   UNK A   0       5.644  -7.694  29.438  0.00  0.00    +0.145 HD
ATOM     28  C   UNK A   0       6.407  -6.578  28.011  0.00  0.00    +0.195 A 
ATOM     29  N   UNK A   0       7.550  -5.963  27.636  0.00  0.00    -0.314 N 
ATOM     30  H   UNK A   0       8.296  -5.837  28.298  0.00  0.00    +0.170 HD
ATOM     31  C   UNK A   0       7.673  -5.348  26.423  0.00  0.00    +0.130 A 
ATOM     32  N   UNK A   0       8.840  -4.696  26.084  0.00  0.00    -0.323 N 
ATOM     33  H   UNK A   0       9.472  -4.469  26.840  0.00  0.00    +0.148 HD
ATOM     34  C   UNK A   0       8.932  -3.895  24.871  0.00  0.00    +0.155 C 
ATOM     35  C   UNK A   0       7.696  -4.059  23.983  0.00  0.00    +0.054 C 
ATOM     36  N   UNK A   0       6.640  -4.754  24.307  0.00  0.00    -0.245 NA
ATOM     37  C   UNK A   0       6.636  -5.378  25.550  0.00  0.00    +0.168 A 
ATOM     38  C   UNK A   0       5.377  -6.122  26.008  0.00  0.00    +0.302 A 
ATOM     39  O   UNK A   0       4.408  -6.201  25.256  0.00  0.00    -0.263 OA
ATOM     40  N   UNK A   0       5.354  -6.682  27.276  0.00  0.00    -0.176 NA
ENDBRANCH  24  35
ENDBRANCH  22  24
ENDBRANCH   1  22
TORSDOF 11
ENDMDL
MODEL 3
REMARK VINA RESULT:      -8.1      1.380      2.768
REMARK  Name = 
REMARK  11 active torsions:
REMARK  status: ('A' for Active; 'I' for Inactive)
REMARK    1  A    between atoms: C_10  and  C_11
REMARK    2  A    between atoms: C_11  and  N_12
REMARK    3  A    between atoms: N_12  and  C_13
REMARK    4  A    between atoms: C_16  and  C_19
REMARK    5  A    between atoms: N_21  and  CA_22
REMARK    6  A    between atoms: CA_22  and  CB_24
REMARK    7  A    between atoms: CA_22  and  C_29
REMARK    8  A    between atoms: CB_24  and  CG_25
REMARK    9  A    between atoms: CG_25  and  CD_26
REMARK   10  A    between atoms: CD_26  and  OE1_27
REMARK   11  A    between atoms: C_29  and  O_30
REMARK                            x       y       z     vdW  Elec       q    Type
REMARK                         _______ _______ _______ _____ _____    ______ ____
ROOT
ATOM      1  C   UNK A   0       9.290  -1.207  23.047  0.00  0.00    +0.027 A 
ATOM      2  C   UNK A   0       9.612  -0.812  24.351  0.00  0.00    +0.023 A 
ATOM      3  C   UNK A   0       9.834   0.537  24.678  0.00  0.00    +0.015 A 
ATOM      4  C   UNK A   0       9.688   1.531  23.707  0.00  0.00    +0.037 A 
ATOM      5  C   UNK A   0       9.338   1.157  22.407  0.00  0.00    +0.015 A 
ATOM      6  C   UNK A   0       9.136  -0.194  22.087  0.00  0.00    +0.023 A 
ENDROOT
BRANCH   4   7
ATOM      7  C   UNK A   0       9.741   2.983  24.053  0.00  0.00    +0.245 C 
ATOM      8  N   GLU A   1      10.724   3.747  23.450  0.00  0.00    -0.298 N 
ATOM      9  H   GLU A   1      11.108   3.426  22.566  0.00  0.00    +0.150 HD
ATOM     10  O   UNK A   0       8.933   3.451  24.846  0.00  0.00    -0.270 OA
BRANCH   8  11
ATOM     11  CA  GLU A   1      10.937   5.162  23.831  0.00  0.00    +0.182 C 
BRANCH  11  12
ATOM     12  C   GLU A   1      12.448   5.469  23.812  0.00  0.00    +0.325 C 
ATOM     13  OXT GLU A   1      13.254   4.997  23.027  0.00  0.00    -0.249 OA
BRANCH  12  14
ATOM     14  O   GLU A   1      12.800   6.408  24.728  0.00  0.00    -0.479 OA
ATOM     15  H   GLU A   1      13.754   6.607  24.646  0.00  0.00    +0.295 HD
ENDBRANCH  12  14
ENDBRANCH  11  12
BRANCH  11  16
ATOM     16  CB  GLU A   1      10.181   6.164  22.951  0.00  0.00    +0.045 C 
BRANCH  16  17
ATOM     17  CG  GLU A   1       8.770   6.473  23.448  0.00  0.00    +0.123 C 
BRANCH  17  18
ATOM     18  CD  GLU A   1       7.713   6.046  22.458  0.00  0.00    +0.305 C 
ATOM     19  OE2 GLU A   1       6.851   6.767  21.985  0.00  0.00    -0.251 OA
BRANCH  18  20
ATOM     20  OE1 GLU A   1       7.833   4.740  22.119  0.00  0.00    -0.481 OA
ATOM     21  HE1 GLU A   1       7.393   4.516  21.276  0.00  0.00    +0.295 HD
ENDBRANCH  18  20
ENDBRANCH  17  18
ENDBRANCH  16  17
ENDBRANCH  11  16
ENDBRANCH   8  11
ENDBRANCH   4   7
BRANCH   1  22
ATOM     22  N   UNK A   0       8.967  -2.526  22.700  0.00  0.00    -0.338 N 
ATOM     23  H   UNK A   0       9.373  -3.188  23.357  0.00  0.00    +0.146 HD
BRANCH  22  24
ATOM     24  C   UNK A   0       7.574  -2.860  22.370  0.00  0.00    +0.154 C 
BRANCH  24  35
ATOM     25  N   UNK A   0       5.423  -7.313  28.293  0.00  0.00    -0.329 N 
ATOM     26  H   UNK A   0       4.429  -7.191  28.433  0.00  0.00    +0.145 HD
ATOM     27  H   UNK A   0       5.917  -7.367  29.181  0.00  0.00    +0.145 HD
ATOM     28  C   UNK A   0       6.018  -6.426  27.458  0.00  0.00    +0.195 A 
ATOM     29  N   UNK A   0       5.286  -6.127  26.363  0.00  0.00    -0.314 N 
ATOM     30  H   UNK A   0       4.425  -6.616  26.182  0.00  0.00    +0.170 HD
ATOM     31  C   UNK A   0       5.752  -5.291  25.390  0.00  0.00    +0.130 A 
ATOM     32  N   UNK A   0       4.996  -5.034  24.266  0.00  0.00    -0.323 N 
ATOM     33  H   UNK A   0       4.235  -5.672  24.072  0.00  0.00    +0.148 HD
ATOM     34  C   UNK A   0       5.542  -4.283  23.143  0.00  0.00    +0.155 C 
ATOM     35  C   UNK A   0       6.908  -3.676  23.474  0.00  0.00    +0.054 C 
ATOM     36  N   UNK A   0       7.558  -3.879  24.587  0.00  0.00    -0.245 NA
ATOM     37  C   UNK A   0       6.971  -4.714  25.532  0.00  0.00    +0.168 A 
ATOM     38  C   UNK A   0       7.745  -5.056  26.809  0.00  0.00    +0.302 A 
ATOM     39  O   UNK A   0       8.848  -4.551  27.007  0.00  0.00    -0.263 OA
ATOM     40  N   UNK A   0       7.185  -5.943  27.715  0.00  0.00    -0.176 NA
ENDBRANCH  24  35
ENDBRANCH  22  24
ENDBRANCH   1  22
TORSDOF 11
ENDMDL
MODEL 4
REMARK VINA RESULT:      -7.9      1.846      3.422
REMARK  Name = 
REMARK  11 active torsions:
REMARK  status: ('A' for Active; 'I' for Inactive)
REMARK    1  A    between atoms: C_10  and  C_11
REMARK    2  A    between atoms: C_11  and  N_12
REMARK    3  A    between atoms: N_12  and  C_13
REMARK    4  A    between atoms: C_16  and  C_19
REMARK    5  A    between atoms: N_21  and  CA_22
REMARK    6  A    between atoms: CA_22  and  CB_24
REMARK    7  A    between atoms: CA_22  and  C_29
REMARK    8  A    between atoms: CB_24  and  CG_25
REMARK    9  A    between atoms: CG_25  and  CD_26
REMARK   10  A    between atoms: CD_26  and  OE1_27
REMARK   11  A    between atoms: C_29  and  O_30
REMARK                            x       y       z     vdW  Elec       q    Type
REMARK                         _______ _______ _______ _____ _____    ______ ____
ROOT
ATOM      1  C   UNK A   0      10.002  -0.763  23.036  0.00  0.00    +0.027 A 
ATOM      2  C   UNK A   0      10.270  -0.154  24.268  0.00  0.00    +0.023 A 
ATOM      3  C   UNK A   0      10.367   1.242  24.393  0.00  0.00    +0.015 A 
ATOM      4  C   UNK A   0      10.148   2.066  23.286  0.00  0.00    +0.037 A 
ATOM      5  C   UNK A   0       9.849   1.476  22.054  0.00  0.00    +0.015 A 
ATOM      6  C   UNK A   0       9.773   0.080  21.937  0.00  0.00    +0.023 A 
ENDROOT
BRANCH   4   7
ATOM      7  C   UNK A   0      10.067   3.552  23.414  0.00  0.00    +0.245 C 
ATOM      8  N   GLU A   1       8.806   4.120  23.460  0.00  0.00    -0.298 N 
ATOM      9  H   GLU A   1       8.030   3.545  23.775  0.00  0.00    +0.150 HD
ATOM     10  O   UNK A   0      11.094   4.217  23.470  0.00  0.00    -0.270 OA
BRANCH   8  11
ATOM     11  CA  GLU A   1       8.626   5.590  23.451  0.00  0.00    +0.182 C 
BRANCH  11  12
ATOM     12  C   GLU A   1       7.640   5.973  22.330  0.00  0.00    +0.325 C 
ATOM     13  OXT GLU A   1       7.277   7.108  22.068  0.00  0.00    -0.249 OA
BRANCH  12  14
ATOM     14  O   GLU A   1       7.262   4.905  21.582  0.00  0.00    -0.479 OA
ATOM     15  H   GLU A   1       7.816   4.131  21.809  0.00  0.00    +0.295 HD
ENDBRANCH  12  14
ENDBRANCH  11  12
BRANCH  11  16
ATOM     16  CB  GLU A   1       8.156   6.167  24.792  0.00  0.00    +0.045 C 
BRANCH  16  17
ATOM     17  CG  GLU A   1       7.048   5.352  25.455  0.00  0.00    +0.123 C 
BRANCH  17  18
ATOM     18  CD  GLU A   1       7.547   4.592  26.661  0.00  0.00    +0.305 C 
ATOM     19  OE2 GLU A   1       7.575   5.015  27.805  0.00  0.00    -0.251 OA
BRANCH  18  20
ATOM     20  OE1 GLU A   1       7.956   3.342  26.340  0.00  0.00    -0.481 OA
ATOM     21  HE1 GLU A   1       7.642   2.658  26.964  0.00  0.00    +0.295 HD
ENDBRANCH  18  20
ENDBRANCH  17  18
ENDBRANCH  16  17
ENDBRANCH  11  16
ENDBRANCH   8  11
ENDBRANCH   4   7
BRANCH   1  22
ATOM     22  N   UNK A   0       9.802  -2.143  22.887  0.00  0.00    -0.338 N 
ATOM     23  H   UNK A   0      10.395  -2.522  22.152  0.00  0.00    +0.146 HD
BRANCH  22  24
ATOM     24  C   UNK A   0       9.788  -2.999  24.082  0.00  0.00    +0.154 C 
BRANCH  24  35
ATOM     25  N   UNK A   0       3.749  -7.515  25.718  0.00  0.00    -0.329 N 
ATOM     26  H   UNK A   0       2.941  -7.145  25.236  0.00  0.00    +0.145 HD
ATOM     27  H   UNK A   0       3.507  -7.834  26.654  0.00  0.00    +0.145 HD
ATOM     28  C   UNK A   0       4.842  -6.712  25.746  0.00  0.00    +0.195 A 
ATOM     29  N   UNK A   0       5.075  -6.063  24.584  0.00  0.00    -0.314 N 
ATOM     30  H   UNK A   0       4.515  -6.264  23.773  0.00  0.00    +0.170 HD
ATOM     31  C   UNK A   0       6.161  -5.253  24.417  0.00  0.00    +0.130 A 
ATOM     32  N   UNK A   0       6.393  -4.634  23.207  0.00  0.00    -0.323 N 
ATOM     33  H   UNK A   0       5.899  -5.001  22.404  0.00  0.00    +0.148 HD
ATOM     34  C   UNK A   0       7.628  -3.905  22.956  0.00  0.00    +0.155 C 
ATOM     35  C   UNK A   0       8.470  -3.754  24.225  0.00  0.00    +0.054 C 
ATOM     36  N   UNK A   0       8.175  -4.292  25.377  0.00  0.00    -0.245 NA
ATOM     37  C   UNK A   0       7.019  -5.063  25.450  0.00  0.00    +0.168 A 
ATOM     38  C   UNK A   0       6.689  -5.791  26.757  0.00  0.00    +0.302 A 
ATOM     39  O   UNK A   0       7.416  -5.646  27.737  0.00  0.00    -0.263 OA
ATOM     40  N   UNK A   0       5.574  -6.614  26.802  0.00  0.00    -0.176 NA
ENDBRANCH  24  35
ENDBRANCH  22  24
ENDBRANCH   1  22
TORSDOF 11
ENDMDL
MODEL 5
REMARK VINA RESULT:      -7.9      3.765      9.192
REMARK  Name = 
REMARK  11 active torsions:
REMARK  status: ('A' for Active; 'I' for Inactive)
REMARK    1  A    between atoms: C_10  and  C_11
REMARK    2  A    between atoms: C_11  and  N_12
REMARK    3  A    between atoms: N_12  and  C_13
REMARK    4  A    between atoms: C_16  and  C_19
REMARK    5  A    between atoms: N_21  and  CA_22
REMARK    6  A    between atoms: CA_22  and  CB_24
REMARK    7  A    between atoms: CA_22  and  C_29
REMARK    8  A    between atoms: CB_24  and  CG_25
REMARK    9  A    between atoms: CG_25  and  CD_26
REMARK   10  A    between atoms: CD_26  and  OE1_27
REMARK   11  A    between atoms: C_29  and  O_30
REMARK                            x       y       z     vdW  Elec       q    Type
REMARK                         _______ _______ _______ _____ _____    ______ ____
ROOT
ATOM      1  C   UNK A   0      10.083   2.404  23.250  0.00  0.00    +0.027 A 
ATOM      2  C   UNK A   0      10.167   1.698  24.457  0.00  0.00    +0.023 A 
ATOM      3  C   UNK A   0       9.999   0.304  24.508  0.00  0.00    +0.015 A 
ATOM      4  C   UNK A   0       9.791  -0.424  23.334  0.00  0.00    +0.037 A 
ATOM      5  C   UNK A   0       9.734   0.260  22.117  0.00  0.00    +0.015 A 
ATOM      6  C   UNK A   0       9.885   1.655  22.079  0.00  0.00    +0.023 A 
ENDROOT
BRANCH   4   7
ATOM      7  C   UNK A   0       9.785  -1.918  23.325  0.00  0.00    +0.245 C 
ATOM      8  N   GLU A   1       8.640  -2.554  23.769  0.00  0.00    -0.298 N 
ATOM      9  H   GLU A   1       7.760  -2.047  23.727  0.00  0.00    +0.150 HD
ATOM     10  O   UNK A   0      10.773  -2.530  22.936  0.00  0.00    -0.270 OA
BRANCH   8  11
ATOM     11  CA  GLU A   1       8.590  -4.026  23.922  0.00  0.00    +0.182 C 
BRANCH  11  12
ATOM     12  C   GLU A   1       9.227  -4.417  25.271  0.00  0.00    +0.325 C 
ATOM     13  OXT GLU A   1       8.788  -4.121  26.370  0.00  0.00    -0.249 OA
BRANCH  12  14
ATOM     14  O   GLU A   1      10.313  -5.219  25.121  0.00  0.00    -0.479 OA
ATOM     15  H   GLU A   1      10.904  -4.849  24.435  0.00  0.00    +0.295 HD
ENDBRANCH  12  14
ENDBRANCH  11  12
BRANCH  11  16
ATOM     16  CB  GLU A   1       7.180  -4.616  23.810  0.00  0.00    +0.045 C 
BRANCH  16  17
ATOM     17  CG  GLU A   1       7.014  -5.594  22.649  0.00  0.00    +0.123 C 
BRANCH  17  18
ATOM     18  CD  GLU A   1       6.085  -5.060  21.585  0.00  0.00    +0.305 C 
ATOM     19  OE2 GLU A   1       6.003  -5.476  20.441  0.00  0.00    -0.251 OA
BRANCH  18  20
ATOM     20  OE1 GLU A   1       5.311  -4.050  22.047  0.00  0.00    -0.481 OA
ATOM     21  HE1 GLU A   1       5.300  -3.269  21.460  0.00  0.00    +0.295 HD
ENDBRANCH  18  20
ENDBRANCH  17  18
ENDBRANCH  16  17
ENDBRANCH  11  16
ENDBRANCH   8  11
ENDBRANCH   4   7
BRANCH   1  22
ATOM     22  N   UNK A   0      10.339   3.778  23.142  0.00  0.00    -0.338 N 
ATOM     23  H   UNK A   0      10.417   4.060  22.167  0.00  0.00    +0.146 HD
BRANCH  22  24
ATOM     24  C   UNK A   0       9.533   4.722  23.928  0.00  0.00    +0.154 C 
BRANCH  24  35
ATOM     25  N   UNK A   0       2.104   3.322  22.378  0.00  0.00    -0.329 N 
ATOM     26  H   UNK A   0       1.680   4.187  22.072  0.00  0.00    +0.145 HD
ATOM     27  H   UNK A   0       1.480   2.797  22.986  0.00  0.00    +0.145 HD
ATOM     28  C   UNK A   0       3.340   3.430  22.927  0.00  0.00    +0.195 A 
ATOM     29  N   UNK A   0       4.146   4.310  22.294  0.00  0.00    -0.314 N 
ATOM     30  H   UNK A   0       3.843   4.749  21.441  0.00  0.00    +0.170 HD
ATOM     31  C   UNK A   0       5.441   4.507  22.680  0.00  0.00    +0.130 A 
ATOM     32  N   UNK A   0       6.250   5.385  21.991  0.00  0.00    -0.323 N 
ATOM     33  H   UNK A   0       5.943   5.660  21.067  0.00  0.00    +0.148 HD
ATOM     34  C   UNK A   0       7.675   5.485  22.280  0.00  0.00    +0.155 C 
ATOM     35  C   UNK A   0       8.061   4.685  23.526  0.00  0.00    +0.054 C 
ATOM     36  N   UNK A   0       7.243   3.925  24.201  0.00  0.00    -0.245 NA
ATOM     37  C   UNK A   0       5.932   3.829  23.747  0.00  0.00    +0.168 A 
ATOM     38  C   UNK A   0       4.965   2.872  24.453  0.00  0.00    +0.302 A 
ATOM     39  O   UNK A   0       5.343   2.242  25.438  0.00  0.00    -0.263 OA
ATOM     40  N   UNK A   0       3.680   2.728  23.953  0.00  0.00    -0.176 NA
ENDBRANCH  24  35
ENDBRANCH  22  24
ENDBRANCH   1  22
TORSDOF 11
ENDMDL
MODEL 6
REMARK VINA RESULT:      -7.8      1.772      2.713
REMARK  Name = 
REMARK  11 active torsions:
REMARK  status: ('A' for Active; 'I' for Inactive)
REMARK    1  A    between atoms: C_10  and  C_11
REMARK    2  A    between atoms: C_11  and  N_12
REMARK    3  A    between atoms: N_12  and  C_13
REMARK    4  A    between atoms: C_16  and  C_19
REMARK    5  A    between atoms: N_21  and  CA_22
REMARK    6  A    between atoms: CA_22  and  CB_24
REMARK    7  A    between atoms: CA_22  and  C_29
REMARK    8  A    between atoms: CB_24  and  CG_25
REMARK    9  A    between atoms: CG_25  and  CD_26
REMARK   10  A    between atoms: CD_26  and  OE1_27
REMARK   11  A    between atoms: C_29  and  O_30
REMARK                            x       y       z     vdW  Elec       q    Type
REMARK                         _______ _______ _______ _____ _____    ______ ____
ROOT
ATOM      1  C   UNK A   0       9.569  -1.278  23.871  0.00  0.00    +0.027 A 
ATOM      2  C   UNK A   0       9.916  -0.338  24.849  0.00  0.00    +0.023 A 
ATOM      3  C   UNK A   0       9.839   1.043  24.603  0.00  0.00    +0.015 A 
ATOM      4  C   UNK A   0       9.362   1.516  23.378  0.00  0.00    +0.037 A 
ATOM      5  C   UNK A   0       8.982   0.592  22.401  0.00  0.00    +0.015 A 
ATOM      6  C   UNK A   0       9.080  -0.785  22.650  0.00  0.00    +0.023 A 
ENDROOT
BRANCH   4   7
ATOM      7  C   UNK A   0       9.098   2.967  23.143  0.00  0.00    +0.245 C 
ATOM      8  N   GLU A   1       9.927   3.876  23.776  0.00  0.00    -0.298 N 
ATOM      9  H   GLU A   1      10.857   3.572  24.049  0.00  0.00    +0.150 HD
ATOM     10  O   UNK A   0       8.175   3.310  22.415  0.00  0.00    -0.270 OA
BRANCH   8  11
ATOM     11  CA  GLU A   1       9.661   5.331  23.710  0.00  0.00    +0.182 C 
BRANCH  11  12
ATOM     12  C   GLU A   1       8.900   5.765  24.978  0.00  0.00    +0.325 C 
ATOM     13  OXT GLU A   1       8.808   5.111  26.004  0.00  0.00    -0.249 OA
BRANCH  12  14
ATOM     14  O   GLU A   1       8.392   7.021  24.877  0.00  0.00    -0.479 OA
ATOM     15  H   GLU A   1       7.553   6.998  24.375  0.00  0.00    +0.295 HD
ENDBRANCH  12  14
ENDBRANCH  11  12
BRANCH  11  16
ATOM     16  CB  GLU A   1      10.920   6.186  23.529  0.00  0.00    +0.045 C 
BRANCH  16  17
ATOM     17  CG  GLU A   1      12.208   5.476  23.942  0.00  0.00    +0.123 C 
BRANCH  17  18
ATOM     18  CD  GLU A   1      13.190   5.370  22.799  0.00  0.00    +0.305 C 
ATOM     19  OE2 GLU A   1      12.940   5.592  21.626  0.00  0.00    -0.251 OA
BRANCH  18  20
ATOM     20  OE1 GLU A   1      14.425   5.012  23.223  0.00  0.00    -0.481 OA
ATOM     21  HE1 GLU A   1      14.428   4.599  24.108  0.00  0.00    +0.295 HD
ENDBRANCH  18  20
ENDBRANCH  17  18
ENDBRANCH  16  17
ENDBRANCH  11  16
ENDBRANCH   8  11
ENDBRANCH   4   7
BRANCH   1  22
ATOM     22  N   UNK A   0       9.539  -2.659  24.106  0.00  0.00    -0.338 N 
ATOM     23  H   UNK A   0      10.430  -3.091  23.870  0.00  0.00    +0.146 HD
BRANCH  22  24
ATOM     24  C   UNK A   0       9.005  -3.159  25.381  0.00  0.00    +0.154 C 
BRANCH  24  35
ATOM     25  N   UNK A   0       2.732  -7.280  23.588  0.00  0.00    -0.329 N 
ATOM     26  H   UNK A   0       2.875  -8.226  23.917  0.00  0.00    +0.145 HD
ATOM     27  H   UNK A   0       2.279  -7.269  22.677  0.00  0.00    +0.145 HD
ATOM     28  C   UNK A   0       3.827  -6.480  23.595  0.00  0.00    +0.195 A 
ATOM     29  N   UNK A   0       4.609  -6.630  24.687  0.00  0.00    -0.314 N 
ATOM     30  H   UNK A   0       4.314  -7.226  25.441  0.00  0.00    +0.170 HD
ATOM     31  C   UNK A   0       5.725  -5.869  24.884  0.00  0.00    +0.130 A 
ATOM     32  N   UNK A   0       6.482  -6.020  26.027  0.00  0.00    -0.323 N 
ATOM     33  H   UNK A   0       6.048  -6.504  26.802  0.00  0.00    +0.148 HD
ATOM     34  C   UNK A   0       7.574  -5.107  26.335  0.00  0.00    +0.155 C 
ATOM     35  C   UNK A   0       7.872  -4.159  25.171  0.00  0.00    +0.054 C 
ATOM     36  N   UNK A   0       7.177  -4.101  24.068  0.00  0.00    -0.245 NA
ATOM     37  C   UNK A   0       6.085  -4.954  23.950  0.00  0.00    +0.168 A 
ATOM     38  C   UNK A   0       5.186  -4.849  22.714  0.00  0.00    +0.302 A 
ATOM     39  O   UNK A   0       5.467  -4.053  21.821  0.00  0.00    -0.263 OA
ATOM     40  N   UNK A   0       4.059  -5.653  22.634  0.00  0.00    -0.176 NA
ENDBRANCH  24  35
ENDBRANCH  22  24
ENDBRANCH   1  22
TORSDOF 11
ENDMDL
MODEL 7
REMARK VINA RESULT:      -7.6      2.348      4.035
REMARK  Name = 
REMARK  11 active torsions:
REMARK  status: ('A' for Active; 'I' for Inactive)
REMARK    1  A    between atoms: C_10  and  C_11
REMARK    2  A    between atoms: C_11  and  N_12
REMARK    3  A    between atoms: N_12  and  C_13
REMARK    4  A    between atoms: C_16  and  C_19
REMARK    5  A    between atoms: N_21  and  CA_22
REMARK    6  A    between atoms: CA_22  and  CB_24
REMARK    7  A    between atoms: CA_22  and  C_29
REMARK    8  A    between atoms: CB_24  and  CG_25
REMARK    9  A    between atoms: CG_25  and  CD_26
REMARK   10  A    between atoms: CD_26  and  OE1_27
REMARK   11  A    between atoms: C_29  and  O_30
REMARK                            x       y       z     vdW  Elec       q    Type
REMARK                         _______ _______ _______ _____ _____    ______ ____
ROOT
ATOM      1  C   UNK A   0      10.048  -0.779  23.098  0.00  0.00    +0.027 A 
ATOM      2  C   UNK A   0      10.326  -0.164  24.325  0.00  0.00    +0.023 A 
ATOM      3  C   UNK A   0      10.417   1.233  24.445  0.00  0.00    +0.015 A 
ATOM      4  C   UNK A   0      10.181   2.052  23.338  0.00  0.00    +0.037 A 
ATOM      5  C   UNK A   0       9.873   1.457  22.112  0.00  0.00    +0.015 A 
ATOM      6  C   UNK A   0       9.803   0.060  21.999  0.00  0.00    +0.023 A 
ENDROOT
BRANCH   4   7
ATOM      7  C   UNK A   0      10.094   3.538  23.463  0.00  0.00    +0.245 C 
ATOM      8  N   GLU A   1       8.830   4.101  23.507  0.00  0.00    -0.298 N 
ATOM      9  H   GLU A   1       8.057   3.523  23.823  0.00  0.00    +0.150 HD
ATOM     10  O   UNK A   0      11.118   4.208  23.517  0.00  0.00    -0.270 OA
BRANCH   8  11
ATOM     11  CA  GLU A   1       8.644   5.570  23.495  0.00  0.00    +0.182 C 
BRANCH  11  12
ATOM     12  C   GLU A   1       7.700   5.951  22.338  0.00  0.00    +0.325 C 
ATOM     13  OXT GLU A   1       7.419   7.090  22.004  0.00  0.00    -0.249 OA
BRANCH  12  14
ATOM     14  O   GLU A   1       7.258   4.868  21.648  0.00  0.00    -0.479 OA
ATOM     15  H   GLU A   1       6.936   4.188  22.273  0.00  0.00    +0.295 HD
ENDBRANCH  12  14
ENDBRANCH  11  12
BRANCH  11  16
ATOM     16  CB  GLU A   1       8.121   6.141  24.818  0.00  0.00    +0.045 C 
BRANCH  16  17
ATOM     17  CG  GLU A   1       7.025   5.293  25.461  0.00  0.00    +0.123 C 
BRANCH  17  18
ATOM     18  CD  GLU A   1       7.514   4.575  26.696  0.00  0.00    +0.305 C 
ATOM     19  OE2 GLU A   1       7.526   5.034  27.826  0.00  0.00    -0.251 OA
BRANCH  18  20
ATOM     20  OE1 GLU A   1       7.935   3.318  26.419  0.00  0.00    -0.481 OA
ATOM     21  HE1 GLU A   1       7.618   2.652  27.060  0.00  0.00    +0.295 HD
ENDBRANCH  18  20
ENDBRANCH  17  18
ENDBRANCH  16  17
ENDBRANCH  11  16
ENDBRANCH   8  11
ENDBRANCH   4   7
BRANCH   1  22
ATOM     22  N   UNK A   0       9.854  -2.160  22.955  0.00  0.00    -0.338 N 
ATOM     23  H   UNK A   0      10.437  -2.537  22.211  0.00  0.00    +0.146 HD
BRANCH  22  24
ATOM     24  C   UNK A   0       9.864  -3.014  24.151  0.00  0.00    +0.154 C 
BRANCH  24  35
ATOM     25  N   UNK A   0       2.818  -6.158  24.109  0.00  0.00    -0.329 N 
ATOM     26  H   UNK A   0       2.886  -7.084  24.509  0.00  0.00    +0.145 HD
ATOM     27  H   UNK A   0       2.188  -6.145  23.310  0.00  0.00    +0.145 HD
ATOM     28  C   UNK A   0       3.995  -5.554  23.809  0.00  0.00    +0.195 A 
ATOM     29  N   UNK A   0       4.960  -5.745  24.735  0.00  0.00    -0.314 N 
ATOM     30  H   UNK A   0       4.747  -6.219  25.596  0.00  0.00    +0.170 HD
ATOM     31  C   UNK A   0       6.192  -5.167  24.622  0.00  0.00    +0.130 A 
ATOM     32  N   UNK A   0       7.144  -5.350  25.602  0.00  0.00    -0.323 N 
ATOM     33  H   UNK A   0       6.818  -5.690  26.497  0.00  0.00    +0.148 HD
ATOM     34  C   UNK A   0       8.399  -4.611  25.584  0.00  0.00    +0.155 C 
ATOM     35  C   UNK A   0       8.578  -3.824  24.283  0.00  0.00    +0.054 C 
ATOM     36  N   UNK A   0       7.681  -3.740  23.340  0.00  0.00    -0.245 NA
ATOM     37  C   UNK A   0       6.475  -4.405  23.537  0.00  0.00    +0.168 A 
ATOM     38  C   UNK A   0       5.360  -4.251  22.498  0.00  0.00    +0.302 A 
ATOM     39  O   UNK A   0       5.559  -3.588  21.482  0.00  0.00    -0.263 OA
ATOM     40  N   UNK A   0       4.136  -4.859  22.734  0.00  0.00    -0.176 NA
ENDBRANCH  24  35
ENDBRANCH  22  24
ENDBRANCH   1  22
TORSDOF 11
ENDMDL
MODEL 8
REMARK VINA RESULT:      -7.5      2.053      3.643
REMARK  Name = 
REMARK  11 active torsions:
REMARK  status: ('A' for Active; 'I' for Inactive)
REMARK    1  A    between atoms: C_10  and  C_11
REMARK    2  A    between atoms: C_11  and  N_12
REMARK    3  A    between atoms: N_12  and  C_13
REMARK    4  A    between atoms: C_16  and  C_19
REMARK    5  A    between atoms: N_21  and  CA_22
REMARK    6  A    between atoms: CA_22  and  CB_24
REMARK    7  A    between atoms: CA_22  and  C_29
REMARK    8  A    between atoms: CB_24  and  CG_25
REMARK    9  A    between atoms: CG_25  and  CD_26
REMARK   10  A    between atoms: CD_26  and  OE1_27
REMARK   11  A    between atoms: C_29  and  O_30
REMARK                            x       y       z     vdW  Elec       q    Type
REMARK                         _______ _______ _______ _____ _____    ______ ____
ROOT
ATOM      1  C   UNK A   0       9.154  -1.037  23.425  0.00  0.00    +0.027 A 
ATOM      2  C   UNK A   0      10.290  -0.270  23.713  0.00  0.00    +0.023 A 
ATOM      3  C   UNK A   0      10.205   1.113  23.944  0.00  0.00    +0.015 A 
ATOM      4  C   UNK A   0       8.963   1.754  23.940  0.00  0.00    +0.037 A 
ATOM      5  C   UNK A   0       7.816   0.998  23.685  0.00  0.00    +0.015 A 
ATOM      6  C   UNK A   0       7.913  -0.379  23.437  0.00  0.00    +0.023 A 
ENDROOT
BRANCH   4   7
ATOM      7  C   UNK A   0       8.812   3.181  24.354  0.00  0.00    +0.245 C 
ATOM      8  N   GLU A   1       9.269   4.150  23.479  0.00  0.00    -0.298 N 
ATOM      9  H   GLU A   1       9.333   3.917  22.492  0.00  0.00    +0.150 HD
ATOM     10  O   UNK A   0       8.303   3.453  25.434  0.00  0.00    -0.270 OA
BRANCH   8  11
ATOM     11  CA  GLU A   1       9.284   5.581  23.860  0.00  0.00    +0.182 C 
BRANCH  11  12
ATOM     12  C   GLU A   1      10.744   6.070  23.936  0.00  0.00    +0.325 C 
ATOM     13  OXT GLU A   1      11.231   6.695  24.863  0.00  0.00    -0.249 OA
BRANCH  12  14
ATOM     14  O   GLU A   1      11.487   5.657  22.876  0.00  0.00    -0.479 OA
ATOM     15  H   GLU A   1      11.924   4.808  23.091  0.00  0.00    +0.295 HD
ENDBRANCH  12  14
ENDBRANCH  11  12
BRANCH  11  16
ATOM     16  CB  GLU A   1       8.471   6.483  22.923  0.00  0.00    +0.045 C 
BRANCH  16  17
ATOM     17  CG  GLU A   1       7.402   5.735  22.128  0.00  0.00    +0.123 C 
BRANCH  17  18
ATOM     18  CD  GLU A   1       6.057   5.768  22.815  0.00  0.00    +0.305 C 
ATOM     19  OE2 GLU A   1       5.850   5.486  23.983  0.00  0.00    -0.251 OA
BRANCH  18  20
ATOM     20  OE1 GLU A   1       5.071   6.175  21.981  0.00  0.00    -0.481 OA
ATOM     21  HE1 GLU A   1       4.174   6.004  22.327  0.00  0.00    +0.295 HD
ENDBRANCH  18  20
ENDBRANCH  17  18
ENDBRANCH  16  17
ENDBRANCH  11  16
ENDBRANCH   8  11
ENDBRANCH   4   7
BRANCH   1  22
ATOM     22  N   UNK A   0       9.182  -2.431  23.284  0.00  0.00    -0.338 N 
ATOM     23  H   UNK A   0       9.517  -2.700  22.362  0.00  0.00    +0.146 HD
BRANCH  22  24
ATOM     24  C   UNK A   0       9.781  -3.248  24.349  0.00  0.00    +0.154 C 
BRANCH  24  35
ATOM     25  N   UNK A   0       3.733  -7.291  26.923  0.00  0.00    -0.329 N 
ATOM     26  H   UNK A   0       4.085  -8.076  27.455  0.00  0.00    +0.145 HD
ATOM     27  H   UNK A   0       2.936  -7.559  26.350  0.00  0.00    +0.145 HD
ATOM     28  C   UNK A   0       4.651  -6.613  26.190  0.00  0.00    +0.195 A 
ATOM     29  N   UNK A   0       5.834  -6.437  26.819  0.00  0.00    -0.314 N 
ATOM     30  H   UNK A   0       5.942  -6.719  27.779  0.00  0.00    +0.170 HD
ATOM     31  C   UNK A   0       6.856  -5.733  26.251  0.00  0.00    +0.130 A 
ATOM     32  N   UNK A   0       8.038  -5.539  26.934  0.00  0.00    -0.323 N 
ATOM     33  H   UNK A   0       8.020  -5.699  27.932  0.00  0.00    +0.148 HD
ATOM     34  C   UNK A   0       9.072  -4.653  26.417  0.00  0.00    +0.155 C 
ATOM     35  C   UNK A   0       8.760  -4.180  24.995  0.00  0.00    +0.054 C 
ATOM     36  N   UNK A   0       7.659  -4.452  24.349  0.00  0.00    -0.245 NA
ATOM     37  C   UNK A   0       6.701  -5.217  25.006  0.00  0.00    +0.168 A 
ATOM     38  C   UNK A   0       5.355  -5.477  24.320  0.00  0.00    +0.302 A 
ATOM     39  O   UNK A   0       5.158  -5.053  23.184  0.00  0.00    -0.263 OA
ATOM     40  N   UNK A   0       4.378  -6.180  25.007  0.00  0.00    -0.176 NA
ENDBRANCH  24  35
ENDBRANCH  22  24
ENDBRANCH   1  22
TORSDOF 11
ENDMDL
MODEL 9
REMARK VINA RESULT:      -7.5      2.893     10.115
REMARK  Name = 
REMARK  11 active torsions:
REMARK  status: ('A' for Active; 'I' for Inactive)
REMARK    1  A    between atoms: C_10  and  C_11
REMARK    2  A    between atoms: C_11  and  N_12
REMARK    3  A    between atoms: N_12  and  C_13
REMARK    4  A    between atoms: C_16  and  C_19
REMARK    5  A    between atoms: N_21  and  CA_22
REMARK    6  A    between atoms: CA_22  and  CB_24
REMARK    7  A    between atoms: CA_22  and  C_29
REMARK    8  A    between atoms: CB_24  and  CG_25
REMARK    9  A    between atoms: CG_25  and  CD_26
REMARK   10  A    between atoms: CD_26  and  OE1_27
REMARK   11  A    between atoms: C_29  and  O_30
REMARK                            x       y       z     vdW  Elec       q    Type
REMARK                         _______ _______ _______ _____ _____    ______ ____
ROOT
ATOM      1  C   UNK A   0       9.611  -0.561  25.353  0.00  0.00    +0.027 A 
ATOM      2  C   UNK A   0       8.767  -0.915  26.412  0.00  0.00    +0.023 A 
ATOM      3  C   UNK A   0       8.051  -2.124  26.411  0.00  0.00    +0.015 A 
ATOM      4  C   UNK A   0       8.205  -3.033  25.362  0.00  0.00    +0.037 A 
ATOM      5  C   UNK A   0       9.066  -2.710  24.310  0.00  0.00    +0.015 A 
ATOM      6  C   UNK A   0       9.763  -1.492  24.312  0.00  0.00    +0.023 A 
ENDROOT
BRANCH   4   7
ATOM      7  C   UNK A   0       7.602  -4.399  25.409  0.00  0.00    +0.245 C 
ATOM      8  N   GLU A   1       6.667  -4.649  26.398  0.00  0.00    -0.298 N 
ATOM      9  H   GLU A   1       6.160  -3.862  26.792  0.00  0.00    +0.150 HD
ATOM     10  O   UNK A   0       7.944  -5.246  24.593  0.00  0.00    -0.270 OA
BRANCH   8  11
ATOM     11  CA  GLU A   1       6.116  -6.008  26.606  0.00  0.00    +0.182 C 
BRANCH  11  12
ATOM     12  C   GLU A   1       5.944  -6.259  28.117  0.00  0.00    +0.325 C 
ATOM     13  OXT GLU A   1       6.162  -5.442  28.997  0.00  0.00    -0.249 OA
BRANCH  12  14
ATOM     14  O   GLU A   1       5.432  -7.488  28.386  0.00  0.00    -0.479 OA
ATOM     15  H   GLU A   1       5.548  -8.070  27.608  0.00  0.00    +0.295 HD
ENDBRANCH  12  14
ENDBRANCH  11  12
BRANCH  11  16
ATOM     16  CB  GLU A   1       4.794  -6.262  25.873  0.00  0.00    +0.045 C 
BRANCH  16  17
ATOM     17  CG  GLU A   1       4.328  -5.082  25.022  0.00  0.00    +0.123 C 
BRANCH  17  18
ATOM     18  CD  GLU A   1       4.498  -5.344  23.544  0.00  0.00    +0.305 C 
ATOM     19  OE2 GLU A   1       4.115  -4.614  22.646  0.00  0.00    -0.251 OA
BRANCH  18  20
ATOM     20  OE1 GLU A   1       5.159  -6.502  23.307  0.00  0.00    -0.481 OA
ATOM     21  HE1 GLU A   1       4.618  -7.170  22.843  0.00  0.00    +0.295 HD
ENDBRANCH  18  20
ENDBRANCH  17  18
ENDBRANCH  16  17
ENDBRANCH  11  16
ENDBRANCH   8  11
ENDBRANCH   4   7
BRANCH   1  22
ATOM     22  N   UNK A   0      10.416   0.587  25.359  0.00  0.00    -0.338 N 
ATOM     23  H   UNK A   0      11.185   0.491  26.019  0.00  0.00    +0.146 HD
BRANCH  22  24
ATOM     24  C   UNK A   0      10.853   1.163  24.080  0.00  0.00    +0.154 C 
BRANCH  24  35
ATOM     25  N   UNK A   0       5.018   5.847  22.191  0.00  0.00    -0.329 N 
ATOM     26  H   UNK A   0       5.112   6.085  21.213  0.00  0.00    +0.145 HD
ATOM     27  H   UNK A   0       4.726   6.651  22.742  0.00  0.00    +0.145 HD
ATOM     28  C   UNK A   0       6.088   5.234  22.757  0.00  0.00    +0.195 A 
ATOM     29  N   UNK A   0       6.675   4.312  21.963  0.00  0.00    -0.314 N 
ATOM     30  H   UNK A   0       6.261   4.071  21.078  0.00  0.00    +0.170 HD
ATOM     31  C   UNK A   0       7.733   3.562  22.389  0.00  0.00    +0.130 A 
ATOM     32  N   UNK A   0       8.287   2.602  21.568  0.00  0.00    -0.323 N 
ATOM     33  H   UNK A   0       7.732   2.303  20.777  0.00  0.00    +0.148 HD
ATOM     34  C   UNK A   0       9.302   1.681  22.061  0.00  0.00    +0.155 C 
ATOM     35  C   UNK A   0       9.783   2.060  23.464  0.00  0.00    +0.054 C 
ATOM     36  N   UNK A   0       9.285   3.029  24.180  0.00  0.00    -0.245 NA
ATOM     37  C   UNK A   0       8.237   3.762  23.632  0.00  0.00    +0.168 A 
ATOM     38  C   UNK A   0       7.560   4.845  24.479  0.00  0.00    +0.302 A 
ATOM     39  O   UNK A   0       7.981   5.088  25.607  0.00  0.00    -0.263 OA
ATOM     40  N   UNK A   0       6.471   5.523  23.953  0.00  0.00    -0.176 NA
ENDBRANCH  24  35
ENDBRANCH  22  24
ENDBRANCH   1  22
TORSDOF 11
ENDMDL
