MODEL 1
REMARK VINA RESULT:      -5.5      0.000      0.000
REMARK  Name = 
REMARK  1 active torsions:
REMARK  status: ('A' for Active; 'I' for Inactive)
REMARK    1  A    between atoms: N_1  and  C_2
REMARK                            x       y       z     vdW  Elec       q    Type
REMARK                         _______ _______ _______ _____ _____    ______ ____
ROOT
ATOM      1  C   UNL     1      10.182   2.169  23.168  0.00  0.00    +0.025 A 
ATOM      2  C   UNL     1       9.863   1.438  24.311  0.00  0.00    +0.036 A 
ATOM      3  C   UNL     1       9.501   0.069  24.232  0.00  0.00    +0.042 A 
ATOM      4  C   UNL     1       9.443  -0.568  22.991  0.00  0.00    +0.078 A 
ATOM      5  N   UNL     1       9.117  -1.858  22.857  0.00  0.00    -0.215 NA
ATOM      6  C   UNL     1       8.856  -2.544  23.970  0.00  0.00    +0.215 A 
ATOM      7  N   UNL     1       8.849  -2.036  25.203  0.00  0.00    -0.199 NA
ATOM      8  N   UNL     1       8.504  -3.871  23.825  0.00  0.00    -0.327 N 
ATOM      9  H   UNL     1       7.916  -4.156  24.595  0.00  0.00    +0.145 HD
ATOM     10  H   UNL     1       8.155  -4.028  22.889  0.00  0.00    +0.145 HD
ATOM     11  C   UNL     1       9.715   0.185  21.857  0.00  0.00    +0.030 A 
ATOM     12  C   UNL     1       9.171  -0.742  25.321  0.00  0.00    +0.129 A 
ATOM     13  N   UNL     1       9.174  -0.247  26.633  0.00  0.00    -0.343 N 
ATOM     14  H   UNL     1       8.581   0.570  26.720  0.00  0.00    +0.144 HD
ATOM     15  H   UNL     1       8.860  -1.005  27.235  0.00  0.00    +0.144 HD
ATOM     16  C   UNL     1      10.053   1.541  21.933  0.00  0.00    +0.025 A 
ENDROOT
BRANCH   1  17
ATOM     17  N   UNL     1      10.385   3.549  23.245  0.00  0.00    -0.358 N 
ATOM     18  H   UNL     1      10.612   3.883  24.176  0.00  0.00    +0.142 HD
ATOM     19  H   UNL     1      11.025   3.913  22.544  0.00  0.00    +0.142 HD
ENDBRANCH   1  17
TORSDOF 1
ENDMDL
MODEL 2
REMARK VINA RESULT:      -5.4      3.074      5.742
REMARK  Name = 
REMARK  1 active torsions:
REMARK  status: ('A' for Active; 'I' for Inactive)
REMARK    1  A    between atoms: N_1  and  C_2
REMARK                            x       y       z     vdW  Elec       q    Type
REMARK                         _______ _______ _______ _____ _____    ______ ____
ROOT
ATOM      1  C   UNL     1       7.242  -5.270  25.632  0.00  0.00    +0.025 A 
ATOM      2  C   UNL     1       6.722  -4.408  24.667  0.00  0.00    +0.036 A 
ATOM      3  C   UNL     1       7.567  -3.552  23.913  0.00  0.00    +0.042 A 
ATOM      4  C   UNL     1       8.944  -3.550  24.142  0.00  0.00    +0.078 A 
ATOM      5  N   UNL     1       9.788  -2.772  23.456  0.00  0.00    -0.215 NA
ATOM      6  C   UNL     1       9.269  -1.987  22.512  0.00  0.00    +0.215 A 
ATOM      7  N   UNL     1       7.970  -1.881  22.227  0.00  0.00    -0.199 NA
ATOM      8  N   UNL     1      10.143  -1.174  21.819  0.00  0.00    -0.327 N 
ATOM      9  H   UNL     1       9.659  -0.350  21.493  0.00  0.00    +0.145 HD
ATOM     10  H   UNL     1      10.982  -1.036  22.365  0.00  0.00    +0.145 HD
ATOM     11  C   UNL     1       9.441  -4.377  25.140  0.00  0.00    +0.030 A 
ATOM     12  C   UNL     1       7.137  -2.662  22.926  0.00  0.00    +0.129 A 
ATOM     13  N   UNL     1       5.783  -2.540  22.585  0.00  0.00    -0.343 N 
ATOM     14  H   UNL     1       5.216  -2.329  23.398  0.00  0.00    +0.144 HD
ATOM     15  H   UNL     1       5.719  -1.806  21.884  0.00  0.00    +0.144 HD
ATOM     16  C   UNL     1       8.606  -5.208  25.897  0.00  0.00    +0.025 A 
ENDROOT
BRANCH   1  17
ATOM     17  N   UNL     1       6.387  -5.991  26.469  0.00  0.00    -0.358 N 
ATOM     18  H   UNL     1       5.803  -5.411  27.063  0.00  0.00    +0.142 HD
ATOM     19  H   UNL     1       5.849  -6.709  25.992  0.00  0.00    +0.142 HD
ENDBRANCH   1  17
TORSDOF 1
ENDMDL
MODEL 3
REMARK VINA RESULT:      -5.3      1.520      4.301
REMARK  Name = 
REMARK  1 active torsions:
REMARK  status: ('A' for Active; 'I' for Inactive)
REMARK    1  A    between atoms: N_1  and  C_2
REMARK                            x       y       z     vdW  Elec       q    Type
REMARK                         _______ _______ _______ _____ _____    ______ ____
ROOT
ATOM      1  C   UNL     1       8.265  -3.200  24.232  0.00  0.00    +0.025 A 
ATOM      2  C   UNL     1       8.914  -2.088  24.765  0.00  0.00    +0.036 A 
ATOM      3  C   UNL     1       9.242  -0.969  23.956  0.00  0.00    +0.042 A 
ATOM      4  C   UNL     1       8.931  -0.975  22.595  0.00  0.00    +0.078 A 
ATOM      5  N   UNL     1       9.209   0.053  21.787  0.00  0.00    -0.215 NA
ATOM      6  C   UNL     1       9.793   1.121  22.331  0.00  0.00    +0.215 A 
ATOM      7  N   UNL     1      10.166   1.227  23.607  0.00  0.00    -0.199 NA
ATOM      8  N   UNL     1      10.093   2.173  21.489  0.00  0.00    -0.327 N 
ATOM      9  H   UNL     1      10.885   2.685  21.849  0.00  0.00    +0.145 HD
ATOM     10  H   UNL     1      10.148   1.839  20.537  0.00  0.00    +0.145 HD
ATOM     11  C   UNL     1       8.329  -2.110  22.068  0.00  0.00    +0.030 A 
ATOM     12  C   UNL     1       9.887   0.187  24.403  0.00  0.00    +0.129 A 
ATOM     13  N   UNL     1      10.273   0.342  25.741  0.00  0.00    -0.343 N 
ATOM     14  H   UNL     1      10.860  -0.424  26.047  0.00  0.00    +0.144 HD
ATOM     15  H   UNL     1      10.756   1.235  25.808  0.00  0.00    +0.144 HD
ATOM     16  C   UNL     1       8.022  -3.221  22.862  0.00  0.00    +0.025 A 
ENDROOT
BRANCH   1  17
ATOM     17  N   UNL     1       8.086  -4.351  25.002  0.00  0.00    -0.358 N 
ATOM     18  H   UNL     1       7.891  -5.187  24.460  0.00  0.00    +0.142 HD
ATOM     19  H   UNL     1       8.818  -4.506  25.690  0.00  0.00    +0.142 HD
ENDBRANCH   1  17
TORSDOF 1
ENDMDL
MODEL 4
REMARK VINA RESULT:      -5.3      2.520      4.038
REMARK  Name = 
REMARK  1 active torsions:
REMARK  status: ('A' for Active; 'I' for Inactive)
REMARK    1  A    between atoms: N_1  and  C_2
REMARK                            x       y       z     vdW  Elec       q    Type
REMARK                         _______ _______ _______ _____ _____    ______ ____
ROOT
ATOM      1  C   UNL     1       9.216  -1.321  22.273  0.00  0.00    +0.025 A 
ATOM      2  C   UNL     1       8.439  -2.478  22.233  0.00  0.00    +0.036 A 
ATOM      3  C   UNL     1       8.324  -3.326  23.364  0.00  0.00    +0.042 A 
ATOM      4  C   UNL     1       9.009  -3.019  24.541  0.00  0.00    +0.078 A 
ATOM      5  N   UNL     1       8.930  -3.776  25.641  0.00  0.00    -0.215 NA
ATOM      6  C   UNL     1       8.148  -4.854  25.588  0.00  0.00    +0.215 A 
ATOM      7  N   UNL     1       7.474  -5.264  24.513  0.00  0.00    -0.199 NA
ATOM      8  N   UNL     1       8.084  -5.642  26.720  0.00  0.00    -0.327 N 
ATOM      9  H   UNL     1       7.874  -6.596  26.463  0.00  0.00    +0.145 HD
ATOM     10  H   UNL     1       8.903  -5.483  27.290  0.00  0.00    +0.145 HD
ATOM     11  C   UNL     1       9.818  -1.891  24.550  0.00  0.00    +0.030 A 
ATOM     12  C   UNL     1       7.567  -4.499  23.418  0.00  0.00    +0.129 A 
ATOM     13  N   UNL     1       6.828  -4.948  22.315  0.00  0.00    -0.343 N 
ATOM     14  H   UNL     1       7.415  -5.047  21.495  0.00  0.00    +0.144 HD
ATOM     15  H   UNL     1       6.405  -5.834  22.583  0.00  0.00    +0.144 HD
ATOM     16  C   UNL     1       9.947  -1.064  23.428  0.00  0.00    +0.025 A 
ENDROOT
BRANCH   1  17
ATOM     17  N   UNL     1       9.443  -0.582  21.110  0.00  0.00    -0.358 N 
ATOM     18  H   UNL     1      10.352  -0.130  21.076  0.00  0.00    +0.142 HD
ATOM     19  H   UNL     1       9.236  -1.086  20.252  0.00  0.00    +0.142 HD
ENDBRANCH   1  17
TORSDOF 1
ENDMDL
MODEL 5
REMARK VINA RESULT:      -5.2      5.787      6.906
REMARK  Name = 
REMARK  1 active torsions:
REMARK  status: ('A' for Active; 'I' for Inactive)
REMARK    1  A    between atoms: N_1  and  C_2
REMARK                            x       y       z     vdW  Elec       q    Type
REMARK                         _______ _______ _______ _____ _____    ______ ____
ROOT
ATOM      1  C   UNL     1       8.803  -5.233  25.390  0.00  0.00    +0.025 A 
ATOM      2  C   UNL     1       8.290  -5.273  24.094  0.00  0.00    +0.036 A 
ATOM      3  C   UNL     1       6.892  -5.241  23.854  0.00  0.00    +0.042 A 
ATOM      4  C   UNL     1       6.000  -5.185  24.927  0.00  0.00    +0.078 A 
ATOM      5  N   UNL     1       4.674  -5.144  24.760  0.00  0.00    -0.215 NA
ATOM      6  C   UNL     1       4.212  -5.143  23.510  0.00  0.00    +0.215 A 
ATOM      7  N   UNL     1       4.965  -5.226  22.412  0.00  0.00    -0.199 NA
ATOM      8  N   UNL     1       2.842  -5.117  23.344  0.00  0.00    -0.327 N 
ATOM      9  H   UNL     1       2.594  -5.559  22.471  0.00  0.00    +0.145 HD
ATOM     10  H   UNL     1       2.394  -5.457  24.183  0.00  0.00    +0.145 HD
ATOM     11  C   UNL     1       6.523  -5.195  26.212  0.00  0.00    +0.030 A 
ATOM     12  C   UNL     1       6.290  -5.273  22.594  0.00  0.00    +0.129 A 
ATOM     13  N   UNL     1       7.050  -5.338  21.418  0.00  0.00    -0.343 N 
ATOM     14  H   UNL     1       7.682  -6.130  21.431  0.00  0.00    +0.144 HD
ATOM     15  H   UNL     1       6.392  -5.395  20.644  0.00  0.00    +0.144 HD
ATOM     16  C   UNL     1       7.902  -5.246  26.450  0.00  0.00    +0.025 A 
ENDROOT
BRANCH   1  17
ATOM     17  N   UNL     1      10.169  -5.420  25.616  0.00  0.00    -0.358 N 
ATOM     18  H   UNL     1      10.742  -5.337  24.782  0.00  0.00    +0.142 HD
ATOM     19  H   UNL     1      10.539  -4.872  26.388  0.00  0.00    +0.142 HD
ENDBRANCH   1  17
TORSDOF 1
ENDMDL
MODEL 6
REMARK VINA RESULT:      -5.2      5.779      6.669
REMARK  Name = 
REMARK  1 active torsions:
REMARK  status: ('A' for Active; 'I' for Inactive)
REMARK    1  A    between atoms: N_1  and  C_2
REMARK                            x       y       z     vdW  Elec       q    Type
REMARK                         _______ _______ _______ _____ _____    ______ ____
ROOT
ATOM      1  C   UNL     1       4.479  -5.229  23.320  0.00  0.00    +0.025 A 
ATOM      2  C   UNL     1       4.933  -5.369  24.631  0.00  0.00    +0.036 A 
ATOM      3  C   UNL     1       6.319  -5.384  24.933  0.00  0.00    +0.042 A 
ATOM      4  C   UNL     1       7.259  -5.274  23.907  0.00  0.00    +0.078 A 
ATOM      5  N   UNL     1       8.577  -5.274  24.133  0.00  0.00    -0.215 NA
ATOM      6  C   UNL     1       8.982  -5.368  25.399  0.00  0.00    +0.215 A 
ATOM      7  N   UNL     1       8.180  -5.511  26.455  0.00  0.00    -0.199 NA
ATOM      8  N   UNL     1      10.344  -5.384  25.625  0.00  0.00    -0.327 N 
ATOM      9  H   UNL     1      10.545  -5.891  26.475  0.00  0.00    +0.145 HD
ATOM     10  H   UNL     1      10.823  -5.676  24.785  0.00  0.00    +0.145 HD
ATOM     11  C   UNL     1       6.794  -5.185  22.602  0.00  0.00    +0.030 A 
ATOM     12  C   UNL     1       6.864  -5.516  26.212  0.00  0.00    +0.129 A 
ATOM     13  N   UNL     1       6.051  -5.645  27.347  0.00  0.00    -0.343 N 
ATOM     14  H   UNL     1       5.406  -6.420  27.252  0.00  0.00    +0.144 HD
ATOM     15  H   UNL     1       6.672  -5.770  28.143  0.00  0.00    +0.144 HD
ATOM     16  C   UNL     1       5.426  -5.189  22.302  0.00  0.00    +0.025 A 
ENDROOT
BRANCH   1  17
ATOM     17  N   UNL     1       3.122  -5.369  23.023  0.00  0.00    -0.358 N 
ATOM     18  H   UNL     1       2.933  -5.628  22.059  0.00  0.00    +0.142 HD
ATOM     19  H   UNL     1       2.613  -5.954  23.680  0.00  0.00    +0.142 HD
ENDBRANCH   1  17
TORSDOF 1
ENDMDL
MODEL 7
REMARK VINA RESULT:      -5.1      1.360      4.841
REMARK  Name = 
REMARK  1 active torsions:
REMARK  status: ('A' for Active; 'I' for Inactive)
REMARK    1  A    between atoms: N_1  and  C_2
REMARK                            x       y       z     vdW  Elec       q    Type
REMARK                         _______ _______ _______ _____ _____    ______ ____
ROOT
ATOM      1  C   UNL     1       8.634  -2.421  25.037  0.00  0.00    +0.025 A 
ATOM      2  C   UNL     1       8.931  -1.984  23.747  0.00  0.00    +0.036 A 
ATOM      3  C   UNL     1       9.359  -0.654  23.500  0.00  0.00    +0.042 A 
ATOM      4  C   UNL     1       9.473   0.251  24.557  0.00  0.00    +0.078 A 
ATOM      5  N   UNL     1       9.879   1.514  24.385  0.00  0.00    -0.215 NA
ATOM      6  C   UNL     1      10.195   1.893  23.147  0.00  0.00    +0.215 A 
ATOM      7  N   UNL     1      10.095   1.129  22.059  0.00  0.00    -0.199 NA
ATOM      8  N   UNL     1      10.598   3.202  22.973  0.00  0.00    -0.327 N 
ATOM      9  H   UNL     1      10.377   3.507  22.036  0.00  0.00    +0.145 HD
ATOM     10  H   UNL     1      10.256   3.766  23.739  0.00  0.00    +0.145 HD
ATOM     11  C   UNL     1       9.126  -0.184  25.829  0.00  0.00    +0.030 A 
ATOM     12  C   UNL     1       9.681  -0.131  22.246  0.00  0.00    +0.129 A 
ATOM     13  N   UNL     1       9.609  -0.911  21.083  0.00  0.00    -0.343 N 
ATOM     14  H   UNL     1       8.689  -1.321  20.972  0.00  0.00    +0.144 HD
ATOM     15  H   UNL     1       9.845  -0.302  20.304  0.00  0.00    +0.144 HD
ATOM     16  C   UNL     1       8.686  -1.491  26.070  0.00  0.00    +0.025 A 
ENDROOT
BRANCH   1  17
ATOM     17  N   UNL     1       8.069  -3.681  25.244  0.00  0.00    -0.358 N 
ATOM     18  H   UNL     1       7.410  -3.719  26.015  0.00  0.00    +0.142 HD
ATOM     19  H   UNL     1       7.695  -4.111  24.402  0.00  0.00    +0.142 HD
ENDBRANCH   1  17
TORSDOF 1
ENDMDL
MODEL 8
REMARK VINA RESULT:      -5.1      4.017      5.357
REMARK  Name = 
REMARK  1 active torsions:
REMARK  status: ('A' for Active; 'I' for Inactive)
REMARK    1  A    between atoms: N_1  and  C_2
REMARK                            x       y       z     vdW  Elec       q    Type
REMARK                         _______ _______ _______ _____ _____    ______ ____
ROOT
ATOM      1  C   UNL     1       7.915  -3.059  22.891  0.00  0.00    +0.025 A 
ATOM      2  C   UNL     1       8.457  -3.651  24.031  0.00  0.00    +0.036 A 
ATOM      3  C   UNL     1       7.668  -4.466  24.883  0.00  0.00    +0.042 A 
ATOM      4  C   UNL     1       6.318  -4.676  24.596  0.00  0.00    +0.078 A 
ATOM      5  N   UNL     1       5.529  -5.441  25.358  0.00  0.00    -0.215 NA
ATOM      6  C   UNL     1       6.083  -6.027  26.419  0.00  0.00    +0.215 A 
ATOM      7  N   UNL     1       7.350  -5.876  26.809  0.00  0.00    -0.199 NA
ATOM      8  N   UNL     1       5.261  -6.803  27.212  0.00  0.00    -0.327 N 
ATOM      9  H   UNL     1       5.609  -6.815  28.159  0.00  0.00    +0.145 HD
ATOM     10  H   UNL     1       4.299  -6.526  27.073  0.00  0.00    +0.145 HD
ATOM     11  C   UNL     1       5.780  -4.040  23.486  0.00  0.00    +0.030 A 
ATOM     12  C   UNL     1       8.125  -5.102  26.040  0.00  0.00    +0.129 A 
ATOM     13  N   UNL     1       9.455  -4.982  26.467  0.00  0.00    -0.343 N 
ATOM     14  H   UNL     1       9.722  -4.011  26.574  0.00  0.00    +0.144 HD
ATOM     15  H   UNL     1       9.530  -5.491  27.345  0.00  0.00    +0.144 HD
ATOM     16  C   UNL     1       6.553  -3.220  22.656  0.00  0.00    +0.025 A 
ENDROOT
BRANCH   1  17
ATOM     17  N   UNL     1       8.660  -2.139  22.150  0.00  0.00    -0.358 N 
ATOM     18  H   UNL     1       8.146  -1.303  21.890  0.00  0.00    +0.142 HD
ATOM     19  H   UNL     1       9.566  -1.917  22.555  0.00  0.00    +0.142 HD
ENDBRANCH   1  17
TORSDOF 1
ENDMDL
MODEL 9
REMARK VINA RESULT:      -5.1      1.826      4.249
REMARK  Name = 
REMARK  1 active torsions:
REMARK  status: ('A' for Active; 'I' for Inactive)
REMARK    1  A    between atoms: N_1  and  C_2
REMARK                            x       y       z     vdW  Elec       q    Type
REMARK                         _______ _______ _______ _____ _____    ______ ____
ROOT
ATOM      1  C   UNL     1       9.625  -1.551  23.336  0.00  0.00    +0.025 A 
ATOM      2  C   UNL     1       9.156  -0.566  24.203  0.00  0.00    +0.036 A 
ATOM      3  C   UNL     1       8.810   0.727  23.730  0.00  0.00    +0.042 A 
ATOM      4  C   UNL     1       8.952   1.037  22.377  0.00  0.00    +0.078 A 
ATOM      5  N   UNL     1       8.634   2.234  21.874  0.00  0.00    -0.215 NA
ATOM      6  C   UNL     1       8.150   3.145  22.718  0.00  0.00    +0.215 A 
ATOM      7  N   UNL     1       8.001   2.974  24.032  0.00  0.00    -0.199 NA
ATOM      8  N   UNL     1       7.839   4.385  22.197  0.00  0.00    -0.327 N 
ATOM      9  H   UNL     1       7.926   5.091  22.914  0.00  0.00    +0.145 HD
ATOM     10  H   UNL     1       8.350   4.529  21.337  0.00  0.00    +0.145 HD
ATOM     11  C   UNL     1       9.466   0.062  21.534  0.00  0.00    +0.030 A 
ATOM     12  C   UNL     1       8.330   1.772  24.522  0.00  0.00    +0.129 A 
ATOM     13  N   UNL     1       8.140   1.622  25.903  0.00  0.00    -0.343 N 
ATOM     14  H   UNL     1       8.989   1.310  26.359  0.00  0.00    +0.144 HD
ATOM     15  H   UNL     1       7.831   2.523  26.259  0.00  0.00    +0.144 HD
ATOM     16  C   UNL     1       9.826  -1.208  22.003  0.00  0.00    +0.025 A 
ENDROOT
BRANCH   1  17
ATOM     17  N   UNL     1      10.104  -2.764  23.837  0.00  0.00    -0.358 N 
ATOM     18  H   UNL     1       9.845  -2.945  24.802  0.00  0.00    +0.142 HD
ATOM     19  H   UNL     1       9.918  -3.563  23.237  0.00  0.00    +0.142 HD
ENDBRANCH   1  17
TORSDOF 1
ENDMDL
