MODEL 1
REMARK VINA RESULT:      -5.8      0.000      0.000
REMARK  Name = 
REMARK  6 active torsions:
REMARK  status: ('A' for Active; 'I' for Inactive)
REMARK    1  A    between atoms: C_5  and  N_6
REMARK    2  A    between atoms: N_6  and  C_7
REMARK    3  A    between atoms: C_7  and  O_9
REMARK    4  A    between atoms: O_9  and  C_10
REMARK    5  A    between atoms: C_10  and  C_11
REMARK    6  A    between atoms: C_11  and  N_12
REMARK                            x       y       z     vdW  Elec       q    Type
REMARK                         _______ _______ _______ _____ _____    ______ ____
ROOT
ATOM      1  C   UNL     1       9.162   6.043  23.410  0.00  0.00    +0.250 C 
ENDROOT
BRANCH   1   2
ATOM      2  O   UNL     1      10.233   5.303  24.052  0.00  0.00    -0.472 OA
BRANCH   2   3
ATOM      3  C   UNL     1      11.188   4.602  23.387  0.00  0.00    +0.232 C 
ATOM      4  S   UNL     1      12.804   4.996  23.376  0.00  0.00    +0.006 S 
BRANCH   3   5
ATOM      5  N   UNL     1      10.739   3.563  22.616  0.00  0.00    -0.279 N 
ATOM      6  H   UNL     1      10.654   3.797  21.633  0.00  0.00    +0.156 HD
BRANCH   5  11
ATOM      7 BR   UNL     1       9.697  -2.309  23.877  0.00  0.00    -0.050 Br
ATOM      8  C   UNL     1      10.030  -0.487  23.503  0.00  0.00    +0.018 A 
ATOM      9  C   UNL     1       9.781   0.016  22.229  0.00  0.00    +0.017 A 
ATOM     10  C   UNL     1      10.020   1.368  21.961  0.00  0.00    +0.024 A 
ATOM     11  C   UNL     1      10.481   2.226  22.969  0.00  0.00    +0.034 A 
ATOM     12  C   UNL     1      10.746   1.702  24.235  0.00  0.00    +0.024 A 
ATOM     13  C   UNL     1      10.526   0.345  24.502  0.00  0.00    +0.017 A 
ENDBRANCH   5  11
ENDBRANCH   3   5
ENDBRANCH   2   3
ENDBRANCH   1   2
BRANCH   1  14
ATOM     14  C   UNL     1       7.806   5.779  24.074  0.00  0.00    +0.158 C 
BRANCH  14  15
ATOM     15  N   UNL     1       7.556   4.365  24.269  0.00  0.00    -0.231 N 
ATOM     16  C   UNL     1       7.094   3.518  23.296  0.00  0.00    +0.254 C 
ATOM     17  O   UNL     1       6.824   3.755  22.136  0.00  0.00    -0.270 OA
ATOM     18  C   UNL     1       6.944   2.205  23.927  0.00  0.00    +0.049 A 
ATOM     19  C   UNL     1       6.527   0.996  23.406  0.00  0.00    +0.014 A 
ATOM     20  C   UNL     1       6.476  -0.097  24.282  0.00  0.00    +0.001 A 
ATOM     21  C   UNL     1       6.838   0.046  25.638  0.00  0.00    +0.001 A 
ATOM     22  C   UNL     1       7.253   1.281  26.142  0.00  0.00    +0.014 A 
ATOM     23  C   UNL     1       7.295   2.341  25.257  0.00  0.00    +0.049 A 
ATOM     24  C   UNL     1       7.665   3.736  25.478  0.00  0.00    +0.254 C 
ATOM     25  O   UNL     1       7.976   4.202  26.557  0.00  0.00    -0.270 OA
ENDBRANCH  14  15
ENDBRANCH   1  14
TORSDOF 6
ENDMDL
MODEL 2
REMARK VINA RESULT:      -5.8      7.435      9.373
REMARK  Name = 
REMARK  6 active torsions:
REMARK  status: ('A' for Active; 'I' for Inactive)
REMARK    1  A    between atoms: C_5  and  N_6
REMARK    2  A    between atoms: N_6  and  C_7
REMARK    3  A    between atoms: C_7  and  O_9
REMARK    4  A    between atoms: O_9  and  C_10
REMARK    5  A    between atoms: C_10  and  C_11
REMARK    6  A    between atoms: C_11  and  N_12
REMARK                            x       y       z     vdW  Elec       q    Type
REMARK                         _______ _______ _______ _____ _____    ______ ____
ROOT
ATOM      1  C   UNL     1       3.213  -5.535  27.452  0.00  0.00    +0.250 C 
ENDROOT
BRANCH   1   2
ATOM      2  O   UNL     1       4.139  -6.591  27.821  0.00  0.00    -0.472 OA
BRANCH   2   3
ATOM      3  C   UNL     1       5.365  -6.382  28.366  0.00  0.00    +0.232 C 
ATOM      4  S   UNL     1       5.635  -6.089  29.982  0.00  0.00    +0.006 S 
BRANCH   3   5
ATOM      5  N   UNL     1       6.410  -6.326  27.484  0.00  0.00    -0.279 N 
ATOM      6  H   UNL     1       6.744  -7.238  27.193  0.00  0.00    +0.156 HD
BRANCH   5  11
ATOM      7 BR   UNL     1       9.028  -1.663  24.557  0.00  0.00    -0.050 Br
ATOM      8  C   UNL     1       8.202  -3.096  25.470  0.00  0.00    +0.018 A 
ATOM      9  C   UNL     1       8.629  -4.401  25.243  0.00  0.00    +0.017 A 
ATOM     10  C   UNL     1       8.021  -5.458  25.929  0.00  0.00    +0.024 A 
ATOM     11  C   UNL     1       7.004  -5.212  26.862  0.00  0.00    +0.034 A 
ATOM     12  C   UNL     1       6.573  -3.900  27.064  0.00  0.00    +0.024 A 
ATOM     13  C   UNL     1       7.167  -2.843  26.365  0.00  0.00    +0.017 A 
ENDBRANCH   5  11
ENDBRANCH   3   5
ENDBRANCH   2   3
ENDBRANCH   1   2
BRANCH   1  14
ATOM     14  C   UNL     1       2.712  -5.690  26.011  0.00  0.00    +0.158 C 
BRANCH  14  15
ATOM     15  N   UNL     1       3.718  -5.313  25.037  0.00  0.00    -0.231 N 
ATOM     16  C   UNL     1       3.954  -4.028  24.624  0.00  0.00    +0.254 C 
ATOM     17  O   UNL     1       3.412  -2.998  24.971  0.00  0.00    -0.270 OA
ATOM     18  C   UNL     1       5.010  -4.105  23.613  0.00  0.00    +0.049 A 
ATOM     19  C   UNL     1       5.635  -3.113  22.883  0.00  0.00    +0.014 A 
ATOM     20  C   UNL     1       6.617  -3.513  21.966  0.00  0.00    +0.001 A 
ATOM     21  C   UNL     1       6.944  -4.875  21.805  0.00  0.00    +0.001 A 
ATOM     22  C   UNL     1       6.295  -5.861  22.554  0.00  0.00    +0.014 A 
ATOM     23  C   UNL     1       5.333  -5.440  23.450  0.00  0.00    +0.049 A 
ATOM     24  C   UNL     1       4.483  -6.215  24.350  0.00  0.00    +0.254 C 
ATOM     25  O   UNL     1       4.479  -7.428  24.416  0.00  0.00    -0.270 OA
ENDBRANCH  14  15
ENDBRANCH   1  14
TORSDOF 6
ENDMDL
MODEL 3
REMARK VINA RESULT:      -5.8      4.637      6.424
REMARK  Name = 
REMARK  6 active torsions:
REMARK  status: ('A' for Active; 'I' for Inactive)
REMARK    1  A    between atoms: C_5  and  N_6
REMARK    2  A    between atoms: N_6  and  C_7
REMARK    3  A    between atoms: C_7  and  O_9
REMARK    4  A    between atoms: O_9  and  C_10
REMARK    5  A    between atoms: C_10  and  C_11
REMARK    6  A    between atoms: C_11  and  N_12
REMARK                            x       y       z     vdW  Elec       q    Type
REMARK                         _______ _______ _______ _____ _____    ______ ____
ROOT
ATOM      1  C   UNL     1       9.726   0.117  24.953  0.00  0.00    +0.250 C 
ENDROOT
BRANCH   1   2
ATOM      2  O   UNL     1       8.403   0.338  25.510  0.00  0.00    -0.472 OA
BRANCH   2   3
ATOM      3  C   UNL     1       7.924  -0.277  26.621  0.00  0.00    +0.232 C 
ATOM      4  S   UNL     1       7.135   0.505  27.860  0.00  0.00    +0.006 S 
BRANCH   3   5
ATOM      5  N   UNL     1       8.209  -1.612  26.735  0.00  0.00    -0.279 N 
ATOM      6  H   UNL     1       9.129  -1.798  27.116  0.00  0.00    +0.156 HD
BRANCH   5  11
ATOM      7 BR   UNL     1       4.797  -6.597  25.915  0.00  0.00    -0.050 Br
ATOM      8  C   UNL     1       5.838  -5.041  26.170  0.00  0.00    +0.018 A 
ATOM      9  C   UNL     1       7.177  -5.154  26.534  0.00  0.00    +0.017 A 
ATOM     10  C   UNL     1       7.946  -3.998  26.710  0.00  0.00    +0.024 A 
ATOM     11  C   UNL     1       7.388  -2.730  26.498  0.00  0.00    +0.034 A 
ATOM     12  C   UNL     1       6.039  -2.632  26.153  0.00  0.00    +0.024 A 
ATOM     13  C   UNL     1       5.262  -3.786  25.994  0.00  0.00    +0.017 A 
ENDBRANCH   5  11
ENDBRANCH   3   5
ENDBRANCH   2   3
ENDBRANCH   1   2
BRANCH   1  14
ATOM     14  C   UNL     1       9.669  -0.218  23.458  0.00  0.00    +0.158 C 
BRANCH  14  15
ATOM     15  N   UNL     1       8.785  -1.333  23.179  0.00  0.00    -0.231 N 
ATOM     16  C   UNL     1       7.474  -1.207  22.803  0.00  0.00    +0.254 C 
ATOM     17  O   UNL     1       6.819  -0.200  22.626  0.00  0.00    -0.270 OA
ATOM     18  C   UNL     1       6.949  -2.567  22.669  0.00  0.00    +0.049 A 
ATOM     19  C   UNL     1       5.696  -3.019  22.304  0.00  0.00    +0.014 A 
ATOM     20  C   UNL     1       5.495  -4.406  22.281  0.00  0.00    +0.001 A 
ATOM     21  C   UNL     1       6.539  -5.293  22.619  0.00  0.00    +0.001 A 
ATOM     22  C   UNL     1       7.797  -4.811  22.988  0.00  0.00    +0.014 A 
ATOM     23  C   UNL     1       7.968  -3.440  23.002  0.00  0.00    +0.049 A 
ATOM     24  C   UNL     1       9.139  -2.642  23.352  0.00  0.00    +0.254 C 
ATOM     25  O   UNL     1      10.193  -3.104  23.742  0.00  0.00    -0.270 OA
ENDBRANCH  14  15
ENDBRANCH   1  14
TORSDOF 6
ENDMDL
MODEL 4
REMARK VINA RESULT:      -5.6      5.237      7.281
REMARK  Name = 
REMARK  6 active torsions:
REMARK  status: ('A' for Active; 'I' for Inactive)
REMARK    1  A    between atoms: C_5  and  N_6
REMARK    2  A    between atoms: N_6  and  C_7
REMARK    3  A    between atoms: C_7  and  O_9
REMARK    4  A    between atoms: O_9  and  C_10
REMARK    5  A    between atoms: C_10  and  C_11
REMARK    6  A    between atoms: C_11  and  N_12
REMARK                            x       y       z     vdW  Elec       q    Type
REMARK                         _______ _______ _______ _____ _____    ______ ____
ROOT
ATOM      1  C   UNL     1       9.027  -0.760  25.855  0.00  0.00    +0.250 C 
ENDROOT
BRANCH   1   2
ATOM      2  O   UNL     1       7.715  -0.162  26.031  0.00  0.00    -0.472 OA
BRANCH   2   3
ATOM      3  C   UNL     1       6.702  -0.727  26.737  0.00  0.00    +0.232 C 
ATOM      4  S   UNL     1       5.416   0.119  27.371  0.00  0.00    +0.006 S 
BRANCH   3   5
ATOM      5  N   UNL     1       6.829  -2.065  26.999  0.00  0.00    -0.279 N 
ATOM      6  H   UNL     1       7.432  -2.266  27.788  0.00  0.00    +0.156 HD
BRANCH   5  11
ATOM      7 BR   UNL     1       4.085  -6.982  24.666  0.00  0.00    -0.050 Br
ATOM      8  C   UNL     1       4.919  -5.448  25.385  0.00  0.00    +0.018 A 
ATOM      9  C   UNL     1       6.065  -5.581  26.164  0.00  0.00    +0.017 A 
ATOM     10  C   UNL     1       6.685  -4.441  26.685  0.00  0.00    +0.024 A 
ATOM     11  C   UNL     1       6.179  -3.163  26.408  0.00  0.00    +0.034 A 
ATOM     12  C   UNL     1       5.017  -3.046  25.642  0.00  0.00    +0.024 A 
ATOM     13  C   UNL     1       4.384  -4.187  25.135  0.00  0.00    +0.017 A 
ENDBRANCH   5  11
ENDBRANCH   3   5
ENDBRANCH   2   3
ENDBRANCH   1   2
BRANCH   1  14
ATOM     14  C   UNL     1       9.356  -0.995  24.376  0.00  0.00    +0.158 C 
BRANCH  14  15
ATOM     15  N   UNL     1       8.598  -2.095  23.813  0.00  0.00    -0.231 N 
ATOM     16  C   UNL     1       8.950  -3.414  23.922  0.00  0.00    +0.254 C 
ATOM     17  O   UNL     1       9.905  -3.911  24.486  0.00  0.00    -0.270 OA
ATOM     18  C   UNL     1       7.943  -4.175  23.179  0.00  0.00    +0.049 A 
ATOM     19  C   UNL     1       7.808  -5.534  22.974  0.00  0.00    +0.014 A 
ATOM     20  C   UNL     1       6.727  -5.961  22.192  0.00  0.00    +0.001 A 
ATOM     21  C   UNL     1       5.821  -5.030  21.642  0.00  0.00    +0.001 A 
ATOM     22  C   UNL     1       5.981  -3.659  21.861  0.00  0.00    +0.014 A 
ATOM     23  C   UNL     1       7.054  -3.266  22.636  0.00  0.00    +0.049 A 
ATOM     24  C   UNL     1       7.493  -1.929  23.026  0.00  0.00    +0.254 C 
ATOM     25  O   UNL     1       6.956  -0.899  22.669  0.00  0.00    -0.270 OA
ENDBRANCH  14  15
ENDBRANCH   1  14
TORSDOF 6
ENDMDL
MODEL 5
REMARK VINA RESULT:      -5.4      5.825      8.167
REMARK  Name = 
REMARK  6 active torsions:
REMARK  status: ('A' for Active; 'I' for Inactive)
REMARK    1  A    between atoms: C_5  and  N_6
REMARK    2  A    between atoms: N_6  and  C_7
REMARK    3  A    between atoms: C_7  and  O_9
REMARK    4  A    between atoms: O_9  and  C_10
REMARK    5  A    between atoms: C_10  and  C_11
REMARK    6  A    between atoms: C_11  and  N_12
REMARK                            x       y       z     vdW  Elec       q    Type
REMARK                         _______ _______ _______ _____ _____    ______ ____
ROOT
ATOM      1  C   UNL     1       4.992  -5.610  24.214  0.00  0.00    +0.250 C 
ENDROOT
BRANCH   1   2
ATOM      2  O   UNL     1       5.461  -6.025  25.525  0.00  0.00    -0.472 OA
BRANCH   2   3
ATOM      3  C   UNL     1       5.683  -5.180  26.564  0.00  0.00    +0.232 C 
ATOM      4  S   UNL     1       6.330  -5.641  28.026  0.00  0.00    +0.006 S 
BRANCH   3   5
ATOM      5  N   UNL     1       5.249  -3.893  26.391  0.00  0.00    -0.279 N 
ATOM      6  H   UNL     1       4.260  -3.771  26.578  0.00  0.00    +0.156 HD
BRANCH   5  11
ATOM      7 BR   UNL     1       8.174   1.291  25.075  0.00  0.00    -0.050 Br
ATOM      8  C   UNL     1       7.279  -0.318  25.499  0.00  0.00    +0.018 A 
ATOM      9  C   UNL     1       6.073  -0.625  24.877  0.00  0.00    +0.017 A 
ATOM     10  C   UNL     1       5.419  -1.823  25.187  0.00  0.00    +0.024 A 
ATOM     11  C   UNL     1       5.982  -2.729  26.097  0.00  0.00    +0.034 A 
ATOM     12  C   UNL     1       7.183  -2.397  26.727  0.00  0.00    +0.024 A 
ATOM     13  C   UNL     1       7.829  -1.191  26.434  0.00  0.00    +0.017 A 
ENDBRANCH   5  11
ENDBRANCH   3   5
ENDBRANCH   2   3
ENDBRANCH   1   2
BRANCH   1  14
ATOM     14  C   UNL     1       6.054  -5.826  23.131  0.00  0.00    +0.158 C 
BRANCH  14  15
ATOM     15  N   UNL     1       6.966  -4.704  23.024  0.00  0.00    -0.231 N 
ATOM     16  C   UNL     1       8.102  -4.554  23.774  0.00  0.00    +0.254 C 
ATOM     17  O   UNL     1       8.564  -5.288  24.625  0.00  0.00    -0.270 OA
ATOM     18  C   UNL     1       8.694  -3.274  23.380  0.00  0.00    +0.049 A 
ATOM     19  C   UNL     1       9.844  -2.641  23.808  0.00  0.00    +0.014 A 
ATOM     20  C   UNL     1      10.140  -1.394  23.241  0.00  0.00    +0.001 A 
ATOM     21  C   UNL     1       9.288  -0.820  22.273  0.00  0.00    +0.001 A 
ATOM     22  C   UNL     1       8.128  -1.479  21.859  0.00  0.00    +0.014 A 
ATOM     23  C   UNL     1       7.861  -2.706  22.433  0.00  0.00    +0.049 A 
ATOM     24  C   UNL     1       6.739  -3.617  22.225  0.00  0.00    +0.254 C 
ATOM     25  O   UNL     1       5.798  -3.392  21.491  0.00  0.00    -0.270 OA
ENDBRANCH  14  15
ENDBRANCH   1  14
TORSDOF 6
ENDMDL
MODEL 6
REMARK VINA RESULT:      -5.4      3.932      6.151
REMARK  Name = 
REMARK  6 active torsions:
REMARK  status: ('A' for Active; 'I' for Inactive)
REMARK    1  A    between atoms: C_5  and  N_6
REMARK    2  A    between atoms: N_6  and  C_7
REMARK    3  A    between atoms: C_7  and  O_9
REMARK    4  A    between atoms: O_9  and  C_10
REMARK    5  A    between atoms: C_10  and  C_11
REMARK    6  A    between atoms: C_11  and  N_12
REMARK                            x       y       z     vdW  Elec       q    Type
REMARK                         _______ _______ _______ _____ _____    ______ ____
ROOT
ATOM      1  C   UNL     1       9.922  -2.716  23.914  0.00  0.00    +0.250 C 
ENDROOT
BRANCH   1   2
ATOM      2  O   UNL     1       8.639  -3.090  23.346  0.00  0.00    -0.472 OA
BRANCH   2   3
ATOM      3  C   UNL     1       7.457  -3.031  24.012  0.00  0.00    +0.232 C 
ATOM      4  S   UNL     1       6.779  -4.309  24.834  0.00  0.00    +0.006 S 
BRANCH   3   5
ATOM      5  N   UNL     1       6.767  -1.853  23.901  0.00  0.00    -0.279 N 
ATOM      6  H   UNL     1       6.066  -1.863  23.169  0.00  0.00    +0.156 HD
BRANCH   5  11
ATOM      7 BR   UNL     1       6.730   3.203  27.306  0.00  0.00    -0.050 Br
ATOM      8  C   UNL     1       6.749   1.626  26.266  0.00  0.00    +0.018 A 
ATOM      9  C   UNL     1       6.022   1.568  25.080  0.00  0.00    +0.017 A 
ATOM     10  C   UNL     1       6.048   0.401  24.309  0.00  0.00    +0.024 A 
ATOM     11  C   UNL     1       6.821  -0.699  24.704  0.00  0.00    +0.034 A 
ATOM     12  C   UNL     1       7.529  -0.633  25.906  0.00  0.00    +0.024 A 
ATOM     13  C   UNL     1       7.489   0.526  26.690  0.00  0.00    +0.017 A 
ENDBRANCH   5  11
ENDBRANCH   3   5
ENDBRANCH   2   3
ENDBRANCH   1   2
BRANCH   1  14
ATOM     14  C   UNL     1      10.702  -1.770  22.993  0.00  0.00    +0.158 C 
BRANCH  14  15
ATOM     15  N   UNL     1      10.148  -0.431  22.987  0.00  0.00    -0.231 N 
ATOM     16  C   UNL     1      10.328   0.487  23.988  0.00  0.00    +0.254 C 
ATOM     17  O   UNL     1      10.958   0.384  25.021  0.00  0.00    -0.270 OA
ATOM     18  C   UNL     1       9.569   1.678  23.600  0.00  0.00    +0.049 A 
ATOM     19  C   UNL     1       9.413   2.895  24.232  0.00  0.00    +0.014 A 
ATOM     20  C   UNL     1       8.597   3.846  23.604  0.00  0.00    +0.001 A 
ATOM     21  C   UNL     1       7.966   3.557  22.376  0.00  0.00    +0.001 A 
ATOM     22  C   UNL     1       8.136   2.317  21.757  0.00  0.00    +0.014 A 
ATOM     23  C   UNL     1       8.946   1.399  22.397  0.00  0.00    +0.049 A 
ATOM     24  C   UNL     1       9.302   0.034  22.019  0.00  0.00    +0.254 C 
ATOM     25  O   UNL     1       8.877  -0.539  21.035  0.00  0.00    -0.270 OA
ENDBRANCH  14  15
ENDBRANCH   1  14
TORSDOF 6
ENDMDL
MODEL 7
REMARK VINA RESULT:      -5.4      4.125      5.923
REMARK  Name = 
REMARK  6 active torsions:
REMARK  status: ('A' for Active; 'I' for Inactive)
REMARK    1  A    between atoms: C_5  and  N_6
REMARK    2  A    between atoms: N_6  and  C_7
REMARK    3  A    between atoms: C_7  and  O_9
REMARK    4  A    between atoms: O_9  and  C_10
REMARK    5  A    between atoms: C_10  and  C_11
REMARK    6  A    between atoms: C_11  and  N_12
REMARK                            x       y       z     vdW  Elec       q    Type
REMARK                         _______ _______ _______ _____ _____    ______ ____
ROOT
ATOM      1  C   UNL     1       9.070  -0.332  22.016  0.00  0.00    +0.250 C 
ENDROOT
BRANCH   1   2
ATOM      2  O   UNL     1      10.116   0.025  22.958  0.00  0.00    -0.472 OA
BRANCH   2   3
ATOM      3  C   UNL     1       9.986   0.962  23.932  0.00  0.00    +0.232 C 
ATOM      4  S   UNL     1      10.341   2.575  23.734  0.00  0.00    +0.006 S 
BRANCH   3   5
ATOM      5  N   UNL     1       9.624   0.494  25.167  0.00  0.00    -0.279 N 
ATOM      6  H   UNL     1      10.342   0.612  25.871  0.00  0.00    +0.156 HD
BRANCH   5  11
ATOM      7 BR   UNL     1       4.199  -1.758  26.799  0.00  0.00    -0.050 Br
ATOM      8  C   UNL     1       5.889  -1.073  26.305  0.00  0.00    +0.018 A 
ATOM      9  C   UNL     1       6.006  -0.254  25.186  0.00  0.00    +0.017 A 
ATOM     10  C   UNL     1       7.258   0.259  24.831  0.00  0.00    +0.024 A 
ATOM     11  C   UNL     1       8.391  -0.021  25.607  0.00  0.00    +0.034 A 
ATOM     12  C   UNL     1       8.261  -0.860  26.716  0.00  0.00    +0.024 A 
ATOM     13  C   UNL     1       7.013  -1.391  27.062  0.00  0.00    +0.017 A 
ENDBRANCH   5  11
ENDBRANCH   3   5
ENDBRANCH   2   3
ENDBRANCH   1   2
BRANCH   1  14
ATOM     14  C   UNL     1       9.065  -1.833  21.706  0.00  0.00    +0.158 C 
BRANCH  14  15
ATOM     15  N   UNL     1       8.398  -2.604  22.736  0.00  0.00    -0.231 N 
ATOM     16  C   UNL     1       9.030  -3.176  23.808  0.00  0.00    +0.254 C 
ATOM     17  O   UNL     1      10.207  -3.151  24.110  0.00  0.00    -0.270 OA
ATOM     18  C   UNL     1       8.000  -3.890  24.565  0.00  0.00    +0.049 A 
ATOM     19  C   UNL     1       8.083  -4.625  25.731  0.00  0.00    +0.014 A 
ATOM     20  C   UNL     1       6.901  -5.208  26.208  0.00  0.00    +0.001 A 
ATOM     21  C   UNL     1       5.683  -5.044  25.515  0.00  0.00    +0.001 A 
ATOM     22  C   UNL     1       5.626  -4.298  24.335  0.00  0.00    +0.014 A 
ATOM     23  C   UNL     1       6.805  -3.734  23.888  0.00  0.00    +0.049 A 
ATOM     24  C   UNL     1       7.070  -2.927  22.700  0.00  0.00    +0.254 C 
ATOM     25  O   UNL     1       6.238  -2.648  21.860  0.00  0.00    -0.270 OA
ENDBRANCH  14  15
ENDBRANCH   1  14
TORSDOF 6
ENDMDL
MODEL 8
REMARK VINA RESULT:      -5.4      5.645      7.868
REMARK  Name = 
REMARK  6 active torsions:
REMARK  status: ('A' for Active; 'I' for Inactive)
REMARK    1  A    between atoms: C_5  and  N_6
REMARK    2  A    between atoms: N_6  and  C_7
REMARK    3  A    between atoms: C_7  and  O_9
REMARK    4  A    between atoms: O_9  and  C_10
REMARK    5  A    between atoms: C_10  and  C_11
REMARK    6  A    between atoms: C_11  and  N_12
REMARK                            x       y       z     vdW  Elec       q    Type
REMARK                         _______ _______ _______ _____ _____    ______ ____
ROOT
ATOM      1  C   UNL     1       5.271  -5.480  24.659  0.00  0.00    +0.250 C 
ENDROOT
BRANCH   1   2
ATOM      2  O   UNL     1       5.998  -5.624  25.907  0.00  0.00    -0.472 OA
BRANCH   2   3
ATOM      3  C   UNL     1       5.889  -4.777  26.963  0.00  0.00    +0.232 C 
ATOM      4  S   UNL     1       4.643  -4.809  28.066  0.00  0.00    +0.006 S 
BRANCH   3   5
ATOM      5  N   UNL     1       6.835  -3.790  27.038  0.00  0.00    -0.279 N 
ATOM      6  H   UNL     1       7.707  -4.097  27.452  0.00  0.00    +0.156 HD
BRANCH   5  11
ATOM      7 BR   UNL     1       6.976   1.889  24.829  0.00  0.00    -0.050 Br
ATOM      8  C   UNL     1       6.916   0.126  25.503  0.00  0.00    +0.018 A 
ATOM      9  C   UNL     1       8.029  -0.409  26.145  0.00  0.00    +0.017 A 
ATOM     10  C   UNL     1       7.975  -1.712  26.652  0.00  0.00    +0.024 A 
ATOM     11  C   UNL     1       6.803  -2.473  26.543  0.00  0.00    +0.034 A 
ATOM     12  C   UNL     1       5.702  -1.930  25.878  0.00  0.00    +0.024 A 
ATOM     13  C   UNL     1       5.759  -0.634  25.353  0.00  0.00    +0.017 A 
ENDBRANCH   5  11
ENDBRANCH   3   5
ENDBRANCH   2   3
ENDBRANCH   1   2
BRANCH   1  14
ATOM     14  C   UNL     1       6.201  -5.552  23.442  0.00  0.00    +0.158 C 
BRANCH  14  15
ATOM     15  N   UNL     1       7.034  -4.372  23.318  0.00  0.00    -0.231 N 
ATOM     16  C   UNL     1       6.664  -3.227  22.664  0.00  0.00    +0.254 C 
ATOM     17  O   UNL     1       5.623  -2.970  22.094  0.00  0.00    -0.270 OA
ATOM     18  C   UNL     1       7.808  -2.316  22.742  0.00  0.00    +0.049 A 
ATOM     19  C   UNL     1       7.973  -1.031  22.263  0.00  0.00    +0.014 A 
ATOM     20  C   UNL     1       9.212  -0.416  22.490  0.00  0.00    +0.001 A 
ATOM     21  C   UNL     1      10.240  -1.093  23.179  0.00  0.00    +0.001 A 
ATOM     22  C   UNL     1      10.049  -2.394  23.651  0.00  0.00    +0.014 A 
ATOM     23  C   UNL     1       8.819  -2.976  23.415  0.00  0.00    +0.049 A 
ATOM     24  C   UNL     1       8.326  -4.306  23.763  0.00  0.00    +0.254 C 
ATOM     25  O   UNL     1       8.988  -5.161  24.317  0.00  0.00    -0.270 OA
ENDBRANCH  14  15
ENDBRANCH   1  14
TORSDOF 6
ENDMDL
MODEL 9
REMARK VINA RESULT:      -5.4      4.051      6.559
REMARK  Name = 
REMARK  6 active torsions:
REMARK  status: ('A' for Active; 'I' for Inactive)
REMARK    1  A    between atoms: C_5  and  N_6
REMARK    2  A    between atoms: N_6  and  C_7
REMARK    3  A    between atoms: C_7  and  O_9
REMARK    4  A    between atoms: O_9  and  C_10
REMARK    5  A    between atoms: C_10  and  C_11
REMARK    6  A    between atoms: C_11  and  N_12
REMARK                            x       y       z     vdW  Elec       q    Type
REMARK                         _______ _______ _______ _____ _____    ______ ____
ROOT
ATOM      1  C   UNL     1       7.017  -3.064  25.266  0.00  0.00    +0.250 C 
ENDROOT
BRANCH   1   2
ATOM      2  O   UNL     1       6.696  -2.420  26.528  0.00  0.00    -0.472 OA
BRANCH   2   3
ATOM      3  C   UNL     1       5.737  -1.472  26.685  0.00  0.00    +0.232 C 
ATOM      4  S   UNL     1       4.102  -1.784  26.688  0.00  0.00    +0.006 S 
BRANCH   3   5
ATOM      5  N   UNL     1       6.180  -0.178  26.751  0.00  0.00    -0.279 N 
ATOM      6  H   UNL     1       6.529   0.083  27.665  0.00  0.00    +0.156 HD
BRANCH   5  11
ATOM      7 BR   UNL     1       6.968   4.088  22.469  0.00  0.00    -0.050 Br
ATOM      8  C   UNL     1       6.723   2.752  23.782  0.00  0.00    +0.018 A 
ATOM      9  C   UNL     1       7.017   3.026  25.114  0.00  0.00    +0.017 A 
ATOM     10  C   UNL     1       6.823   2.037  26.084  0.00  0.00    +0.024 A 
ATOM     11  C   UNL     1       6.310   0.781  25.730  0.00  0.00    +0.034 A 
ATOM     12  C   UNL     1       6.038   0.515  24.387  0.00  0.00    +0.024 A 
ATOM     13  C   UNL     1       6.250   1.496  23.412  0.00  0.00    +0.017 A 
ENDBRANCH   5  11
ENDBRANCH   3   5
ENDBRANCH   2   3
ENDBRANCH   1   2
BRANCH   1  14
ATOM     14  C   UNL     1       8.525  -3.068  24.993  0.00  0.00    +0.158 C 
BRANCH  14  15
ATOM     15  N   UNL     1       8.983  -1.815  24.426  0.00  0.00    -0.231 N 
ATOM     16  C   UNL     1       9.390  -0.734  25.163  0.00  0.00    +0.254 C 
ATOM     17  O   UNL     1       9.459  -0.608  26.369  0.00  0.00    -0.270 OA
ATOM     18  C   UNL     1       9.722   0.321  24.203  0.00  0.00    +0.049 A 
ATOM     19  C   UNL     1      10.192   1.605  24.399  0.00  0.00    +0.014 A 
ATOM     20  C   UNL     1      10.405   2.391  23.259  0.00  0.00    +0.001 A 
ATOM     21  C   UNL     1      10.145   1.881  21.970  0.00  0.00    +0.001 A 
ATOM     22  C   UNL     1       9.667   0.580  21.798  0.00  0.00    +0.014 A 
ATOM     23  C   UNL     1       9.467  -0.174  22.938  0.00  0.00    +0.049 A 
ATOM     24  C   UNL     1       8.969  -1.539  23.087  0.00  0.00    +0.254 C 
ATOM     25  O   UNL     1       8.602  -2.240  22.166  0.00  0.00    -0.270 OA
ENDBRANCH  14  15
ENDBRANCH   1  14
TORSDOF 6
ENDMDL
