MODEL 1
REMARK VINA RESULT:      -7.6      0.000      0.000
REMARK  Name = 
REMARK  5 active torsions:
REMARK  status: ('A' for Active; 'I' for Inactive)
REMARK    1  A    between atoms: C_1  and  C_2
REMARK    2  A    between atoms: C_7  and  N_8
REMARK    3  A    between atoms: N_11  and  C_12
REMARK    4  A    between atoms: C_22  and  C_23
REMARK    5  A    between atoms: C_23  and  O_24
REMARK                            x       y       z     vdW  Elec       q    Type
REMARK                         _______ _______ _______ _____ _____    ______ ____
ROOT
ATOM      1  C   UNL     1       6.126  -6.373  22.186  0.00  0.00    +0.034 C 
ATOM      2  C   UNL     1       5.689  -5.003  22.735  0.00  0.00    +0.122 C 
ATOM      3  N   UNL     1       5.911  -4.944  24.188  0.00  0.00    -0.337 N 
ATOM      4  C   UNL     1       5.292  -5.823  25.069  0.00  0.00    +0.105 A 
ATOM      5  C   UNL     1       5.462  -5.870  26.397  0.00  0.00    +0.122 A 
ATOM      6  C   UNL     1       6.378  -4.875  26.981  0.00  0.00    +0.204 A 
ATOM      7  O   UNL     1       6.594  -4.875  28.192  0.00  0.00    -0.286 OA
ATOM      8  C   UNL     1       6.997  -3.878  26.079  0.00  0.00    +0.052 A 
ATOM      9  C   UNL     1       7.805  -2.894  26.640  0.00  0.00    +0.054 A 
ATOM     10  C   UNL     1       8.345  -1.918  25.820  0.00  0.00    +0.149 A 
ATOM     11  F   UNL     1       9.055  -0.951  26.426  0.00  0.00    -0.203 F 
ATOM     12  C   UNL     1       8.106  -1.870  24.428  0.00  0.00    +0.110 A 
ATOM     13  C   UNL     1       7.275  -2.900  23.893  0.00  0.00    +0.168 A 
ATOM     14  O   UNL     1       6.992  -2.821  22.559  0.00  0.00    -0.486 OA
ATOM     15  C   UNL     1       6.729  -3.918  24.696  0.00  0.00    +0.097 A 
ATOM     16  C   UNL     1       6.389  -3.919  21.909  0.00  0.00    +0.254 C 
ENDROOT
BRANCH  12  17
ATOM     17  N   UNL     1       8.624  -0.814  23.677  0.00  0.00    -0.322 N 
ATOM     18  C   UNL     1       7.982   0.513  23.705  0.00  0.00    +0.120 C 
ATOM     19  C   UNL     1       8.062   1.162  22.301  0.00  0.00    +0.103 C 
ATOM     20  N   UNL     1       9.424   1.241  21.720  0.00  0.00    -0.302 NA
ATOM     21  C   UNL     1      10.242   2.240  22.402  0.00  0.00    +0.105 C 
ATOM     22  C   UNL     1      10.046  -0.100  21.782  0.00  0.00    +0.103 C 
ATOM     23  C   UNL     1      10.000  -0.805  23.159  0.00  0.00    +0.120 C 
ENDBRANCH  12  17
BRANCH   5  24
ATOM     24  C   UNL     1       4.745  -6.890  27.189  0.00  0.00    +0.342 C 
ATOM     25  O   UNL     1       3.558  -7.145  27.037  0.00  0.00    -0.245 OA
BRANCH  24  26
ATOM     26  O   UNL     1       5.508  -7.531  28.096  0.00  0.00    -0.477 OA
ATOM     27  H   UNL     1       5.376  -8.509  28.126  0.00  0.00    +0.295 HD
ENDBRANCH  24  26
ENDBRANCH   5  24
TORSDOF 3
ENDMDL
MODEL 2
REMARK VINA RESULT:      -7.2      3.680      7.899
REMARK  Name = 
REMARK  5 active torsions:
REMARK  status: ('A' for Active; 'I' for Inactive)
REMARK    1  A    between atoms: C_1  and  C_2
REMARK    2  A    between atoms: C_7  and  N_8
REMARK    3  A    between atoms: N_11  and  C_12
REMARK    4  A    between atoms: C_22  and  C_23
REMARK    5  A    between atoms: C_23  and  O_24
REMARK                            x       y       z     vdW  Elec       q    Type
REMARK                         _______ _______ _______ _____ _____    ______ ____
ROOT
ATOM      1  C   UNL     1       5.933   2.502  26.512  0.00  0.00    +0.034 C 
ATOM      2  C   UNL     1       6.100   2.033  25.056  0.00  0.00    +0.122 C 
ATOM      3  N   UNL     1       7.470   2.302  24.591  0.00  0.00    -0.337 N 
ATOM      4  C   UNL     1       8.000   3.585  24.548  0.00  0.00    +0.105 A 
ATOM      5  C   UNL     1       9.243   3.921  24.178  0.00  0.00    +0.122 A 
ATOM      6  C   UNL     1      10.126   2.820  23.753  0.00  0.00    +0.204 A 
ATOM      7  O   UNL     1      11.286   3.056  23.420  0.00  0.00    -0.286 OA
ATOM      8  C   UNL     1       9.569   1.449  23.718  0.00  0.00    +0.052 A 
ATOM      9  C   UNL     1      10.379   0.421  23.248  0.00  0.00    +0.054 A 
ATOM     10  C   UNL     1       9.856  -0.858  23.153  0.00  0.00    +0.149 A 
ATOM     11  F   UNL     1      10.659  -1.797  22.622  0.00  0.00    -0.203 F 
ATOM     12  C   UNL     1       8.524  -1.169  23.507  0.00  0.00    +0.110 A 
ATOM     13  C   UNL     1       7.728  -0.085  23.987  0.00  0.00    +0.168 A 
ATOM     14  O   UNL     1       6.423  -0.369  24.271  0.00  0.00    -0.486 OA
ATOM     15  C   UNL     1       8.237   1.221  24.116  0.00  0.00    +0.097 A 
ATOM     16  C   UNL     1       5.643   0.573  24.975  0.00  0.00    +0.254 C 
ENDROOT
BRANCH  12  17
ATOM     17  N   UNL     1       8.046  -2.465  23.314  0.00  0.00    -0.322 N 
ATOM     18  C   UNL     1       7.371  -2.837  22.056  0.00  0.00    +0.120 C 
ATOM     19  C   UNL     1       6.220  -3.830  22.355  0.00  0.00    +0.103 C 
ATOM     20  N   UNL     1       6.612  -5.035  23.126  0.00  0.00    -0.302 NA
ATOM     21  C   UNL     1       7.408  -5.955  22.320  0.00  0.00    +0.105 C 
ATOM     22  C   UNL     1       7.345  -4.606  24.338  0.00  0.00    +0.103 C 
ATOM     23  C   UNL     1       8.508  -3.611  24.109  0.00  0.00    +0.120 C 
ENDBRANCH  12  17
BRANCH   5  24
ATOM     24  C   UNL     1       9.659   5.337  24.216  0.00  0.00    +0.342 C 
ATOM     25  O   UNL     1       9.547   6.042  25.210  0.00  0.00    -0.245 OA
BRANCH  24  26
ATOM     26  O   UNL     1      10.184   5.797  23.064  0.00  0.00    -0.477 OA
ATOM     27  H   UNL     1      11.088   5.455  22.860  0.00  0.00    +0.295 HD
ENDBRANCH  24  26
ENDBRANCH   5  24
TORSDOF 3
ENDMDL
MODEL 3
REMARK VINA RESULT:      -7.1      3.173      4.855
REMARK  Name = 
REMARK  5 active torsions:
REMARK  status: ('A' for Active; 'I' for Inactive)
REMARK    1  A    between atoms: C_1  and  C_2
REMARK    2  A    between atoms: C_7  and  N_8
REMARK    3  A    between atoms: N_11  and  C_12
REMARK    4  A    between atoms: C_22  and  C_23
REMARK    5  A    between atoms: C_23  and  O_24
REMARK                            x       y       z     vdW  Elec       q    Type
REMARK                         _______ _______ _______ _____ _____    ______ ____
ROOT
ATOM      1  C   UNL     1       4.878  -2.029  25.634  0.00  0.00    +0.034 C 
ATOM      2  C   UNL     1       6.073  -1.119  25.969  0.00  0.00    +0.122 C 
ATOM      3  N   UNL     1       7.286  -1.606  25.294  0.00  0.00    -0.337 N 
ATOM      4  C   UNL     1       7.808  -2.872  25.529  0.00  0.00    +0.105 A 
ATOM      5  C   UNL     1       8.880  -3.415  24.937  0.00  0.00    +0.122 A 
ATOM      6  C   UNL     1       9.588  -2.574  23.955  0.00  0.00    +0.204 A 
ATOM      7  O   UNL     1      10.568  -3.017  23.360  0.00  0.00    -0.286 OA
ATOM      8  C   UNL     1       9.101  -1.193  23.735  0.00  0.00    +0.052 A 
ATOM      9  C   UNL     1       9.812  -0.376  22.863  0.00  0.00    +0.054 A 
ATOM     10  C   UNL     1       9.406   0.937  22.689  0.00  0.00    +0.149 A 
ATOM     11  F   UNL     1      10.173   1.702  21.894  0.00  0.00    -0.203 F 
ATOM     12  C   UNL     1       8.298   1.491  23.368  0.00  0.00    +0.110 A 
ATOM     13  C   UNL     1       7.594   0.617  24.251  0.00  0.00    +0.168 A 
ATOM     14  O   UNL     1       6.561   1.167  24.954  0.00  0.00    -0.486 OA
ATOM     15  C   UNL     1       7.969  -0.727  24.432  0.00  0.00    +0.097 A 
ATOM     16  C   UNL     1       5.670   0.325  25.654  0.00  0.00    +0.254 C 
ENDROOT
BRANCH  12  17
ATOM     17  N   UNL     1       7.993   2.842  23.198  0.00  0.00    -0.322 N 
ATOM     18  C   UNL     1       8.830   3.885  23.820  0.00  0.00    +0.120 C 
ATOM     19  C   UNL     1       7.938   5.061  24.290  0.00  0.00    +0.103 C 
ATOM     20  N   UNL     1       7.055   5.638  23.247  0.00  0.00    -0.302 NA
ATOM     21  C   UNL     1       7.815   6.401  22.261  0.00  0.00    +0.105 C 
ATOM     22  C   UNL     1       6.292   4.541  22.610  0.00  0.00    +0.103 C 
ATOM     23  C   UNL     1       7.126   3.334  22.118  0.00  0.00    +0.120 C 
ENDBRANCH  12  17
BRANCH   5  24
ATOM     24  C   UNL     1       9.288  -4.791  25.283  0.00  0.00    +0.342 C 
ATOM     25  O   UNL     1       8.531  -5.607  25.792  0.00  0.00    -0.245 OA
BRANCH  24  26
ATOM     26  O   UNL     1      10.568  -5.087  24.985  0.00  0.00    -0.477 OA
ATOM     27  H   UNL     1      11.230  -4.734  25.627  0.00  0.00    +0.295 HD
ENDBRANCH  24  26
ENDBRANCH   5  24
TORSDOF 3
ENDMDL
MODEL 4
REMARK VINA RESULT:      -6.9      2.219      3.271
REMARK  Name = 
REMARK  5 active torsions:
REMARK  status: ('A' for Active; 'I' for Inactive)
REMARK    1  A    between atoms: C_1  and  C_2
REMARK    2  A    between atoms: C_7  and  N_8
REMARK    3  A    between atoms: N_11  and  C_12
REMARK    4  A    between atoms: C_22  and  C_23
REMARK    5  A    between atoms: C_23  and  O_24
REMARK                            x       y       z     vdW  Elec       q    Type
REMARK                         _______ _______ _______ _____ _____    ______ ____
ROOT
ATOM      1  C   UNL     1       3.656  -1.944  26.659  0.00  0.00    +0.034 C 
ATOM      2  C   UNL     1       5.181  -2.151  26.662  0.00  0.00    +0.122 C 
ATOM      3  N   UNL     1       5.559  -3.159  25.659  0.00  0.00    -0.337 N 
ATOM      4  C   UNL     1       5.087  -4.465  25.707  0.00  0.00    +0.105 A 
ATOM      5  C   UNL     1       5.344  -5.437  24.822  0.00  0.00    +0.122 A 
ATOM      6  C   UNL     1       6.234  -5.090  23.700  0.00  0.00    +0.204 A 
ATOM      7  O   UNL     1       6.495  -5.930  22.840  0.00  0.00    -0.286 OA
ATOM      8  C   UNL     1       6.812  -3.728  23.659  0.00  0.00    +0.052 A 
ATOM      9  C   UNL     1       7.709  -3.423  22.641  0.00  0.00    +0.054 A 
ATOM     10  C   UNL     1       8.305  -2.174  22.621  0.00  0.00    +0.149 A 
ATOM     11  F   UNL     1       9.219  -1.960  21.658  0.00  0.00    -0.203 F 
ATOM     12  C   UNL     1       8.047  -1.187  23.599  0.00  0.00    +0.110 A 
ATOM     13  C   UNL     1       7.118  -1.540  24.624  0.00  0.00    +0.168 A 
ATOM     14  O   UNL     1       6.914  -0.611  25.605  0.00  0.00    -0.486 OA
ATOM     15  C   UNL     1       6.480  -2.793  24.660  0.00  0.00    +0.097 A 
ATOM     16  C   UNL     1       5.843  -0.778  26.509  0.00  0.00    +0.254 C 
ENDROOT
BRANCH  12  17
ATOM     17  N   UNL     1       8.741   0.023  23.555  0.00  0.00    -0.322 N 
ATOM     18  C   UNL     1       8.362   1.072  22.589  0.00  0.00    +0.120 C 
ATOM     19  C   UNL     1       9.633   1.797  22.080  0.00  0.00    +0.103 C 
ATOM     20  N   UNL     1      10.514   2.342  23.140  0.00  0.00    -0.302 NA
ATOM     21  C   UNL     1       9.918   3.506  23.790  0.00  0.00    +0.105 C 
ATOM     22  C   UNL     1      10.804   1.269  24.117  0.00  0.00    +0.103 C 
ATOM     23  C   UNL     1       9.576   0.503  24.665  0.00  0.00    +0.120 C 
ENDBRANCH  12  17
BRANCH   5  24
ATOM     24  C   UNL     1       4.737  -6.771  25.005  0.00  0.00    +0.342 C 
ATOM     25  O   UNL     1       4.472  -7.242  26.103  0.00  0.00    -0.245 OA
BRANCH  24  26
ATOM     26  O   UNL     1       4.488  -7.434  23.859  0.00  0.00    -0.477 OA
ATOM     27  H   UNL     1       4.762  -8.383  23.866  0.00  0.00    +0.295 HD
ENDBRANCH  24  26
ENDBRANCH   5  24
TORSDOF 3
ENDMDL
MODEL 5
REMARK VINA RESULT:      -6.8      2.875      7.551
REMARK  Name = 
REMARK  5 active torsions:
REMARK  status: ('A' for Active; 'I' for Inactive)
REMARK    1  A    between atoms: C_1  and  C_2
REMARK    2  A    between atoms: C_7  and  N_8
REMARK    3  A    between atoms: N_11  and  C_12
REMARK    4  A    between atoms: C_22  and  C_23
REMARK    5  A    between atoms: C_23  and  O_24
REMARK                            x       y       z     vdW  Elec       q    Type
REMARK                         _______ _______ _______ _____ _____    ______ ____
ROOT
ATOM      1  C   UNL     1       6.953   1.025  26.867  0.00  0.00    +0.034 C 
ATOM      2  C   UNL     1       6.279   0.524  25.578  0.00  0.00    +0.122 C 
ATOM      3  N   UNL     1       7.298   0.179  24.574  0.00  0.00    -0.337 N 
ATOM      4  C   UNL     1       8.204   1.113  24.086  0.00  0.00    +0.105 A 
ATOM      5  C   UNL     1       9.187   0.884  23.205  0.00  0.00    +0.122 A 
ATOM      6  C   UNL     1       9.300  -0.490  22.685  0.00  0.00    +0.204 A 
ATOM      7  O   UNL     1      10.192  -0.774  21.888  0.00  0.00    -0.286 OA
ATOM      8  C   UNL     1       8.305  -1.492  23.128  0.00  0.00    +0.052 A 
ATOM      9  C   UNL     1       8.368  -2.770  22.583  0.00  0.00    +0.054 A 
ATOM     10  C   UNL     1       7.410  -3.702  22.942  0.00  0.00    +0.149 A 
ATOM     11  F   UNL     1       7.475  -4.896  22.327  0.00  0.00    -0.203 F 
ATOM     12  C   UNL     1       6.358  -3.413  23.839  0.00  0.00    +0.110 A 
ATOM     13  C   UNL     1       6.332  -2.091  24.378  0.00  0.00    +0.168 A 
ATOM     14  O   UNL     1       5.281  -1.790  25.197  0.00  0.00    -0.486 OA
ATOM     15  C   UNL     1       7.303  -1.127  24.050  0.00  0.00    +0.097 A 
ATOM     16  C   UNL     1       5.311  -0.601  25.958  0.00  0.00    +0.254 C 
ENDROOT
BRANCH  12  17
ATOM     17  N   UNL     1       5.386  -4.381  24.096  0.00  0.00    -0.322 N 
ATOM     18  C   UNL     1       5.385  -5.124  25.371  0.00  0.00    +0.120 C 
ATOM     19  C   UNL     1       4.945  -6.588  25.122  0.00  0.00    +0.103 C 
ATOM     20  N   UNL     1       3.653  -6.746  24.412  0.00  0.00    -0.302 NA
ATOM     21  C   UNL     1       2.523  -6.384  25.264  0.00  0.00    +0.105 C 
ATOM     22  C   UNL     1       3.683  -5.925  23.180  0.00  0.00    +0.103 C 
ATOM     23  C   UNL     1       4.116  -4.450  23.360  0.00  0.00    +0.120 C 
ENDBRANCH  12  17
BRANCH   5  24
ATOM     24  C   UNL     1      10.086   1.987  22.810  0.00  0.00    +0.342 C 
ATOM     25  O   UNL     1      10.750   2.630  23.611  0.00  0.00    -0.245 OA
BRANCH  24  26
ATOM     26  O   UNL     1      10.125   2.230  21.485  0.00  0.00    -0.477 OA
ATOM     27  H   UNL     1       9.331   1.917  20.988  0.00  0.00    +0.295 HD
ENDBRANCH  24  26
ENDBRANCH   5  24
TORSDOF 3
ENDMDL
MODEL 6
REMARK VINA RESULT:      -6.7      2.369      2.889
REMARK  Name = 
REMARK  5 active torsions:
REMARK  status: ('A' for Active; 'I' for Inactive)
REMARK    1  A    between atoms: C_1  and  C_2
REMARK    2  A    between atoms: C_7  and  N_8
REMARK    3  A    between atoms: N_11  and  C_12
REMARK    4  A    between atoms: C_22  and  C_23
REMARK    5  A    between atoms: C_23  and  O_24
REMARK                            x       y       z     vdW  Elec       q    Type
REMARK                         _______ _______ _______ _____ _____    ______ ____
ROOT
ATOM      1  C   UNL     1       3.332  -2.398  26.727  0.00  0.00    +0.034 C 
ATOM      2  C   UNL     1       4.737  -1.896  27.100  0.00  0.00    +0.122 C 
ATOM      3  N   UNL     1       5.694  -3.013  27.093  0.00  0.00    -0.337 N 
ATOM      4  C   UNL     1       5.550  -4.119  27.921  0.00  0.00    +0.105 A 
ATOM      5  C   UNL     1       6.344  -5.197  27.957  0.00  0.00    +0.122 A 
ATOM      6  C   UNL     1       7.499  -5.196  27.041  0.00  0.00    +0.204 A 
ATOM      7  O   UNL     1       8.258  -6.163  27.009  0.00  0.00    -0.286 OA
ATOM      8  C   UNL     1       7.724  -4.001  26.197  0.00  0.00    +0.052 A 
ATOM      9  C   UNL     1       8.853  -3.969  25.387  0.00  0.00    +0.054 A 
ATOM     10  C   UNL     1       9.111  -2.836  24.635  0.00  0.00    +0.149 A 
ATOM     11  F   UNL     1      10.255  -2.831  23.929  0.00  0.00    -0.203 F 
ATOM     12  C   UNL     1       8.276  -1.696  24.658  0.00  0.00    +0.110 A 
ATOM     13  C   UNL     1       7.126  -1.772  25.500  0.00  0.00    +0.168 A 
ATOM     14  O   UNL     1       6.351  -0.649  25.572  0.00  0.00    -0.486 OA
ATOM     15  C   UNL     1       6.825  -2.917  26.260  0.00  0.00    +0.097 A 
ATOM     16  C   UNL     1       5.078  -0.720  26.180  0.00  0.00    +0.254 C 
ENDROOT
BRANCH  12  17
ATOM     17  N   UNL     1       8.639  -0.563  23.930  0.00  0.00    -0.322 N 
ATOM     18  C   UNL     1       8.078  -0.320  22.587  0.00  0.00    +0.120 C 
ATOM     19  C   UNL     1       9.156   0.323  21.679  0.00  0.00    +0.103 C 
ATOM     20  N   UNL     1       9.787   1.550  22.222  0.00  0.00    -0.302 NA
ATOM     21  C   UNL     1       8.867   2.683  22.201  0.00  0.00    +0.105 C 
ATOM     22  C   UNL     1      10.268   1.270  23.594  0.00  0.00    +0.103 C 
ATOM     23  C   UNL     1       9.239   0.626  24.553  0.00  0.00    +0.120 C 
ENDBRANCH  12  17
BRANCH   5  24
ATOM     24  C   UNL     1       6.033  -6.305  28.882  0.00  0.00    +0.342 C 
ATOM     25  O   UNL     1       6.160  -6.220  30.096  0.00  0.00    -0.245 OA
BRANCH  24  26
ATOM     26  O   UNL     1       5.585  -7.425  28.282  0.00  0.00    -0.477 OA
ATOM     27  H   UNL     1       6.035  -7.642  27.431  0.00  0.00    +0.295 HD
ENDBRANCH  24  26
ENDBRANCH   5  24
TORSDOF 3
ENDMDL
MODEL 7
REMARK VINA RESULT:      -6.7      2.837      7.609
REMARK  Name = 
REMARK  5 active torsions:
REMARK  status: ('A' for Active; 'I' for Inactive)
REMARK    1  A    between atoms: C_1  and  C_2
REMARK    2  A    between atoms: C_7  and  N_8
REMARK    3  A    between atoms: N_11  and  C_12
REMARK    4  A    between atoms: C_22  and  C_23
REMARK    5  A    between atoms: C_23  and  O_24
REMARK                            x       y       z     vdW  Elec       q    Type
REMARK                         _______ _______ _______ _____ _____    ______ ____
ROOT
ATOM      1  C   UNL     1       7.066   1.912  27.007  0.00  0.00    +0.034 C 
ATOM      2  C   UNL     1       6.546   0.939  25.935  0.00  0.00    +0.122 C 
ATOM      3  N   UNL     1       7.651   0.499  25.069  0.00  0.00    -0.337 N 
ATOM      4  C   UNL     1       8.403   1.392  24.315  0.00  0.00    +0.105 A 
ATOM      5  C   UNL     1       9.448   1.090  23.533  0.00  0.00    +0.122 A 
ATOM      6  C   UNL     1       9.819  -0.334  23.447  0.00  0.00    +0.204 A 
ATOM      7  O   UNL     1      10.781  -0.678  22.763  0.00  0.00    -0.286 OA
ATOM      8  C   UNL     1       8.993  -1.319  24.181  0.00  0.00    +0.052 A 
ATOM      9  C   UNL     1       9.299  -2.668  24.043  0.00  0.00    +0.054 A 
ATOM     10  C   UNL     1       8.502  -3.607  24.674  0.00  0.00    +0.149 A 
ATOM     11  F   UNL     1       8.798  -4.899  24.445  0.00  0.00    -0.203 F 
ATOM     12  C   UNL     1       7.377  -3.257  25.454  0.00  0.00    +0.110 A 
ATOM     13  C   UNL     1       7.100  -1.861  25.573  0.00  0.00    +0.168 A 
ATOM     14  O   UNL     1       5.979  -1.522  26.274  0.00  0.00    -0.486 OA
ATOM     15  C   UNL     1       7.904  -0.881  24.961  0.00  0.00    +0.097 A 
ATOM     16  C   UNL     1       5.770  -0.175  26.644  0.00  0.00    +0.254 C 
ENDROOT
BRANCH  12  17
ATOM     17  N   UNL     1       6.577  -4.261  25.999  0.00  0.00    -0.322 N 
ATOM     18  C   UNL     1       6.564  -4.505  27.454  0.00  0.00    +0.120 C 
ATOM     19  C   UNL     1       6.433  -6.024  27.729  0.00  0.00    +0.103 C 
ATOM     20  N   UNL     1       5.283  -6.686  27.068  0.00  0.00    -0.302 NA
ATOM     21  C   UNL     1       4.015  -6.304  27.683  0.00  0.00    +0.105 C 
ATOM     22  C   UNL     1       5.305  -6.351  25.626  0.00  0.00    +0.103 C 
ATOM     23  C   UNL     1       5.436  -4.847  25.283  0.00  0.00    +0.120 C 
ENDBRANCH  12  17
BRANCH   5  24
ATOM     24  C   UNL     1      10.159   2.167  22.816  0.00  0.00    +0.342 C 
ATOM     25  O   UNL     1      10.754   3.072  23.386  0.00  0.00    -0.245 OA
BRANCH  24  26
ATOM     26  O   UNL     1      10.110   2.073  21.473  0.00  0.00    -0.477 OA
ATOM     27  H   UNL     1      10.978   1.877  21.044  0.00  0.00    +0.295 HD
ENDBRANCH  24  26
ENDBRANCH   5  24
TORSDOF 3
ENDMDL
MODEL 8
REMARK VINA RESULT:      -6.6      2.180      2.687
REMARK  Name = 
REMARK  5 active torsions:
REMARK  status: ('A' for Active; 'I' for Inactive)
REMARK    1  A    between atoms: C_1  and  C_2
REMARK    2  A    between atoms: C_7  and  N_8
REMARK    3  A    between atoms: N_11  and  C_12
REMARK    4  A    between atoms: C_22  and  C_23
REMARK    5  A    between atoms: C_23  and  O_24
REMARK                            x       y       z     vdW  Elec       q    Type
REMARK                         _______ _______ _______ _____ _____    ______ ____
ROOT
ATOM      1  C   UNL     1       9.824  -5.039  25.550  0.00  0.00    +0.034 C 
ATOM      2  C   UNL     1       8.940  -4.350  24.496  0.00  0.00    +0.122 C 
ATOM      3  N   UNL     1       7.548  -4.283  24.966  0.00  0.00    -0.337 N 
ATOM      4  C   UNL     1       6.810  -5.422  25.267  0.00  0.00    +0.105 A 
ATOM      5  C   UNL     1       5.556  -5.457  25.736  0.00  0.00    +0.122 A 
ATOM      6  C   UNL     1       4.886  -4.159  25.929  0.00  0.00    +0.204 A 
ATOM      7  O   UNL     1       3.741  -4.119  26.376  0.00  0.00    -0.286 OA
ATOM      8  C   UNL     1       5.618  -2.929  25.549  0.00  0.00    +0.052 A 
ATOM      9  C   UNL     1       4.960  -1.710  25.664  0.00  0.00    +0.054 A 
ATOM     10  C   UNL     1       5.607  -0.555  25.258  0.00  0.00    +0.149 A 
ATOM     11  F   UNL     1       4.897   0.585  25.320  0.00  0.00    -0.203 F 
ATOM     12  C   UNL     1       6.915  -0.559  24.722  0.00  0.00    +0.110 A 
ATOM     13  C   UNL     1       7.555  -1.831  24.625  0.00  0.00    +0.168 A 
ATOM     14  O   UNL     1       8.794  -1.845  24.051  0.00  0.00    -0.486 OA
ATOM     15  C   UNL     1       6.932  -3.020  25.049  0.00  0.00    +0.097 A 
ATOM     16  C   UNL     1       9.589  -3.009  24.139  0.00  0.00    +0.254 C 
ENDROOT
BRANCH  12  17
ATOM     17  N   UNL     1       7.475   0.635  24.266  0.00  0.00    -0.322 N 
ATOM     18  C   UNL     1       7.088   1.195  22.957  0.00  0.00    +0.120 C 
ATOM     19  C   UNL     1       8.319   1.852  22.285  0.00  0.00    +0.103 C 
ATOM     20  N   UNL     1       9.022   2.864  23.110  0.00  0.00    -0.302 NA
ATOM     21  C   UNL     1       8.240   4.090  23.240  0.00  0.00    +0.105 C 
ATOM     22  C   UNL     1       9.322   2.273  24.434  0.00  0.00    +0.103 C 
ATOM     23  C   UNL     1       8.134   1.598  25.159  0.00  0.00    +0.120 C 
ENDBRANCH  12  17
BRANCH   5  24
ATOM     24  C   UNL     1       4.924  -6.758  26.032  0.00  0.00    +0.342 C 
ATOM     25  O   UNL     1       4.274  -7.391  25.210  0.00  0.00    -0.245 OA
BRANCH  24  26
ATOM     26  O   UNL     1       5.124  -7.205  27.287  0.00  0.00    -0.477 OA
ATOM     27  H   UNL     1       5.832  -7.888  27.371  0.00  0.00    +0.295 HD
ENDBRANCH  24  26
ENDBRANCH   5  24
TORSDOF 3
ENDMDL
MODEL 9
REMARK VINA RESULT:      -6.4      2.989      7.452
REMARK  Name = 
REMARK  5 active torsions:
REMARK  status: ('A' for Active; 'I' for Inactive)
REMARK    1  A    between atoms: C_1  and  C_2
REMARK    2  A    between atoms: C_7  and  N_8
REMARK    3  A    between atoms: N_11  and  C_12
REMARK    4  A    between atoms: C_22  and  C_23
REMARK    5  A    between atoms: C_23  and  O_24
REMARK                            x       y       z     vdW  Elec       q    Type
REMARK                         _______ _______ _______ _____ _____    ______ ____
ROOT
ATOM      1  C   UNL     1      10.346  -1.141  21.889  0.00  0.00    +0.034 C 
ATOM      2  C   UNL     1      10.021  -1.156  23.393  0.00  0.00    +0.122 C 
ATOM      3  N   UNL     1       9.014  -0.130  23.704  0.00  0.00    -0.337 N 
ATOM      4  C   UNL     1       9.233   1.221  23.466  0.00  0.00    +0.105 A 
ATOM      5  C   UNL     1       8.365   2.218  23.680  0.00  0.00    +0.122 A 
ATOM      6  C   UNL     1       7.056   1.845  24.246  0.00  0.00    +0.204 A 
ATOM      7  O   UNL     1       6.206   2.709  24.449  0.00  0.00    -0.286 OA
ATOM      8  C   UNL     1       6.817   0.423  24.580  0.00  0.00    +0.052 A 
ATOM      9  C   UNL     1       5.611   0.081  25.181  0.00  0.00    +0.054 A 
ATOM     10  C   UNL     1       5.393  -1.235  25.553  0.00  0.00    +0.149 A 
ATOM     11  F   UNL     1       4.242  -1.494  26.197  0.00  0.00    -0.203 F 
ATOM     12  C   UNL     1       6.351  -2.254  25.356  0.00  0.00    +0.110 A 
ATOM     13  C   UNL     1       7.574  -1.861  24.733  0.00  0.00    +0.168 A 
ATOM     14  O   UNL     1       8.526  -2.832  24.597  0.00  0.00    -0.486 OA
ATOM     15  C   UNL     1       7.817  -0.537  24.323  0.00  0.00    +0.097 A 
ATOM     16  C   UNL     1       9.653  -2.592  23.782  0.00  0.00    +0.254 C 
ENDROOT
BRANCH  12  17
ATOM     17  N   UNL     1       6.091  -3.543  25.824  0.00  0.00    -0.322 N 
ATOM     18  C   UNL     1       6.393  -3.910  27.220  0.00  0.00    +0.120 C 
ATOM     19  C   UNL     1       6.898  -5.373  27.278  0.00  0.00    +0.103 C 
ATOM     20  N   UNL     1       6.005  -6.374  26.645  0.00  0.00    -0.302 NA
ATOM     21  C   UNL     1       4.797  -6.592  27.436  0.00  0.00    +0.105 C 
ATOM     22  C   UNL     1       5.677  -5.920  25.275  0.00  0.00    +0.103 C 
ATOM     23  C   UNL     1       5.167  -4.464  25.148  0.00  0.00    +0.120 C 
ENDBRANCH  12  17
BRANCH   5  24
ATOM     24  C   UNL     1       8.748   3.605  23.345  0.00  0.00    +0.342 C 
ATOM     25  O   UNL     1       9.635   4.214  23.927  0.00  0.00    -0.245 OA
BRANCH  24  26
ATOM     26  O   UNL     1       8.044   4.150  22.334  0.00  0.00    -0.477 OA
ATOM     27  H   UNL     1       7.187   3.700  22.141  0.00  0.00    +0.295 HD
ENDBRANCH  24  26
ENDBRANCH   5  24
TORSDOF 3
ENDMDL
