MODEL 1
REMARK VINA RESULT:      -5.5      0.000      0.000
REMARK  Name = 
REMARK  3 active torsions:
REMARK  status: ('A' for Active; 'I' for Inactive)
REMARK    1  A    between atoms: C_2  and  C_15
REMARK    2  A    between atoms: C_7  and  C_9
REMARK    3  A    between atoms: C_15  and  O_16
REMARK                            x       y       z     vdW  Elec       q    Type
REMARK                         _______ _______ _______ _____ _____    ______ ____
ROOT
ATOM      1  C   UNL     1       7.375  -4.884  24.292  0.00  0.00    +0.108 C 
ATOM      2  C   UNL     1       7.125  -3.366  24.262  0.00  0.00    +0.070 C 
ATOM      3  C   UNL     1       6.019  -3.016  23.256  0.00  0.00    +0.012 C 
ATOM      4  C   UNL     1       6.269  -3.617  21.872  0.00  0.00    +0.001 C 
ATOM      5  C   UNL     1       6.484  -5.127  21.926  0.00  0.00    +0.001 C 
ATOM      6  C   UNL     1       7.569  -5.535  22.919  0.00  0.00    +0.015 C 
ENDROOT
BRANCH   2   7
ATOM      7  C   UNL     1       8.364  -2.560  23.961  0.00  0.00    +0.133 A 
ATOM      8  N   UNL     1       8.584  -1.375  24.558  0.00  0.00    -0.321 N 
ATOM      9  H   UNL     1       8.047  -0.916  25.278  0.00  0.00    +0.169 HD
ATOM     10  C   UNL     1       9.777  -0.937  24.069  0.00  0.00    +0.173 A 
ATOM     11  S   UNL     1      10.568   0.444  24.485  0.00  0.00    -0.012 S 
ATOM     12  N   UNL     1      10.194  -1.892  23.161  0.00  0.00    -0.254 N 
ATOM     13  H   UNL     1      11.036  -1.869  22.595  0.00  0.00    +0.191 HD
ATOM     14  N   UNL     1       9.286  -2.914  23.109  0.00  0.00    -0.158 NA
ENDBRANCH   2   7
BRANCH   1  15
ATOM     15  C   UNL     1       8.467  -5.267  25.277  0.00  0.00    +0.309 C 
ATOM     16  O   UNL     1       8.307  -5.206  26.489  0.00  0.00    -0.251 OA
BRANCH  15  17
ATOM     17  O   UNL     1       9.643  -5.642  24.735  0.00  0.00    -0.480 OA
ATOM     18  H   UNL     1       9.570  -6.204  23.927  0.00  0.00    +0.295 HD
ENDBRANCH  15  17
ENDBRANCH   1  15
TORSDOF 3
ENDMDL
MODEL 2
REMARK VINA RESULT:      -5.3      4.239      6.035
REMARK  Name = 
REMARK  3 active torsions:
REMARK  status: ('A' for Active; 'I' for Inactive)
REMARK    1  A    between atoms: C_2  and  C_15
REMARK    2  A    between atoms: C_7  and  C_9
REMARK    3  A    between atoms: C_15  and  O_16
REMARK                            x       y       z     vdW  Elec       q    Type
REMARK                         _______ _______ _______ _____ _____    ______ ____
ROOT
ATOM      1  C   UNL     1       8.697   1.729  23.120  0.00  0.00    +0.108 C 
ATOM      2  C   UNL     1       7.892   0.737  23.977  0.00  0.00    +0.070 C 
ATOM      3  C   UNL     1       8.589   0.491  25.324  0.00  0.00    +0.012 C 
ATOM      4  C   UNL     1      10.059   0.102  25.164  0.00  0.00    +0.001 C 
ATOM      5  C   UNL     1      10.841   1.117  24.336  0.00  0.00    +0.001 C 
ATOM      6  C   UNL     1      10.189   1.408  22.987  0.00  0.00    +0.015 C 
ENDROOT
BRANCH   2   7
ATOM      7  C   UNL     1       7.634  -0.580  23.288  0.00  0.00    +0.133 A 
ATOM      8  N   UNL     1       6.456  -1.215  23.422  0.00  0.00    -0.321 N 
ATOM      9  H   UNL     1       5.621  -0.913  23.899  0.00  0.00    +0.169 HD
ATOM     10  C   UNL     1       6.565  -2.346  22.671  0.00  0.00    +0.173 A 
ATOM     11  S   UNL     1       5.404  -3.486  22.429  0.00  0.00    -0.012 S 
ATOM     12  N   UNL     1       7.843  -2.338  22.148  0.00  0.00    -0.254 N 
ATOM     13  H   UNL     1       8.266  -3.048  21.558  0.00  0.00    +0.191 HD
ATOM     14  N   UNL     1       8.504  -1.209  22.547  0.00  0.00    -0.158 NA
ENDBRANCH   2   7
BRANCH   1  15
ATOM     15  C   UNL     1       8.037   1.994  21.777  0.00  0.00    +0.309 C 
ATOM     16  O   UNL     1       7.028   2.679  21.666  0.00  0.00    -0.251 OA
BRANCH  15  17
ATOM     17  O   UNL     1       8.607   1.395  20.713  0.00  0.00    -0.480 OA
ATOM     18  H   UNL     1       8.386   0.438  20.604  0.00  0.00    +0.295 HD
ENDBRANCH  15  17
ENDBRANCH   1  15
TORSDOF 3
ENDMDL
MODEL 3
REMARK VINA RESULT:      -5.2      3.734      5.649
REMARK  Name = 
REMARK  3 active torsions:
REMARK  status: ('A' for Active; 'I' for Inactive)
REMARK    1  A    between atoms: C_2  and  C_15
REMARK    2  A    between atoms: C_7  and  C_9
REMARK    3  A    between atoms: C_15  and  O_16
REMARK                            x       y       z     vdW  Elec       q    Type
REMARK                         _______ _______ _______ _____ _____    ______ ____
ROOT
ATOM      1  C   UNL     1       9.953   0.502  22.453  0.00  0.00    +0.108 C 
ATOM      2  C   UNL     1       8.531   0.897  22.016  0.00  0.00    +0.070 C 
ATOM      3  C   UNL     1       8.389   2.424  21.940  0.00  0.00    +0.012 C 
ATOM      4  C   UNL     1       8.847   3.123  23.221  0.00  0.00    +0.001 C 
ATOM      5  C   UNL     1      10.270   2.738  23.615  0.00  0.00    +0.001 C 
ATOM      6  C   UNL     1      10.472   1.227  23.698  0.00  0.00    +0.015 C 
ENDROOT
BRANCH   2   7
ATOM      7  C   UNL     1       7.451   0.328  22.902  0.00  0.00    +0.133 A 
ATOM      8  N   UNL     1       7.250  -1.000  22.986  0.00  0.00    -0.321 N 
ATOM      9  H   UNL     1       7.776  -1.751  22.567  0.00  0.00    +0.169 HD
ATOM     10  C   UNL     1       6.224  -1.157  23.868  0.00  0.00    +0.173 A 
ATOM     11  S   UNL     1       5.579  -2.578  24.390  0.00  0.00    -0.012 S 
ATOM     12  N   UNL     1       5.839   0.117  24.241  0.00  0.00    -0.254 N 
ATOM     13  H   UNL     1       5.084   0.366  24.872  0.00  0.00    +0.191 HD
ATOM     14  N   UNL     1       6.631   1.044  23.621  0.00  0.00    -0.158 NA
ENDBRANCH   2   7
BRANCH   1  15
ATOM     15  C   UNL     1      10.128  -1.005  22.541  0.00  0.00    +0.309 C 
ATOM     16  O   UNL     1      10.331  -1.581  23.601  0.00  0.00    -0.251 OA
BRANCH  15  17
ATOM     17  O   UNL     1      10.085  -1.671  21.370  0.00  0.00    -0.480 OA
ATOM     18  H   UNL     1      10.671  -1.308  20.662  0.00  0.00    +0.295 HD
ENDBRANCH  15  17
ENDBRANCH   1  15
TORSDOF 3
ENDMDL
MODEL 4
REMARK VINA RESULT:      -5.2      3.472      4.313
REMARK  Name = 
REMARK  3 active torsions:
REMARK  status: ('A' for Active; 'I' for Inactive)
REMARK    1  A    between atoms: C_2  and  C_15
REMARK    2  A    between atoms: C_7  and  C_9
REMARK    3  A    between atoms: C_15  and  O_16
REMARK                            x       y       z     vdW  Elec       q    Type
REMARK                         _______ _______ _______ _____ _____    ______ ____
ROOT
ATOM      1  C   UNL     1       8.595  -3.852  24.883  0.00  0.00    +0.108 C 
ATOM      2  C   UNL     1       8.245  -4.048  23.397  0.00  0.00    +0.070 C 
ATOM      3  C   UNL     1       7.879  -2.707  22.743  0.00  0.00    +0.012 C 
ATOM      4  C   UNL     1       6.809  -1.943  23.524  0.00  0.00    +0.001 C 
ATOM      5  C   UNL     1       7.194  -1.736  24.986  0.00  0.00    +0.001 C 
ATOM      6  C   UNL     1       7.577  -3.037  25.686  0.00  0.00    +0.015 C 
ENDROOT
BRANCH   2   7
ATOM      7  C   UNL     1       7.138  -5.046  23.168  0.00  0.00    +0.133 A 
ATOM      8  N   UNL     1       6.174  -5.237  24.087  0.00  0.00    -0.321 N 
ATOM      9  H   UNL     1       6.016  -4.747  24.954  0.00  0.00    +0.169 HD
ATOM     10  C   UNL     1       5.350  -6.183  23.558  0.00  0.00    +0.173 A 
ATOM     11  S   UNL     1       3.970  -6.778  24.229  0.00  0.00    -0.012 S 
ATOM     12  N   UNL     1       5.901  -6.536  22.341  0.00  0.00    -0.254 N 
ATOM     13  H   UNL     1       5.552  -7.235  21.693  0.00  0.00    +0.191 HD
ATOM     14  N   UNL     1       7.031  -5.802  22.110  0.00  0.00    -0.158 NA
ENDBRANCH   2   7
BRANCH   1  15
ATOM     15  C   UNL     1       8.960  -5.161  25.563  0.00  0.00    +0.309 C 
ATOM     16  O   UNL     1       8.210  -5.722  26.351  0.00  0.00    -0.251 OA
BRANCH  15  17
ATOM     17  O   UNL     1      10.183  -5.651  25.277  0.00  0.00    -0.480 OA
ATOM     18  H   UNL     1      10.260  -6.635  25.326  0.00  0.00    +0.295 HD
ENDBRANCH  15  17
ENDBRANCH   1  15
TORSDOF 3
ENDMDL
MODEL 5
REMARK VINA RESULT:      -5.2      2.380      3.266
REMARK  Name = 
REMARK  3 active torsions:
REMARK  status: ('A' for Active; 'I' for Inactive)
REMARK    1  A    between atoms: C_2  and  C_15
REMARK    2  A    between atoms: C_7  and  C_9
REMARK    3  A    between atoms: C_15  and  O_16
REMARK                            x       y       z     vdW  Elec       q    Type
REMARK                         _______ _______ _______ _____ _____    ______ ____
ROOT
ATOM      1  C   UNL     1       5.978  -4.860  23.138  0.00  0.00    +0.108 C 
ATOM      2  C   UNL     1       7.227  -4.906  24.036  0.00  0.00    +0.070 C 
ATOM      3  C   UNL     1       6.835  -4.823  25.519  0.00  0.00    +0.012 C 
ATOM      4  C   UNL     1       5.914  -3.641  25.820  0.00  0.00    +0.001 C 
ATOM      5  C   UNL     1       4.669  -3.636  24.938  0.00  0.00    +0.001 C 
ATOM      6  C   UNL     1       4.998  -3.725  23.450  0.00  0.00    +0.015 C 
ENDROOT
BRANCH   2   7
ATOM      7  C   UNL     1       8.237  -3.832  23.715  0.00  0.00    +0.133 A 
ATOM      8  N   UNL     1       8.006  -2.931  22.742  0.00  0.00    -0.321 N 
ATOM      9  H   UNL     1       7.181  -2.802  22.178  0.00  0.00    +0.169 HD
ATOM     10  C   UNL     1       9.100  -2.120  22.731  0.00  0.00    +0.173 A 
ATOM     11  S   UNL     1       9.348  -0.809  21.769  0.00  0.00    -0.012 S 
ATOM     12  N   UNL     1       9.956  -2.615  23.697  0.00  0.00    -0.254 N 
ATOM     13  H   UNL     1      10.876  -2.260  23.937  0.00  0.00    +0.191 HD
ATOM     14  N   UNL     1       9.389  -3.698  24.312  0.00  0.00    -0.158 NA
ENDBRANCH   2   7
BRANCH   1  15
ATOM     15  C   UNL     1       6.330  -4.937  21.662  0.00  0.00    +0.309 C 
ATOM     16  O   UNL     1       7.107  -5.770  21.216  0.00  0.00    -0.251 OA
BRANCH  15  17
ATOM     17  O   UNL     1       5.763  -4.003  20.873  0.00  0.00    -0.480 OA
ATOM     18  H   UNL     1       4.921  -3.620  21.219  0.00  0.00    +0.295 HD
ENDBRANCH  15  17
ENDBRANCH   1  15
TORSDOF 3
ENDMDL
MODEL 6
REMARK VINA RESULT:      -5.1      3.256      4.077
REMARK  Name = 
REMARK  3 active torsions:
REMARK  status: ('A' for Active; 'I' for Inactive)
REMARK    1  A    between atoms: C_2  and  C_15
REMARK    2  A    between atoms: C_7  and  C_9
REMARK    3  A    between atoms: C_15  and  O_16
REMARK                            x       y       z     vdW  Elec       q    Type
REMARK                         _______ _______ _______ _____ _____    ______ ____
ROOT
ATOM      1  C   UNL     1       7.922  -3.288  23.104  0.00  0.00    +0.108 C 
ATOM      2  C   UNL     1       7.903  -4.796  23.411  0.00  0.00    +0.070 C 
ATOM      3  C   UNL     1       6.751  -5.489  22.666  0.00  0.00    +0.012 C 
ATOM      4  C   UNL     1       5.404  -4.804  22.898  0.00  0.00    +0.001 C 
ATOM      5  C   UNL     1       5.442  -3.318  22.558  0.00  0.00    +0.001 C 
ATOM      6  C   UNL     1       6.574  -2.578  23.264  0.00  0.00    +0.015 C 
ENDROOT
BRANCH   2   7
ATOM      7  C   UNL     1       7.818  -5.107  24.884  0.00  0.00    +0.133 A 
ATOM      8  N   UNL     1       6.678  -4.911  25.571  0.00  0.00    -0.321 N 
ATOM      9  H   UNL     1       5.774  -4.619  25.233  0.00  0.00    +0.169 HD
ATOM     10  C   UNL     1       6.950  -5.299  26.848  0.00  0.00    +0.173 A 
ATOM     11  S   UNL     1       5.906  -5.317  28.119  0.00  0.00    -0.012 S 
ATOM     12  N   UNL     1       8.278  -5.681  26.857  0.00  0.00    -0.254 N 
ATOM     13  H   UNL     1       8.814  -6.004  27.657  0.00  0.00    +0.191 HD
ATOM     14  N   UNL     1       8.809  -5.556  25.603  0.00  0.00    -0.158 NA
ENDBRANCH   2   7
BRANCH   1  15
ATOM     15  C   UNL     1       9.049  -2.571  23.827  0.00  0.00    +0.309 C 
ATOM     16  O   UNL     1      10.227  -2.839  23.634  0.00  0.00    -0.251 OA
BRANCH  15  17
ATOM     17  O   UNL     1       8.672  -1.641  24.728  0.00  0.00    -0.480 OA
ATOM     18  H   UNL     1       8.042  -0.961  24.388  0.00  0.00    +0.295 HD
ENDBRANCH  15  17
ENDBRANCH   1  15
TORSDOF 3
ENDMDL
MODEL 7
REMARK VINA RESULT:      -5.1      3.418      4.877
REMARK  Name = 
REMARK  3 active torsions:
REMARK  status: ('A' for Active; 'I' for Inactive)
REMARK    1  A    between atoms: C_2  and  C_15
REMARK    2  A    between atoms: C_7  and  C_9
REMARK    3  A    between atoms: C_15  and  O_16
REMARK                            x       y       z     vdW  Elec       q    Type
REMARK                         _______ _______ _______ _____ _____    ______ ____
ROOT
ATOM      1  C   UNL     1       8.935  -0.652  23.286  0.00  0.00    +0.108 C 
ATOM      2  C   UNL     1       7.494  -1.170  23.137  0.00  0.00    +0.070 C 
ATOM      3  C   UNL     1       6.623  -0.704  24.314  0.00  0.00    +0.012 C 
ATOM      4  C   UNL     1       7.247  -1.026  25.672  0.00  0.00    +0.001 C 
ATOM      5  C   UNL     1       8.663  -0.474  25.805  0.00  0.00    +0.001 C 
ATOM      6  C   UNL     1       9.574  -0.899  24.656  0.00  0.00    +0.015 C 
ENDROOT
BRANCH   2   7
ATOM      7  C   UNL     1       7.408  -2.670  23.001  0.00  0.00    +0.133 A 
ATOM      8  N   UNL     1       6.723  -3.237  21.991  0.00  0.00    -0.321 N 
ATOM      9  H   UNL     1       6.263  -2.798  21.209  0.00  0.00    +0.169 HD
ATOM     10  C   UNL     1       6.861  -4.581  22.168  0.00  0.00    +0.173 A 
ATOM     11  S   UNL     1       6.266  -5.770  21.199  0.00  0.00    -0.012 S 
ATOM     12  N   UNL     1       7.609  -4.742  23.319  0.00  0.00    -0.254 N 
ATOM     13  H   UNL     1       7.878  -5.619  23.753  0.00  0.00    +0.191 HD
ATOM     14  N   UNL     1       7.948  -3.520  23.830  0.00  0.00    -0.158 NA
ENDBRANCH   2   7
BRANCH   1  15
ATOM     15  C   UNL     1       9.826  -1.096  22.139  0.00  0.00    +0.309 C 
ATOM     16  O   UNL     1      10.793  -1.827  22.305  0.00  0.00    -0.251 OA
BRANCH  15  17
ATOM     17  O   UNL     1       9.511  -0.603  20.924  0.00  0.00    -0.480 OA
ATOM     18  H   UNL     1      10.021   0.197  20.653  0.00  0.00    +0.295 HD
ENDBRANCH  15  17
ENDBRANCH   1  15
TORSDOF 3
ENDMDL
MODEL 8
REMARK VINA RESULT:      -5.1      4.742      5.836
REMARK  Name = 
REMARK  3 active torsions:
REMARK  status: ('A' for Active; 'I' for Inactive)
REMARK    1  A    between atoms: C_2  and  C_15
REMARK    2  A    between atoms: C_7  and  C_9
REMARK    3  A    between atoms: C_15  and  O_16
REMARK                            x       y       z     vdW  Elec       q    Type
REMARK                         _______ _______ _______ _____ _____    ______ ____
ROOT
ATOM      1  C   UNL     1      10.269   0.727  23.349  0.00  0.00    +0.108 C 
ATOM      2  C   UNL     1       9.267   0.680  24.516  0.00  0.00    +0.070 C 
ATOM      3  C   UNL     1       9.290  -0.696  25.198  0.00  0.00    +0.012 C 
ATOM      4  C   UNL     1       9.123  -1.848  24.206  0.00  0.00    +0.001 C 
ATOM      5  C   UNL     1      10.147  -1.795  23.077  0.00  0.00    +0.001 C 
ATOM      6  C   UNL     1      10.175  -0.444  22.367  0.00  0.00    +0.015 C 
ENDROOT
BRANCH   2   7
ATOM      7  C   UNL     1       7.856   1.024  24.108  0.00  0.00    +0.133 A 
ATOM      8  N   UNL     1       7.042   1.707  24.934  0.00  0.00    -0.321 N 
ATOM      9  H   UNL     1       7.245   2.113  25.834  0.00  0.00    +0.169 HD
ATOM     10  C   UNL     1       5.871   1.849  24.254  0.00  0.00    +0.173 A 
ATOM     11  S   UNL     1       4.524   2.644  24.763  0.00  0.00    -0.012 S 
ATOM     12  N   UNL     1       6.045   1.198  23.048  0.00  0.00    -0.254 N 
ATOM     13  H   UNL     1       5.359   1.090  22.308  0.00  0.00    +0.191 HD
ATOM     14  N   UNL     1       7.311   0.685  22.973  0.00  0.00    -0.158 NA
ENDBRANCH   2   7
BRANCH   1  15
ATOM     15  C   UNL     1      10.272   2.075  22.649  0.00  0.00    +0.309 C 
ATOM     16  O   UNL     1      10.689   3.093  23.187  0.00  0.00    -0.251 OA
BRANCH  15  17
ATOM     17  O   UNL     1       9.748   2.095  21.407  0.00  0.00    -0.480 OA
ATOM     18  H   UNL     1      10.409   2.153  20.676  0.00  0.00    +0.295 HD
ENDBRANCH  15  17
ENDBRANCH   1  15
TORSDOF 3
ENDMDL
MODEL 9
REMARK VINA RESULT:      -5.1      4.553      6.197
REMARK  Name = 
REMARK  3 active torsions:
REMARK  status: ('A' for Active; 'I' for Inactive)
REMARK    1  A    between atoms: C_2  and  C_15
REMARK    2  A    between atoms: C_7  and  C_9
REMARK    3  A    between atoms: C_15  and  O_16
REMARK                            x       y       z     vdW  Elec       q    Type
REMARK                         _______ _______ _______ _____ _____    ______ ____
ROOT
ATOM      1  C   UNL     1       9.089   2.869  23.344  0.00  0.00    +0.108 C 
ATOM      2  C   UNL     1       8.550   2.064  22.148  0.00  0.00    +0.070 C 
ATOM      3  C   UNL     1       7.018   2.151  22.081  0.00  0.00    +0.012 C 
ATOM      4  C   UNL     1       6.348   1.790  23.407  0.00  0.00    +0.001 C 
ATOM      5  C   UNL     1       6.878   2.623  24.570  0.00  0.00    +0.001 C 
ATOM      6  C   UNL     1       8.400   2.582  24.682  0.00  0.00    +0.015 C 
ENDROOT
BRANCH   2   7
ATOM      7  C   UNL     1       8.980   0.619  22.156  0.00  0.00    +0.133 A 
ATOM      8  N   UNL     1       8.999  -0.094  23.297  0.00  0.00    -0.321 N 
ATOM      9  H   UNL     1       8.697   0.175  24.220  0.00  0.00    +0.169 HD
ATOM     10  C   UNL     1       9.420  -1.339  22.941  0.00  0.00    +0.173 A 
ATOM     11  S   UNL     1       9.590  -2.644  23.928  0.00  0.00    -0.012 S 
ATOM     12  N   UNL     1       9.667  -1.288  21.582  0.00  0.00    -0.254 N 
ATOM     13  H   UNL     1      10.016  -2.039  20.996  0.00  0.00    +0.191 HD
ATOM     14  N   UNL     1       9.378  -0.040  21.102  0.00  0.00    -0.158 NA
ENDBRANCH   2   7
BRANCH   1  15
ATOM     15  C   UNL     1      10.604   2.804  23.443  0.00  0.00    +0.309 C 
ATOM     16  O   UNL     1      11.183   1.924  24.066  0.00  0.00    -0.251 OA
BRANCH  15  17
ATOM     17  O   UNL     1      11.276   3.801  22.834  0.00  0.00    -0.480 OA
ATOM     18  H   UNL     1      12.099   3.522  22.363  0.00  0.00    +0.295 HD
ENDBRANCH  15  17
ENDBRANCH   1  15
TORSDOF 3
ENDMDL
