MODEL 1
REMARK VINA RESULT:      -7.5      0.000      0.000
REMARK  Name = 
REMARK  9 active torsions:
REMARK  status: ('A' for Active; 'I' for Inactive)
REMARK    1  A    between atoms: C_2  and  N_3
REMARK    2  A    between atoms: C_2  and  C_4
REMARK    3  A    between atoms: C_2  and  C_11
REMARK    4  A    between atoms: C_11  and  C_13
REMARK    5  A    between atoms: C_11  and  C_17
REMARK    6  A    between atoms: C_13  and  C_14
REMARK    7  A    between atoms: C_19  and  C_22
REMARK    8  A    between atoms: C_25  and  S_29
REMARK    9  A    between atoms: S_29  and  C_30
REMARK                            x       y       z     vdW  Elec       q    Type
REMARK                         _______ _______ _______ _____ _____    ______ ____
ROOT
ATOM      1  C   UNL     1       7.902  -3.387  22.759  0.00  0.00    +0.101 C 
ENDROOT
BRANCH   1   2
ATOM      2  C   UNL     1       8.286  -1.943  22.491  0.00  0.00    +0.233 A 
ATOM      3  O   UNL     1       9.264  -1.744  21.557  0.00  0.00    -0.337 OA
ATOM      4  N   UNL     1       9.484  -0.373  21.480  0.00  0.00    -0.056 NA
ATOM      5  C   UNL     1       8.595   0.151  22.341  0.00  0.00    +0.203 A 
ATOM      6  N   UNL     1       7.844  -0.809  23.002  0.00  0.00    -0.191 NA
BRANCH   5   7
ATOM      7  C   UNL     1       8.468   1.596  22.560  0.00  0.00    +0.041 A 
ATOM      8  C   UNL     1       9.362   2.337  23.354  0.00  0.00    +0.054 A 
ATOM      9 CL   UNL     1      10.705   1.624  24.182  0.00  0.00    -0.083 Cl
ATOM     10  C   UNL     1       9.173   3.716  23.557  0.00  0.00    +0.047 A 
ATOM     11  C   UNL     1       8.095   4.373  22.964  0.00  0.00    +0.089 A 
ATOM     12  C   UNL     1       7.179   3.660  22.192  0.00  0.00    +0.028 A 
ATOM     13  C   UNL     1       7.371   2.285  21.991  0.00  0.00    +0.015 A 
BRANCH  11  14
ATOM     14  S   UNL     1       7.836   6.106  23.289  0.00  0.00    -0.006 S 
ATOM     15  O   UNL     1       9.145   6.727  23.372  0.00  0.00    -0.170 OA
ATOM     16  O   UNL     1       6.895   6.207  24.387  0.00  0.00    -0.170 OA
ATOM     17  C   UNL     1       7.038   6.697  21.820  0.00  0.00    +0.200 C 
ENDBRANCH  11  14
ENDBRANCH   5   7
ENDBRANCH   1   2
BRANCH   1  18
ATOM     18  C   UNL     1       6.572  -3.769  22.036  0.00  0.00    +0.122 C 
BRANCH  18  19
ATOM     19  C   UNL     1       5.992  -5.105  22.484  0.00  0.00    +0.117 C 
ATOM     20  C   UNL     1       5.145  -5.340  23.500  0.00  0.00    -0.037 C 
ATOM     21  C   UNL     1       4.683  -6.731  23.865  0.00  0.00    +0.033 C 
ATOM     22  C   UNL     1       4.269  -6.621  25.331  0.00  0.00    +0.005 C 
ATOM     23  C   UNL     1       4.707  -5.231  25.779  0.00  0.00    +0.005 C 
ATOM     24  C   UNL     1       4.623  -4.379  24.520  0.00  0.00    +0.033 C 
ATOM     25  F   UNL     1       6.416  -6.209  21.811  0.00  0.00    -0.209 F 
ENDBRANCH  18  19
BRANCH  18  26
ATOM     26  N   UNL     1       5.540  -2.720  22.181  0.00  0.00    -0.321 NA
ATOM     27  H   UNL     1       5.051  -2.633  21.287  0.00  0.00    +0.119 HD
ATOM     28  H   UNL     1       4.842  -3.037  22.855  0.00  0.00    +0.119 HD
ENDBRANCH  18  26
ENDBRANCH   1  18
BRANCH   1  29
ATOM     29  C   UNL     1       7.941  -3.634  24.294  0.00  0.00    +0.018 C 
BRANCH  29  30
ATOM     30  C   UNL     1       8.565  -4.924  24.745  0.00  0.00    -0.010 C 
ATOM     31  C   UNL     1       8.438  -5.375  26.181  0.00  0.00    +0.004 C 
ATOM     32  C   UNL     1       9.780  -4.977  25.646  0.00  0.00    +0.004 C 
ENDBRANCH  29  30
ENDBRANCH   1  29
TORSDOF 8
ENDMDL
MODEL 2
REMARK VINA RESULT:      -7.4      1.614      1.958
REMARK  Name = 
REMARK  9 active torsions:
REMARK  status: ('A' for Active; 'I' for Inactive)
REMARK    1  A    between atoms: C_2  and  N_3
REMARK    2  A    between atoms: C_2  and  C_4
REMARK    3  A    between atoms: C_2  and  C_11
REMARK    4  A    between atoms: C_11  and  C_13
REMARK    5  A    between atoms: C_11  and  C_17
REMARK    6  A    between atoms: C_13  and  C_14
REMARK    7  A    between atoms: C_19  and  C_22
REMARK    8  A    between atoms: C_25  and  S_29
REMARK    9  A    between atoms: S_29  and  C_30
REMARK                            x       y       z     vdW  Elec       q    Type
REMARK                         _______ _______ _______ _____ _____    ______ ____
ROOT
ATOM      1  C   UNL     1       7.269  -3.641  23.430  0.00  0.00    +0.101 C 
ENDROOT
BRANCH   1   2
ATOM      2  C   UNL     1       7.751  -2.267  23.002  0.00  0.00    +0.233 A 
ATOM      3  O   UNL     1       8.696  -2.241  22.014  0.00  0.00    -0.337 OA
ATOM      4  N   UNL     1       9.018  -0.907  21.791  0.00  0.00    -0.056 NA
ATOM      5  C   UNL     1       8.216  -0.230  22.631  0.00  0.00    +0.203 A 
ATOM      6  N   UNL     1       7.425  -1.056  23.415  0.00  0.00    -0.191 NA
BRANCH   5   7
ATOM      7  C   UNL     1       8.214   1.235  22.708  0.00  0.00    +0.041 A 
ATOM      8  C   UNL     1       9.122   1.967  23.495  0.00  0.00    +0.054 A 
ATOM      9 CL   UNL     1      10.335   1.221  24.480  0.00  0.00    -0.083 Cl
ATOM     10  C   UNL     1       9.052   3.370  23.558  0.00  0.00    +0.047 A 
ATOM     11  C   UNL     1       8.082   4.061  22.831  0.00  0.00    +0.089 A 
ATOM     12  C   UNL     1       7.154   3.361  22.062  0.00  0.00    +0.028 A 
ATOM     13  C   UNL     1       7.227   1.961  22.001  0.00  0.00    +0.015 A 
BRANCH  11  14
ATOM     14  S   UNL     1       7.970   5.832  22.978  0.00  0.00    -0.006 S 
ATOM     15  O   UNL     1       7.268   6.318  21.804  0.00  0.00    -0.170 OA
ATOM     16  O   UNL     1       9.291   6.327  23.310  0.00  0.00    -0.170 OA
ATOM     17  C   UNL     1       6.920   6.074  24.386  0.00  0.00    +0.200 C 
ENDBRANCH  11  14
ENDBRANCH   5   7
ENDBRANCH   1   2
BRANCH   1  18
ATOM     18  C   UNL     1       5.926  -4.020  22.727  0.00  0.00    +0.122 C 
BRANCH  18  19
ATOM     19  C   UNL     1       4.696  -3.816  23.604  0.00  0.00    +0.117 C 
ATOM     20  C   UNL     1       3.698  -4.683  23.842  0.00  0.00    -0.037 C 
ATOM     21  C   UNL     1       2.507  -4.332  24.702  0.00  0.00    +0.033 C 
ATOM     22  C   UNL     1       1.409  -5.287  24.238  0.00  0.00    +0.005 C 
ATOM     23  C   UNL     1       1.968  -5.990  23.006  0.00  0.00    +0.005 C 
ATOM     24  C   UNL     1       3.472  -6.033  23.240  0.00  0.00    +0.033 C 
ATOM     25  F   UNL     1       4.556  -2.593  24.182  0.00  0.00    -0.209 F 
ENDBRANCH  18  19
BRANCH  18  26
ATOM     26  N   UNL     1       5.740  -3.290  21.455  0.00  0.00    -0.321 NA
ATOM     27  H   UNL     1       5.507  -2.320  21.680  0.00  0.00    +0.119 HD
ATOM     28  H   UNL     1       6.632  -3.258  20.962  0.00  0.00    +0.119 HD
ENDBRANCH  18  26
ENDBRANCH   1  18
BRANCH   1  29
ATOM     29  C   UNL     1       7.270  -3.706  24.984  0.00  0.00    +0.018 C 
BRANCH  29  30
ATOM     30  C   UNL     1       7.413  -5.073  25.593  0.00  0.00    -0.010 C 
ATOM     31  C   UNL     1       6.297  -5.661  26.422  0.00  0.00    +0.004 C 
ATOM     32  C   UNL     1       7.593  -5.293  27.078  0.00  0.00    +0.004 C 
ENDBRANCH  29  30
ENDBRANCH   1  29
TORSDOF 8
ENDMDL
MODEL 3
REMARK VINA RESULT:      -7.4      4.303      9.268
REMARK  Name = 
REMARK  9 active torsions:
REMARK  status: ('A' for Active; 'I' for Inactive)
REMARK    1  A    between atoms: C_2  and  N_3
REMARK    2  A    between atoms: C_2  and  C_4
REMARK    3  A    between atoms: C_2  and  C_11
REMARK    4  A    between atoms: C_11  and  C_13
REMARK    5  A    between atoms: C_11  and  C_17
REMARK    6  A    between atoms: C_13  and  C_14
REMARK    7  A    between atoms: C_19  and  C_22
REMARK    8  A    between atoms: C_25  and  S_29
REMARK    9  A    between atoms: S_29  and  C_30
REMARK                            x       y       z     vdW  Elec       q    Type
REMARK                         _______ _______ _______ _____ _____    ______ ____
ROOT
ATOM      1  C   UNL     1      10.189   0.576  22.751  0.00  0.00    +0.101 C 
ENDROOT
BRANCH   1   2
ATOM      2  C   UNL     1       9.738  -0.830  23.102  0.00  0.00    +0.233 A 
ATOM      3  O   UNL     1      10.674  -1.816  22.955  0.00  0.00    -0.337 OA
ATOM      4  N   UNL     1      10.062  -3.016  23.298  0.00  0.00    -0.056 NA
ATOM      5  C   UNL     1       8.819  -2.658  23.663  0.00  0.00    +0.203 A 
ATOM      6  N   UNL     1       8.582  -1.298  23.533  0.00  0.00    -0.191 NA
BRANCH   5   7
ATOM      7  C   UNL     1       7.823  -3.631  24.126  0.00  0.00    +0.041 A 
ATOM      8  C   UNL     1       6.682  -3.982  23.380  0.00  0.00    +0.054 A 
ATOM      9 CL   UNL     1       6.312  -3.288  21.838  0.00  0.00    -0.083 Cl
ATOM     10  C   UNL     1       5.743  -4.896  23.888  0.00  0.00    +0.047 A 
ATOM     11  C   UNL     1       5.933  -5.479  25.141  0.00  0.00    +0.089 A 
ATOM     12  C   UNL     1       7.041  -5.133  25.913  0.00  0.00    +0.028 A 
ATOM     13  C   UNL     1       7.977  -4.220  25.403  0.00  0.00    +0.015 A 
BRANCH  11  14
ATOM     14  S   UNL     1       4.697  -6.583  25.794  0.00  0.00    -0.006 S 
ATOM     15  O   UNL     1       5.214  -7.119  27.039  0.00  0.00    -0.170 OA
ATOM     16  O   UNL     1       4.289  -7.465  24.718  0.00  0.00    -0.170 OA
ATOM     17  C   UNL     1       3.336  -5.514  26.178  0.00  0.00    +0.200 C 
ENDBRANCH  11  14
ENDBRANCH   5   7
ENDBRANCH   1   2
BRANCH   1  18
ATOM     18  C   UNL     1      10.725   1.334  24.007  0.00  0.00    +0.122 C 
BRANCH  18  19
ATOM     19  C   UNL     1      10.073   2.694  24.227  0.00  0.00    +0.117 C 
ATOM     20  C   UNL     1      10.500   3.895  23.802  0.00  0.00    -0.037 C 
ATOM     21  C   UNL     1       9.775   5.177  24.134  0.00  0.00    +0.033 C 
ATOM     22  C   UNL     1      10.842   6.262  24.001  0.00  0.00    +0.005 C 
ATOM     23  C   UNL     1      12.159   5.521  23.801  0.00  0.00    +0.005 C 
ATOM     24  C   UNL     1      11.770   4.234  23.088  0.00  0.00    +0.033 C 
ATOM     25  F   UNL     1       8.947   2.713  24.990  0.00  0.00    -0.209 F 
ENDBRANCH  18  19
BRANCH  18  26
ATOM     26  N   UNL     1      10.595   0.529  25.240  0.00  0.00    -0.321 NA
ATOM     27  H   UNL     1      11.524   0.180  25.487  0.00  0.00    +0.119 HD
ATOM     28  H   UNL     1      10.311   1.143  26.004  0.00  0.00    +0.119 HD
ENDBRANCH  18  26
ENDBRANCH   1  18
BRANCH   1  29
ATOM     29  C   UNL     1       9.048   1.281  21.963  0.00  0.00    +0.018 C 
BRANCH  29  30
ATOM     30  C   UNL     1       7.861   1.729  22.768  0.00  0.00    -0.010 C 
ATOM     31  C   UNL     1       6.459   1.421  22.299  0.00  0.00    +0.004 C 
ATOM     32  C   UNL     1       6.938   2.840  22.318  0.00  0.00    +0.004 C 
ENDBRANCH  29  30
ENDBRANCH   1  29
TORSDOF 8
ENDMDL
MODEL 4
REMARK VINA RESULT:      -7.2      2.148      2.814
REMARK  Name = 
REMARK  9 active torsions:
REMARK  status: ('A' for Active; 'I' for Inactive)
REMARK    1  A    between atoms: C_2  and  N_3
REMARK    2  A    between atoms: C_2  and  C_4
REMARK    3  A    between atoms: C_2  and  C_11
REMARK    4  A    between atoms: C_11  and  C_13
REMARK    5  A    between atoms: C_11  and  C_17
REMARK    6  A    between atoms: C_13  and  C_14
REMARK    7  A    between atoms: C_19  and  C_22
REMARK    8  A    between atoms: C_25  and  S_29
REMARK    9  A    between atoms: S_29  and  C_30
REMARK                            x       y       z     vdW  Elec       q    Type
REMARK                         _______ _______ _______ _____ _____    ______ ____
ROOT
ATOM      1  C   UNL     1       6.666  -3.275  23.789  0.00  0.00    +0.101 C 
ENDROOT
BRANCH   1   2
ATOM      2  C   UNL     1       7.501  -2.031  24.025  0.00  0.00    +0.233 A 
ATOM      3  O   UNL     1       8.752  -2.235  24.539  0.00  0.00    -0.337 OA
ATOM      4  N   UNL     1       9.335  -0.984  24.704  0.00  0.00    -0.056 NA
ATOM      5  C   UNL     1       8.411  -0.126  24.241  0.00  0.00    +0.203 A 
ATOM      6  N   UNL     1       7.245  -0.752  23.827  0.00  0.00    -0.191 NA
BRANCH   5   7
ATOM      7  C   UNL     1       8.627   1.325  24.210  0.00  0.00    +0.041 A 
ATOM      8  C   UNL     1       9.345   1.976  23.190  0.00  0.00    +0.054 A 
ATOM      9 CL   UNL     1      10.074   1.136  21.863  0.00  0.00    -0.083 Cl
ATOM     10  C   UNL     1       9.551   3.366  23.229  0.00  0.00    +0.047 A 
ATOM     11  C   UNL     1       9.035   4.125  24.280  0.00  0.00    +0.089 A 
ATOM     12  C   UNL     1       8.341   3.504  25.317  0.00  0.00    +0.028 A 
ATOM     13  C   UNL     1       8.138   2.117  25.275  0.00  0.00    +0.015 A 
BRANCH  11  14
ATOM     14  S   UNL     1       9.365   5.875  24.344  0.00  0.00    -0.006 S 
ATOM     15  O   UNL     1       9.175   6.298  25.719  0.00  0.00    -0.170 OA
ATOM     16  O   UNL     1       8.622   6.498  23.266  0.00  0.00    -0.170 OA
ATOM     17  C   UNL     1      11.093   5.994  23.965  0.00  0.00    +0.200 C 
ENDBRANCH  11  14
ENDBRANCH   5   7
ENDBRANCH   1   2
BRANCH   1  18
ATOM     18  C   UNL     1       5.648  -3.510  24.950  0.00  0.00    +0.122 C 
BRANCH  18  19
ATOM     19  C   UNL     1       5.324  -4.980  25.195  0.00  0.00    +0.117 C 
ATOM     20  C   UNL     1       4.369  -5.724  24.612  0.00  0.00    -0.037 C 
ATOM     21  C   UNL     1       4.126  -7.167  24.984  0.00  0.00    +0.033 C 
ATOM     22  C   UNL     1       2.677  -7.426  24.575  0.00  0.00    +0.005 C 
ATOM     23  C   UNL     1       2.113  -6.066  24.180  0.00  0.00    +0.005 C 
ATOM     24  C   UNL     1       3.311  -5.293  23.647  0.00  0.00    +0.033 C 
ATOM     25  F   UNL     1       6.051  -5.612  26.155  0.00  0.00    -0.209 F 
ENDBRANCH  18  19
BRANCH  18  26
ATOM     26  N   UNL     1       6.101  -2.897  26.217  0.00  0.00    -0.321 NA
ATOM     27  H   UNL     1       5.645  -1.986  26.306  0.00  0.00    +0.119 HD
ATOM     28  H   UNL     1       5.758  -3.461  26.995  0.00  0.00    +0.119 HD
ENDBRANCH  18  26
ENDBRANCH   1  18
BRANCH   1  29
ATOM     29  C   UNL     1       7.620  -4.461  23.466  0.00  0.00    +0.018 C 
BRANCH  29  30
ATOM     30  C   UNL     1       7.477  -5.079  22.104  0.00  0.00    -0.010 C 
ATOM     31  C   UNL     1       6.140  -5.085  21.404  0.00  0.00    +0.004 C 
ATOM     32  C   UNL     1       6.740  -6.378  21.867  0.00  0.00    +0.004 C 
ENDBRANCH  29  30
ENDBRANCH   1  29
TORSDOF 8
ENDMDL
MODEL 5
REMARK VINA RESULT:      -7.2      4.283      9.541
REMARK  Name = 
REMARK  9 active torsions:
REMARK  status: ('A' for Active; 'I' for Inactive)
REMARK    1  A    between atoms: C_2  and  N_3
REMARK    2  A    between atoms: C_2  and  C_4
REMARK    3  A    between atoms: C_2  and  C_11
REMARK    4  A    between atoms: C_11  and  C_13
REMARK    5  A    between atoms: C_11  and  C_17
REMARK    6  A    between atoms: C_13  and  C_14
REMARK    7  A    between atoms: C_19  and  C_22
REMARK    8  A    between atoms: C_25  and  S_29
REMARK    9  A    between atoms: S_29  and  C_30
REMARK                            x       y       z     vdW  Elec       q    Type
REMARK                         _______ _______ _______ _____ _____    ______ ____
ROOT
ATOM      1  C   UNL     1       8.561   1.545  22.791  0.00  0.00    +0.101 C 
ENDROOT
BRANCH   1   2
ATOM      2  C   UNL     1       8.251   0.066  22.924  0.00  0.00    +0.233 A 
ATOM      3  O   UNL     1       8.951  -0.772  22.100  0.00  0.00    -0.337 OA
ATOM      4  N   UNL     1       8.506  -2.063  22.357  0.00  0.00    -0.056 NA
ATOM      5  C   UNL     1       7.604  -1.911  23.341  0.00  0.00    +0.203 A 
ATOM      6  N   UNL     1       7.410  -0.587  23.704  0.00  0.00    -0.191 NA
BRANCH   5   7
ATOM      7  C   UNL     1       6.890  -3.046  23.938  0.00  0.00    +0.041 A 
ATOM      8  C   UNL     1       7.520  -4.021  24.732  0.00  0.00    +0.054 A 
ATOM      9 CL   UNL     1       9.217  -4.007  25.078  0.00  0.00    -0.083 Cl
ATOM     10  C   UNL     1       6.793  -5.107  25.252  0.00  0.00    +0.047 A 
ATOM     11  C   UNL     1       5.427  -5.228  24.994  0.00  0.00    +0.089 A 
ATOM     12  C   UNL     1       4.781  -4.289  24.191  0.00  0.00    +0.028 A 
ATOM     13  C   UNL     1       5.510  -3.208  23.674  0.00  0.00    +0.015 A 
BRANCH  11  14
ATOM     14  S   UNL     1       4.540  -6.646  25.606  0.00  0.00    -0.006 S 
ATOM     15  O   UNL     1       5.198  -7.070  26.828  0.00  0.00    -0.170 OA
ATOM     16  O   UNL     1       4.369  -7.564  24.498  0.00  0.00    -0.170 OA
ATOM     17  C   UNL     1       2.948  -5.995  26.037  0.00  0.00    +0.200 C 
ENDBRANCH  11  14
ENDBRANCH   5   7
ENDBRANCH   1   2
BRANCH   1  18
ATOM     18  C   UNL     1       9.845   1.934  23.591  0.00  0.00    +0.122 C 
BRANCH  18  19
ATOM     19  C   UNL     1       9.822   3.359  24.134  0.00  0.00    +0.117 C 
ATOM     20  C   UNL     1      10.612   4.389  23.786  0.00  0.00    -0.037 C 
ATOM     21  C   UNL     1      10.510   5.745  24.442  0.00  0.00    +0.033 C 
ATOM     22  C   UNL     1      11.881   6.380  24.216  0.00  0.00    +0.005 C 
ATOM     23  C   UNL     1      12.752   5.277  23.624  0.00  0.00    +0.005 C 
ATOM     24  C   UNL     1      11.781   4.394  22.853  0.00  0.00    +0.033 C 
ATOM     25  F   UNL     1       8.931   3.617  25.128  0.00  0.00    -0.209 F 
ENDBRANCH  18  19
BRANCH  18  26
ATOM     26  N   UNL     1      10.112   0.997  24.703  0.00  0.00    -0.321 NA
ATOM     27  H   UNL     1       9.531   1.278  25.497  0.00  0.00    +0.119 HD
ATOM     28  H   UNL     1       9.789   0.068  24.433  0.00  0.00    +0.119 HD
ENDBRANCH  18  26
ENDBRANCH   1  18
BRANCH   1  29
ATOM     29  C   UNL     1       7.275   2.354  23.127  0.00  0.00    +0.018 C 
BRANCH  29  30
ATOM     30  C   UNL     1       6.841   3.368  22.106  0.00  0.00    -0.010 C 
ATOM     31  C   UNL     1       7.199   4.824  22.274  0.00  0.00    +0.004 C 
ATOM     32  C   UNL     1       5.767   4.397  22.379  0.00  0.00    +0.004 C 
ENDBRANCH  29  30
ENDBRANCH   1  29
TORSDOF 8
ENDMDL
MODEL 6
REMARK VINA RESULT:      -7.0      2.469      3.459
REMARK  Name = 
REMARK  9 active torsions:
REMARK  status: ('A' for Active; 'I' for Inactive)
REMARK    1  A    between atoms: C_2  and  N_3
REMARK    2  A    between atoms: C_2  and  C_4
REMARK    3  A    between atoms: C_2  and  C_11
REMARK    4  A    between atoms: C_11  and  C_13
REMARK    5  A    between atoms: C_11  and  C_17
REMARK    6  A    between atoms: C_13  and  C_14
REMARK    7  A    between atoms: C_19  and  C_22
REMARK    8  A    between atoms: C_25  and  S_29
REMARK    9  A    between atoms: S_29  and  C_30
REMARK                            x       y       z     vdW  Elec       q    Type
REMARK                         _______ _______ _______ _____ _____    ______ ____
ROOT
ATOM      1  C   UNL     1       7.272  -4.348  24.457  0.00  0.00    +0.101 C 
ENDROOT
BRANCH   1   2
ATOM      2  C   UNL     1       8.059  -3.053  24.376  0.00  0.00    +0.233 A 
ATOM      3  O   UNL     1       9.417  -3.179  24.282  0.00  0.00    -0.337 OA
ATOM      4  N   UNL     1       9.945  -1.894  24.246  0.00  0.00    -0.056 NA
ATOM      5  C   UNL     1       8.866  -1.093  24.281  0.00  0.00    +0.203 A 
ATOM      6  N   UNL     1       7.673  -1.791  24.380  0.00  0.00    -0.191 NA
BRANCH   5   7
ATOM      7  C   UNL     1       8.969   0.370  24.240  0.00  0.00    +0.041 A 
ATOM      8  C   UNL     1       8.378   1.211  25.200  0.00  0.00    +0.054 A 
ATOM      9 CL   UNL     1       7.442   0.617  26.530  0.00  0.00    -0.083 Cl
ATOM     10  C   UNL     1       8.480   2.610  25.092  0.00  0.00    +0.047 A 
ATOM     11  C   UNL     1       9.181   3.185  24.032  0.00  0.00    +0.089 A 
ATOM     12  C   UNL     1       9.756   2.377  23.053  0.00  0.00    +0.028 A 
ATOM     13  C   UNL     1       9.652   0.983  23.163  0.00  0.00    +0.015 A 
BRANCH  11  14
ATOM     14  S   UNL     1       9.240   4.959  23.879  0.00  0.00    -0.006 S 
ATOM     15  O   UNL     1       8.201   5.345  22.943  0.00  0.00    -0.170 OA
ATOM     16  O   UNL     1      10.622   5.330  23.647  0.00  0.00    -0.170 OA
ATOM     17  C   UNL     1       8.775   5.539  25.488  0.00  0.00    +0.200 C 
ENDBRANCH  11  14
ENDBRANCH   5   7
ENDBRANCH   1   2
BRANCH   1  18
ATOM     18  C   UNL     1       7.234  -4.904  25.916  0.00  0.00    +0.122 C 
BRANCH  18  19
ATOM     19  C   UNL     1       5.975  -5.701  26.237  0.00  0.00    +0.117 C 
ATOM     20  C   UNL     1       5.316  -5.770  27.405  0.00  0.00    -0.037 C 
ATOM     21  C   UNL     1       4.098  -6.642  27.598  0.00  0.00    +0.033 C 
ATOM     22  C   UNL     1       4.041  -6.888  29.105  0.00  0.00    +0.005 C 
ATOM     23  C   UNL     1       5.339  -6.314  29.664  0.00  0.00    +0.005 C 
ATOM     24  C   UNL     1       5.688  -5.169  28.723  0.00  0.00    +0.033 C 
ATOM     25  F   UNL     1       5.478  -6.481  25.240  0.00  0.00    -0.209 F 
ENDBRANCH  18  19
BRANCH  18  26
ATOM     26  N   UNL     1       8.421  -5.728  26.228  0.00  0.00    -0.321 NA
ATOM     27  H   UNL     1       8.485  -5.815  27.245  0.00  0.00    +0.119 HD
ATOM     28  H   UNL     1       8.268  -6.672  25.873  0.00  0.00    +0.119 HD
ENDBRANCH  18  26
ENDBRANCH   1  18
BRANCH   1  29
ATOM     29  C   UNL     1       7.807  -5.323  23.369  0.00  0.00    +0.018 C 
BRANCH  29  30
ATOM     30  C   UNL     1       7.267  -5.131  21.980  0.00  0.00    -0.010 C 
ATOM     31  C   UNL     1       5.886  -4.561  21.768  0.00  0.00    +0.004 C 
ATOM     32  C   UNL     1       6.160  -5.988  21.405  0.00  0.00    +0.004 C 
ENDBRANCH  29  30
ENDBRANCH   1  29
TORSDOF 8
ENDMDL
MODEL 7
REMARK VINA RESULT:      -6.9      5.220      9.503
REMARK  Name = 
REMARK  9 active torsions:
REMARK  status: ('A' for Active; 'I' for Inactive)
REMARK    1  A    between atoms: C_2  and  N_3
REMARK    2  A    between atoms: C_2  and  C_4
REMARK    3  A    between atoms: C_2  and  C_11
REMARK    4  A    between atoms: C_11  and  C_13
REMARK    5  A    between atoms: C_11  and  C_17
REMARK    6  A    between atoms: C_13  and  C_14
REMARK    7  A    between atoms: C_19  and  C_22
REMARK    8  A    between atoms: C_25  and  S_29
REMARK    9  A    between atoms: S_29  and  C_30
REMARK                            x       y       z     vdW  Elec       q    Type
REMARK                         _______ _______ _______ _____ _____    ______ ____
ROOT
ATOM      1  C   UNL     1       8.754  -2.174  24.404  0.00  0.00    +0.101 C 
ENDROOT
BRANCH   1   2
ATOM      2  C   UNL     1       7.974  -3.416  24.794  0.00  0.00    +0.233 A 
ATOM      3  O   UNL     1       8.583  -4.252  25.688  0.00  0.00    -0.337 OA
ATOM      4  N   UNL     1       7.726  -5.328  25.890  0.00  0.00    -0.056 NA
ATOM      5  C   UNL     1       6.652  -5.040  25.136  0.00  0.00    +0.203 A 
ATOM      6  N   UNL     1       6.787  -3.857  24.424  0.00  0.00    -0.191 NA
BRANCH   5   7
ATOM      7  C   UNL     1       5.477  -5.916  25.070  0.00  0.00    +0.041 A 
ATOM      8  C   UNL     1       4.915  -6.363  23.860  0.00  0.00    +0.054 A 
ATOM      9 CL   UNL     1       5.534  -5.913  22.307  0.00  0.00    -0.083 Cl
ATOM     10  C   UNL     1       3.767  -7.175  23.856  0.00  0.00    +0.047 A 
ATOM     11  C   UNL     1       3.171  -7.559  25.058  0.00  0.00    +0.089 A 
ATOM     12  C   UNL     1       3.692  -7.111  26.271  0.00  0.00    +0.028 A 
ATOM     13  C   UNL     1       4.837  -6.301  26.271  0.00  0.00    +0.015 A 
BRANCH  11  14
ATOM     14  S   UNL     1       1.679  -8.532  25.027  0.00  0.00    -0.006 S 
ATOM     15  O   UNL     1       0.770  -7.955  25.999  0.00  0.00    -0.170 OA
ATOM     16  O   UNL     1       2.067  -9.926  25.109  0.00  0.00    -0.170 OA
ATOM     17  C   UNL     1       1.015  -8.236  23.410  0.00  0.00    +0.200 C 
ENDBRANCH  11  14
ENDBRANCH   5   7
ENDBRANCH   1   2
BRANCH   1  18
ATOM     18  C   UNL     1       8.955  -1.218  25.623  0.00  0.00    +0.122 C 
BRANCH  18  19
ATOM     19  C   UNL     1       9.424   0.180  25.236  0.00  0.00    +0.117 C 
ATOM     20  C   UNL     1       8.672   1.236  24.884  0.00  0.00    -0.037 C 
ATOM     21  C   UNL     1       9.274   2.560  24.477  0.00  0.00    +0.033 C 
ATOM     22  C   UNL     1       8.192   3.224  23.628  0.00  0.00    +0.005 C 
ATOM     23  C   UNL     1       7.116   2.162  23.429  0.00  0.00    +0.005 C 
ATOM     24  C   UNL     1       7.192   1.300  24.681  0.00  0.00    +0.033 C 
ATOM     25  F   UNL     1      10.769   0.380  25.190  0.00  0.00    -0.209 F 
ENDBRANCH  18  19
BRANCH  18  26
ATOM     26  N   UNL     1       7.735  -1.109  26.449  0.00  0.00    -0.321 NA
ATOM     27  H   UNL     1       8.021  -1.087  27.431  0.00  0.00    +0.119 HD
ATOM     28  H   UNL     1       7.294  -0.208  26.265  0.00  0.00    +0.119 HD
ENDBRANCH  18  26
ENDBRANCH   1  18
BRANCH   1  29
ATOM     29  C   UNL     1       8.090  -1.545  23.145  0.00  0.00    +0.018 C 
BRANCH  29  30
ATOM     30  C   UNL     1       8.966  -1.396  21.934  0.00  0.00    -0.010 C 
ATOM     31  C   UNL     1      10.432  -1.067  22.087  0.00  0.00    +0.004 C 
ATOM     32  C   UNL     1       9.508  -0.060  21.474  0.00  0.00    +0.004 C 
ENDBRANCH  29  30
ENDBRANCH   1  29
TORSDOF 8
ENDMDL
MODEL 8
REMARK VINA RESULT:      -6.9      2.707      3.998
REMARK  Name = 
REMARK  9 active torsions:
REMARK  status: ('A' for Active; 'I' for Inactive)
REMARK    1  A    between atoms: C_2  and  N_3
REMARK    2  A    between atoms: C_2  and  C_4
REMARK    3  A    between atoms: C_2  and  C_11
REMARK    4  A    between atoms: C_11  and  C_13
REMARK    5  A    between atoms: C_11  and  C_17
REMARK    6  A    between atoms: C_13  and  C_14
REMARK    7  A    between atoms: C_19  and  C_22
REMARK    8  A    between atoms: C_25  and  S_29
REMARK    9  A    between atoms: S_29  and  C_30
REMARK                            x       y       z     vdW  Elec       q    Type
REMARK                         _______ _______ _______ _____ _____    ______ ____
ROOT
ATOM      1  C   UNL     1       6.061  -5.913  24.854  0.00  0.00    +0.101 C 
ENDROOT
BRANCH   1   2
ATOM      2  C   UNL     1       6.982  -4.737  24.586  0.00  0.00    +0.233 A 
ATOM      3  O   UNL     1       8.268  -5.046  24.242  0.00  0.00    -0.337 OA
ATOM      4  N   UNL     1       8.945  -3.844  24.068  0.00  0.00    -0.056 NA
ATOM      5  C   UNL     1       8.008  -2.905  24.280  0.00  0.00    +0.203 A 
ATOM      6  N   UNL     1       6.774  -3.434  24.625  0.00  0.00    -0.191 NA
BRANCH   5   7
ATOM      7  C   UNL     1       8.293  -1.469  24.176  0.00  0.00    +0.041 A 
ATOM      8  C   UNL     1       8.646  -0.671  25.280  0.00  0.00    +0.054 A 
ATOM      9 CL   UNL     1       8.763  -1.287  26.893  0.00  0.00    -0.083 Cl
ATOM     10  C   UNL     1       8.875   0.708  25.127  0.00  0.00    +0.047 A 
ATOM     11  C   UNL     1       8.765   1.306  23.871  0.00  0.00    +0.089 A 
ATOM     12  C   UNL     1       8.394   0.544  22.764  0.00  0.00    +0.028 A 
ATOM     13  C   UNL     1       8.165  -0.831  22.920  0.00  0.00    +0.015 A 
BRANCH  11  14
ATOM     14  S   UNL     1       8.994   3.065  23.712  0.00  0.00    -0.006 S 
ATOM     15  O   UNL     1       8.709   3.654  25.008  0.00  0.00    -0.170 OA
ATOM     16  O   UNL     1       8.276   3.493  22.528  0.00  0.00    -0.170 OA
ATOM     17  C   UNL     1      10.730   3.239  23.399  0.00  0.00    +0.200 C 
ENDBRANCH  11  14
ENDBRANCH   5   7
ENDBRANCH   1   2
BRANCH   1  18
ATOM     18  C   UNL     1       5.303  -6.352  23.561  0.00  0.00    +0.122 C 
BRANCH  18  19
ATOM     19  C   UNL     1       3.978  -5.629  23.351  0.00  0.00    +0.117 C 
ATOM     20  C   UNL     1       2.737  -6.142  23.416  0.00  0.00    -0.037 C 
ATOM     21  C   UNL     1       1.504  -5.316  23.140  0.00  0.00    +0.033 C 
ATOM     22  C   UNL     1       0.443  -6.341  22.741  0.00  0.00    +0.005 C 
ATOM     23  C   UNL     1       1.181  -7.669  22.615  0.00  0.00    +0.005 C 
ATOM     24  C   UNL     1       2.326  -7.567  23.612  0.00  0.00    +0.033 C 
ATOM     25  F   UNL     1       4.048  -4.316  23.006  0.00  0.00    -0.209 F 
ENDBRANCH  18  19
BRANCH  18  26
ATOM     26  N   UNL     1       6.137  -6.196  22.349  0.00  0.00    -0.321 NA
ATOM     27  H   UNL     1       7.012  -5.744  22.626  0.00  0.00    +0.119 HD
ATOM     28  H   UNL     1       6.393  -7.122  22.007  0.00  0.00    +0.119 HD
ENDBRANCH  18  26
ENDBRANCH   1  18
BRANCH   1  29
ATOM     29  C   UNL     1       5.173  -5.578  26.087  0.00  0.00    +0.018 C 
BRANCH  29  30
ATOM     30  C   UNL     1       4.517  -6.744  26.771  0.00  0.00    -0.010 C 
ATOM     31  C   UNL     1       3.068  -6.671  27.186  0.00  0.00    +0.004 C 
ATOM     32  C   UNL     1       4.137  -6.726  28.235  0.00  0.00    +0.004 C 
ENDBRANCH  29  30
ENDBRANCH   1  29
TORSDOF 8
ENDMDL
MODEL 9
REMARK VINA RESULT:      -6.8      4.618      8.825
REMARK  Name = 
REMARK  9 active torsions:
REMARK  status: ('A' for Active; 'I' for Inactive)
REMARK    1  A    between atoms: C_2  and  N_3
REMARK    2  A    between atoms: C_2  and  C_4
REMARK    3  A    between atoms: C_2  and  C_11
REMARK    4  A    between atoms: C_11  and  C_13
REMARK    5  A    between atoms: C_11  and  C_17
REMARK    6  A    between atoms: C_13  and  C_14
REMARK    7  A    between atoms: C_19  and  C_22
REMARK    8  A    between atoms: C_25  and  S_29
REMARK    9  A    between atoms: S_29  and  C_30
REMARK                            x       y       z     vdW  Elec       q    Type
REMARK                         _______ _______ _______ _____ _____    ______ ____
ROOT
ATOM      1  C   UNL     1       9.791  -1.048  24.926  0.00  0.00    +0.101 C 
ENDROOT
BRANCH   1   2
ATOM      2  C   UNL     1       9.037  -2.340  24.668  0.00  0.00    +0.233 A 
ATOM      3  O   UNL     1       9.783  -3.392  24.215  0.00  0.00    -0.337 OA
ATOM      4  N   UNL     1       8.911  -4.457  24.019  0.00  0.00    -0.056 NA
ATOM      5  C   UNL     1       7.716  -3.980  24.406  0.00  0.00    +0.203 A 
ATOM      6  N   UNL     1       7.762  -2.651  24.800  0.00  0.00    -0.191 NA
BRANCH   5   7
ATOM      7  C   UNL     1       6.497  -4.795  24.382  0.00  0.00    +0.041 A 
ATOM      8  C   UNL     1       5.850  -5.180  23.194  0.00  0.00    +0.054 A 
ATOM      9 CL   UNL     1       6.408  -4.717  21.621  0.00  0.00    -0.083 Cl
ATOM     10  C   UNL     1       4.664  -5.934  23.232  0.00  0.00    +0.047 A 
ATOM     11  C   UNL     1       4.114  -6.321  24.454  0.00  0.00    +0.089 A 
ATOM     12  C   UNL     1       4.719  -5.934  25.648  0.00  0.00    +0.028 A 
ATOM     13  C   UNL     1       5.903  -5.182  25.607  0.00  0.00    +0.015 A 
BRANCH  11  14
ATOM     14  S   UNL     1       2.575  -7.219  24.480  0.00  0.00    -0.006 S 
ATOM     15  O   UNL     1       1.730  -6.594  25.481  0.00  0.00    -0.170 OA
ATOM     16  O   UNL     1       2.895  -8.631  24.555  0.00  0.00    -0.170 OA
ATOM     17  C   UNL     1       1.870  -6.895  22.886  0.00  0.00    +0.200 C 
ENDBRANCH  11  14
ENDBRANCH   5   7
ENDBRANCH   1   2
BRANCH   1  18
ATOM     18  C   UNL     1       9.006  -0.112  25.898  0.00  0.00    +0.122 C 
BRANCH  18  19
ATOM     19  C   UNL     1       7.873   0.657  25.228  0.00  0.00    +0.117 C 
ATOM     20  C   UNL     1       7.914   1.887  24.688  0.00  0.00    -0.037 C 
ATOM     21  C   UNL     1       6.695   2.552  24.094  0.00  0.00    +0.033 C 
ATOM     22  C   UNL     1       7.009   4.046  24.158  0.00  0.00    +0.005 C 
ATOM     23  C   UNL     1       8.296   4.161  24.968  0.00  0.00    +0.005 C 
ATOM     24  C   UNL     1       9.044   2.866  24.685  0.00  0.00    +0.033 C 
ATOM     25  F   UNL     1       6.654   0.055  25.215  0.00  0.00    -0.209 F 
ENDBRANCH  18  19
BRANCH  18  26
ATOM     26  N   UNL     1       8.470  -0.845  27.064  0.00  0.00    -0.321 NA
ATOM     27  H   UNL     1       7.556  -1.222  26.805  0.00  0.00    +0.119 HD
ATOM     28  H   UNL     1       9.067  -1.653  27.245  0.00  0.00    +0.119 HD
ENDBRANCH  18  26
ENDBRANCH   1  18
BRANCH   1  29
ATOM     29  C   UNL     1      10.196  -0.428  23.557  0.00  0.00    +0.018 C 
BRANCH  29  30
ATOM     30  C   UNL     1       9.138  -0.421  22.491  0.00  0.00    -0.010 C 
ATOM     31  C   UNL     1       9.490  -0.752  21.061  0.00  0.00    +0.004 C 
ATOM     32  C   UNL     1       9.066   0.641  21.415  0.00  0.00    +0.004 C 
ENDBRANCH  29  30
ENDBRANCH   1  29
TORSDOF 8
ENDMDL
