MODEL 1
REMARK VINA RESULT:      -7.5      0.000      0.000
REMARK  Name = 
REMARK  9 active torsions:
REMARK  status: ('A' for Active; 'I' for Inactive)
REMARK    1  A    between atoms: C_1  and  C_2
REMARK    2  A    between atoms: C_2  and  C_3
REMARK    3  A    between atoms: C_4  and  C_5
REMARK    4  A    between atoms: C_5  and  C_7
REMARK    5  A    between atoms: C_11  and  O_12
REMARK    6  A    between atoms: C_20  and  S_23
REMARK    7  A    between atoms: S_23  and  N_26
REMARK    8  A    between atoms: N_26  and  C_27
REMARK    9  A    between atoms: N_26  and  C_28
REMARK                            x       y       z     vdW  Elec       q    Type
REMARK                         _______ _______ _______ _____ _____    ______ ____
ROOT
ATOM      1  C   UNL     1       7.709  -4.433  22.999  0.00  0.00    +0.117 A 
ATOM      2  O   UNL     1       7.937  -3.339  22.216  0.00  0.00    -0.459 OA
ATOM      3  C   UNL     1       8.319  -2.324  23.034  0.00  0.00    +0.138 A 
ATOM      4  C   UNL     1       8.683  -1.047  22.614  0.00  0.00    +0.075 A 
ATOM      5  C   UNL     1       9.058  -0.152  23.626  0.00  0.00    +0.109 A 
ATOM      6  C   UNL     1       8.948  -0.488  24.979  0.00  0.00    +0.029 A 
ATOM      7  C   UNL     1       8.567  -1.781  25.359  0.00  0.00    +0.014 A 
ATOM      8  C   UNL     1       8.308  -2.747  24.358  0.00  0.00    +0.031 A 
ATOM      9  C   UNL     1       8.043  -4.159  24.320  0.00  0.00    +0.071 A 
ENDROOT
BRANCH   5  10
ATOM     10  S   UNL     1       9.663   1.468  23.178  0.00  0.00    +0.060 S 
ATOM     11  O   UNL     1       9.860   1.473  21.745  0.00  0.00    -0.153 OA
ATOM     12  O   UNL     1      10.744   1.784  24.087  0.00  0.00    -0.153 OA
BRANCH  10  13
ATOM     13  N   UNL     1       8.343   2.480  23.543  0.00  0.00    -0.183 NA
ATOM     14  C   UNL     1       7.689   3.155  22.408  0.00  0.00    +0.131 C 
ATOM     15  C   UNL     1       8.448   3.323  24.745  0.00  0.00    +0.131 C 
ENDBRANCH  10  13
ENDBRANCH   5  10
BRANCH   1  17
ATOM     16  C   UNL     1       6.157  -5.315  21.252  0.00  0.00    +0.012 C 
ATOM     17  C   UNL     1       7.225  -5.648  22.283  0.00  0.00    +0.072 C 
ENDBRANCH   1  17
BRANCH   9  18
ATOM     18  C   UNL     1       8.077  -5.155  25.386  0.00  0.00    +0.197 C 
ATOM     19  O   UNL     1       9.128  -5.663  25.769  0.00  0.00    -0.287 OA
BRANCH  18  20
ATOM     20  C   UNL     1       6.814  -5.576  26.063  0.00  0.00    +0.025 A 
ATOM     21  C   UNL     1       6.762  -5.513  27.463  0.00  0.00    +0.030 A 
ATOM     22  C   UNL     1       5.650  -6.009  28.149  0.00  0.00    +0.061 A 
ATOM     23 BR   UNL     1       5.638  -5.901  30.042  0.00  0.00    -0.046 Br
ATOM     24  C   UNL     1       4.592  -6.589  27.445  0.00  0.00    +0.145 A 
ATOM     25  C   UNL     1       4.609  -6.577  26.048  0.00  0.00    +0.061 A 
ATOM     26 BR   UNL     1       3.195  -7.352  25.049  0.00  0.00    -0.046 Br
ATOM     27  C   UNL     1       5.694  -6.033  25.357  0.00  0.00    +0.030 A 
BRANCH  24  28
ATOM     28  O   UNL     1       3.564  -7.174  28.132  0.00  0.00    -0.505 OA
ATOM     29  H   UNL     1       3.187  -6.519  28.746  0.00  0.00    +0.292 HD
ENDBRANCH  24  28
ENDBRANCH  18  20
ENDBRANCH   9  18
TORSDOF 6
ENDMDL
MODEL 2
REMARK VINA RESULT:      -7.1      2.302      3.462
REMARK  Name = 
REMARK  9 active torsions:
REMARK  status: ('A' for Active; 'I' for Inactive)
REMARK    1  A    between atoms: C_1  and  C_2
REMARK    2  A    between atoms: C_2  and  C_3
REMARK    3  A    between atoms: C_4  and  C_5
REMARK    4  A    between atoms: C_5  and  C_7
REMARK    5  A    between atoms: C_11  and  O_12
REMARK    6  A    between atoms: C_20  and  S_23
REMARK    7  A    between atoms: S_23  and  N_26
REMARK    8  A    between atoms: N_26  and  C_27
REMARK    9  A    between atoms: N_26  and  C_28
REMARK                            x       y       z     vdW  Elec       q    Type
REMARK                         _______ _______ _______ _____ _____    ______ ____
ROOT
ATOM      1  C   UNL     1       6.607  -1.667  26.604  0.00  0.00    +0.117 A 
ATOM      2  O   UNL     1       6.669  -0.373  26.178  0.00  0.00    -0.459 OA
ATOM      3  C   UNL     1       7.801  -0.240  25.440  0.00  0.00    +0.138 A 
ATOM      4  C   UNL     1       8.205   0.925  24.791  0.00  0.00    +0.075 A 
ATOM      5  C   UNL     1       9.404   0.840  24.070  0.00  0.00    +0.109 A 
ATOM      6  C   UNL     1      10.205  -0.306  24.109  0.00  0.00    +0.029 A 
ATOM      7  C   UNL     1       9.765  -1.453  24.784  0.00  0.00    +0.014 A 
ATOM      8  C   UNL     1       8.498  -1.441  25.412  0.00  0.00    +0.031 A 
ATOM      9  C   UNL     1       7.649  -2.405  26.056  0.00  0.00    +0.071 A 
ENDROOT
BRANCH   5  10
ATOM     10  S   UNL     1       9.940   2.242  23.100  0.00  0.00    +0.060 S 
ATOM     11  O   UNL     1      10.005   1.811  21.720  0.00  0.00    -0.153 OA
ATOM     12  O   UNL     1      11.095   2.804  23.767  0.00  0.00    -0.153 OA
BRANCH  10  13
ATOM     13  N   UNL     1       8.643   3.334  23.263  0.00  0.00    -0.183 NA
ATOM     14  C   UNL     1       7.639   3.339  22.184  0.00  0.00    +0.131 C 
ATOM     15  C   UNL     1       8.950   4.675  23.784  0.00  0.00    +0.131 C 
ENDBRANCH  10  13
ENDBRANCH   5  10
BRANCH   1  17
ATOM     16  C   UNL     1       4.164  -2.187  26.689  0.00  0.00    +0.012 C 
ATOM     17  C   UNL     1       5.450  -2.001  27.482  0.00  0.00    +0.072 C 
ENDBRANCH   1  17
BRANCH   9  18
ATOM     18  C   UNL     1       7.784  -3.854  26.173  0.00  0.00    +0.197 C 
ATOM     19  O   UNL     1       8.631  -4.372  26.897  0.00  0.00    -0.287 OA
BRANCH  18  20
ATOM     20  C   UNL     1       6.869  -4.759  25.415  0.00  0.00    +0.025 A 
ATOM     21  C   UNL     1       7.048  -4.869  24.028  0.00  0.00    +0.030 A 
ATOM     22  C   UNL     1       6.145  -5.606  23.258  0.00  0.00    +0.061 A 
ATOM     23 BR   UNL     1       6.435  -5.714  21.387  0.00  0.00    -0.046 Br
ATOM     24  C   UNL     1       5.047  -6.221  23.862  0.00  0.00    +0.145 A 
ATOM     25  C   UNL     1       4.915  -6.179  25.253  0.00  0.00    +0.061 A 
ATOM     26 BR   UNL     1       3.440  -7.001  26.118  0.00  0.00    -0.046 Br
ATOM     27  C   UNL     1       5.846  -5.490  26.032  0.00  0.00    +0.030 A 
BRANCH  24  28
ATOM     28  O   UNL     1       4.107  -6.841  23.084  0.00  0.00    -0.505 OA
ATOM     29  H   UNL     1       4.255  -6.587  22.155  0.00  0.00    +0.292 HD
ENDBRANCH  24  28
ENDBRANCH  18  20
ENDBRANCH   9  18
TORSDOF 6
ENDMDL
MODEL 3
REMARK VINA RESULT:      -7.0      4.608      8.223
REMARK  Name = 
REMARK  9 active torsions:
REMARK  status: ('A' for Active; 'I' for Inactive)
REMARK    1  A    between atoms: C_1  and  C_2
REMARK    2  A    between atoms: C_2  and  C_3
REMARK    3  A    between atoms: C_4  and  C_5
REMARK    4  A    between atoms: C_5  and  C_7
REMARK    5  A    between atoms: C_11  and  O_12
REMARK    6  A    between atoms: C_20  and  S_23
REMARK    7  A    between atoms: S_23  and  N_26
REMARK    8  A    between atoms: N_26  and  C_27
REMARK    9  A    between atoms: N_26  and  C_28
REMARK                            x       y       z     vdW  Elec       q    Type
REMARK                         _______ _______ _______ _____ _____    ______ ____
ROOT
ATOM      1  C   UNL     1       8.831  -1.964  23.018  0.00  0.00    +0.117 A 
ATOM      2  O   UNL     1       8.124  -2.979  22.444  0.00  0.00    -0.459 OA
ATOM      3  C   UNL     1       7.230  -3.425  23.365  0.00  0.00    +0.138 A 
ATOM      4  C   UNL     1       6.290  -4.431  23.151  0.00  0.00    +0.075 A 
ATOM      5  C   UNL     1       5.453  -4.729  24.235  0.00  0.00    +0.109 A 
ATOM      6  C   UNL     1       5.640  -4.139  25.490  0.00  0.00    +0.029 A 
ATOM      7  C   UNL     1       6.605  -3.139  25.664  0.00  0.00    +0.014 A 
ATOM      8  C   UNL     1       7.378  -2.724  24.555  0.00  0.00    +0.031 A 
ATOM      9  C   UNL     1       8.328  -1.680  24.282  0.00  0.00    +0.071 A 
ENDROOT
BRANCH   5  10
ATOM     10  S   UNL     1       4.133  -5.913  24.019  0.00  0.00    +0.060 S 
ATOM     11  O   UNL     1       4.677  -7.222  24.311  0.00  0.00    -0.153 OA
ATOM     12  O   UNL     1       3.508  -5.626  22.746  0.00  0.00    -0.153 OA
BRANCH  10  13
ATOM     13  N   UNL     1       3.043  -5.495  25.259  0.00  0.00    -0.183 NA
ATOM     14  C   UNL     1       2.764  -6.525  26.275  0.00  0.00    +0.131 C 
ATOM     15  C   UNL     1       1.857  -4.710  24.880  0.00  0.00    +0.131 C 
ENDBRANCH  10  13
ENDBRANCH   5  10
BRANCH   1  17
ATOM     16  C   UNL     1       9.385  -0.259  21.278  0.00  0.00    +0.012 C 
ATOM     17  C   UNL     1       9.908  -1.372  22.174  0.00  0.00    +0.072 C 
ENDBRANCH   1  17
BRANCH   9  18
ATOM     18  C   UNL     1       8.746  -0.546  25.101  0.00  0.00    +0.197 C 
ATOM     19  O   UNL     1       9.181  -0.692  26.240  0.00  0.00    -0.287 OA
BRANCH  18  20
ATOM     20  C   UNL     1       8.669   0.843  24.558  0.00  0.00    +0.025 A 
ATOM     21  C   UNL     1       7.412   1.334  24.175  0.00  0.00    +0.030 A 
ATOM     22  C   UNL     1       7.303   2.579  23.550  0.00  0.00    +0.061 A 
ATOM     23 BR   UNL     1       5.578   3.188  23.049  0.00  0.00    -0.046 Br
ATOM     24  C   UNL     1       8.448   3.334  23.285  0.00  0.00    +0.145 A 
ATOM     25  C   UNL     1       9.689   2.881  23.739  0.00  0.00    +0.061 A 
ATOM     26 BR   UNL     1      11.271   3.872  23.404  0.00  0.00    -0.046 Br
ATOM     27  C   UNL     1       9.795   1.662  24.413  0.00  0.00    +0.030 A 
BRANCH  24  28
ATOM     28  O   UNL     1       8.340   4.495  22.570  0.00  0.00    -0.505 OA
ATOM     29  H   UNL     1       9.212   4.931  22.551  0.00  0.00    +0.292 HD
ENDBRANCH  24  28
ENDBRANCH  18  20
ENDBRANCH   9  18
TORSDOF 6
ENDMDL
MODEL 4
REMARK VINA RESULT:      -7.0      4.316      8.016
REMARK  Name = 
REMARK  9 active torsions:
REMARK  status: ('A' for Active; 'I' for Inactive)
REMARK    1  A    between atoms: C_1  and  C_2
REMARK    2  A    between atoms: C_2  and  C_3
REMARK    3  A    between atoms: C_4  and  C_5
REMARK    4  A    between atoms: C_5  and  C_7
REMARK    5  A    between atoms: C_11  and  O_12
REMARK    6  A    between atoms: C_20  and  S_23
REMARK    7  A    between atoms: S_23  and  N_26
REMARK    8  A    between atoms: N_26  and  C_27
REMARK    9  A    between atoms: N_26  and  C_28
REMARK                            x       y       z     vdW  Elec       q    Type
REMARK                         _______ _______ _______ _____ _____    ______ ____
ROOT
ATOM      1  C   UNL     1       9.065  -0.787  22.647  0.00  0.00    +0.117 A 
ATOM      2  O   UNL     1       8.282  -1.894  22.496  0.00  0.00    -0.459 OA
ATOM      3  C   UNL     1       8.082  -2.424  23.730  0.00  0.00    +0.138 A 
ATOM      4  C   UNL     1       7.297  -3.541  24.008  0.00  0.00    +0.075 A 
ATOM      5  C   UNL     1       7.215  -3.914  25.356  0.00  0.00    +0.109 A 
ATOM      6  C   UNL     1       7.978  -3.277  26.341  0.00  0.00    +0.029 A 
ATOM      7  C   UNL     1       8.763  -2.163  26.017  0.00  0.00    +0.014 A 
ATOM      8  C   UNL     1       8.764  -1.682  24.686  0.00  0.00    +0.031 A 
ATOM      9  C   UNL     1       9.292  -0.537  23.995  0.00  0.00    +0.071 A 
ENDROOT
BRANCH   5  10
ATOM     10  S   UNL     1       6.132  -5.254  25.828  0.00  0.00    +0.060 S 
ATOM     11  O   UNL     1       6.842  -6.059  26.798  0.00  0.00    -0.153 OA
ATOM     12  O   UNL     1       5.614  -5.832  24.607  0.00  0.00    -0.153 OA
BRANCH  10  13
ATOM     13  N   UNL     1       4.859  -4.451  26.624  0.00  0.00    -0.183 NA
ATOM     14  C   UNL     1       4.286  -3.275  25.944  0.00  0.00    +0.131 C 
ATOM     15  C   UNL     1       4.968  -4.288  28.082  0.00  0.00    +0.131 C 
ENDBRANCH  10  13
ENDBRANCH   5  10
BRANCH   1  17
ATOM     16  C   UNL     1       8.652   1.196  21.185  0.00  0.00    +0.012 C 
ATOM     17  C   UNL     1       9.443  -0.088  21.386  0.00  0.00    +0.072 C 
ENDBRANCH   1  17
BRANCH   9  18
ATOM     18  C   UNL     1       9.950   0.658  24.514  0.00  0.00    +0.197 C 
ATOM     19  O   UNL     1      11.150   0.676  24.778  0.00  0.00    -0.287 OA
BRANCH  18  20
ATOM     20  C   UNL     1       9.172   1.915  24.724  0.00  0.00    +0.025 A 
ATOM     21  C   UNL     1       9.688   3.108  24.196  0.00  0.00    +0.030 A 
ATOM     22  C   UNL     1       9.062   4.327  24.469  0.00  0.00    +0.061 A 
ATOM     23 BR   UNL     1       9.808   5.907  23.732  0.00  0.00    -0.046 Br
ATOM     24  C   UNL     1       7.929   4.367  25.285  0.00  0.00    +0.145 A 
ATOM     25  C   UNL     1       7.370   3.171  25.743  0.00  0.00    +0.061 A 
ATOM     26 BR   UNL     1       5.832   3.176  26.853  0.00  0.00    -0.046 Br
ATOM     27  C   UNL     1       7.961   1.946  25.427  0.00  0.00    +0.030 A 
BRANCH  24  28
ATOM     28  O   UNL     1       7.394   5.576  25.639  0.00  0.00    -0.505 OA
ATOM     29  H   UNL     1       6.440   5.459  25.800  0.00  0.00    +0.292 HD
ENDBRANCH  24  28
ENDBRANCH  18  20
ENDBRANCH   9  18
TORSDOF 6
ENDMDL
MODEL 5
REMARK VINA RESULT:      -7.0      4.494      8.101
REMARK  Name = 
REMARK  9 active torsions:
REMARK  status: ('A' for Active; 'I' for Inactive)
REMARK    1  A    between atoms: C_1  and  C_2
REMARK    2  A    between atoms: C_2  and  C_3
REMARK    3  A    between atoms: C_4  and  C_5
REMARK    4  A    between atoms: C_5  and  C_7
REMARK    5  A    between atoms: C_11  and  O_12
REMARK    6  A    between atoms: C_20  and  S_23
REMARK    7  A    between atoms: S_23  and  N_26
REMARK    8  A    between atoms: N_26  and  C_27
REMARK    9  A    between atoms: N_26  and  C_28
REMARK                            x       y       z     vdW  Elec       q    Type
REMARK                         _______ _______ _______ _____ _____    ______ ____
ROOT
ATOM      1  C   UNL     1       9.127  -2.321  23.702  0.00  0.00    +0.117 A 
ATOM      2  O   UNL     1       8.521  -3.499  23.375  0.00  0.00    -0.459 OA
ATOM      3  C   UNL     1       7.692  -3.828  24.400  0.00  0.00    +0.138 A 
ATOM      4  C   UNL     1       6.858  -4.944  24.432  0.00  0.00    +0.075 A 
ATOM      5  C   UNL     1       6.072  -5.089  25.583  0.00  0.00    +0.109 A 
ATOM      6  C   UNL     1       6.214  -4.234  26.681  0.00  0.00    +0.029 A 
ATOM      7  C   UNL     1       7.072  -3.129  26.610  0.00  0.00    +0.014 A 
ATOM      8  C   UNL     1       7.782  -2.882  25.412  0.00  0.00    +0.031 A 
ATOM      9  C   UNL     1       8.615  -1.830  24.896  0.00  0.00    +0.071 A 
ENDROOT
BRANCH   5  10
ATOM     10  S   UNL     1       4.879  -6.417  25.664  0.00  0.00    +0.060 S 
ATOM     11  O   UNL     1       5.094  -7.113  26.914  0.00  0.00    -0.153 OA
ATOM     12  O   UNL     1       4.932  -7.114  24.397  0.00  0.00    -0.153 OA
BRANCH  10  13
ATOM     13  N   UNL     1       3.394  -5.587  25.758  0.00  0.00    -0.183 NA
ATOM     14  C   UNL     1       2.216  -6.376  26.159  0.00  0.00    +0.131 C 
ATOM     15  C   UNL     1       3.106  -4.595  24.709  0.00  0.00    +0.131 C 
ENDBRANCH  10  13
ENDBRANCH   5  10
BRANCH   1  17
ATOM     16  C   UNL     1       9.467  -1.047  21.580  0.00  0.00    +0.012 C 
ATOM     17  C   UNL     1      10.125  -1.816  22.716  0.00  0.00    +0.072 C 
ENDBRANCH   1  17
BRANCH   9  18
ATOM     18  C   UNL     1       8.924  -0.514  25.447  0.00  0.00    +0.197 C 
ATOM     19  O   UNL     1       9.337  -0.370  26.595  0.00  0.00    -0.287 OA
BRANCH  18  20
ATOM     20  C   UNL     1       8.758   0.711  24.608  0.00  0.00    +0.025 A 
ATOM     21  C   UNL     1       9.886   1.514  24.382  0.00  0.00    +0.030 A 
ATOM     22  C   UNL     1       9.759   2.731  23.708  0.00  0.00    +0.061 A 
ATOM     23 BR   UNL     1      11.318   3.777  23.437  0.00  0.00    -0.046 Br
ATOM     24  C   UNL     1       8.505   3.165  23.271  0.00  0.00    +0.145 A 
ATOM     25  C   UNL     1       7.398   2.327  23.425  0.00  0.00    +0.061 A 
ATOM     26 BR   UNL     1       5.675   2.872  22.847  0.00  0.00    -0.046 Br
ATOM     27  C   UNL     1       7.530   1.085  24.050  0.00  0.00    +0.030 A 
BRANCH  24  28
ATOM     28  O   UNL     1       8.376   4.409  22.716  0.00  0.00    -0.505 OA
ATOM     29  H   UNL     1       9.229   4.663  22.319  0.00  0.00    +0.292 HD
ENDBRANCH  24  28
ENDBRANCH  18  20
ENDBRANCH   9  18
TORSDOF 6
ENDMDL
MODEL 6
REMARK VINA RESULT:      -6.9      2.327      3.286
REMARK  Name = 
REMARK  9 active torsions:
REMARK  status: ('A' for Active; 'I' for Inactive)
REMARK    1  A    between atoms: C_1  and  C_2
REMARK    2  A    between atoms: C_2  and  C_3
REMARK    3  A    between atoms: C_4  and  C_5
REMARK    4  A    between atoms: C_5  and  C_7
REMARK    5  A    between atoms: C_11  and  O_12
REMARK    6  A    between atoms: C_20  and  S_23
REMARK    7  A    between atoms: S_23  and  N_26
REMARK    8  A    between atoms: N_26  and  C_27
REMARK    9  A    between atoms: N_26  and  C_28
REMARK                            x       y       z     vdW  Elec       q    Type
REMARK                         _______ _______ _______ _____ _____    ______ ____
ROOT
ATOM      1  C   UNL     1       6.593  -1.364  26.663  0.00  0.00    +0.117 A 
ATOM      2  O   UNL     1       6.697  -0.073  26.231  0.00  0.00    -0.459 OA
ATOM      3  C   UNL     1       7.824   0.015  25.477  0.00  0.00    +0.138 A 
ATOM      4  C   UNL     1       8.262   1.161  24.819  0.00  0.00    +0.075 A 
ATOM      5  C   UNL     1       9.447   1.030  24.082  0.00  0.00    +0.109 A 
ATOM      6  C   UNL     1      10.205  -0.146  24.115  0.00  0.00    +0.029 A 
ATOM      7  C   UNL     1       9.732  -1.273  24.799  0.00  0.00    +0.014 A 
ATOM      8  C   UNL     1       8.475  -1.212  25.445  0.00  0.00    +0.031 A 
ATOM      9  C   UNL     1       7.599  -2.142  26.104  0.00  0.00    +0.071 A 
ENDROOT
BRANCH   5  10
ATOM     10  S   UNL     1      10.022   2.407  23.100  0.00  0.00    +0.060 S 
ATOM     11  O   UNL     1      10.020   1.980  21.717  0.00  0.00    -0.153 OA
ATOM     12  O   UNL     1      11.224   2.907  23.730  0.00  0.00    -0.153 OA
BRANCH  10  13
ATOM     13  N   UNL     1       8.787   3.561  23.307  0.00  0.00    -0.183 NA
ATOM     14  C   UNL     1       7.727   3.593  22.283  0.00  0.00    +0.131 C 
ATOM     15  C   UNL     1       9.183   4.897  23.781  0.00  0.00    +0.131 C 
ENDBRANCH  10  13
ENDBRANCH   5  10
BRANCH   1  17
ATOM     16  C   UNL     1       4.126  -1.737  26.790  0.00  0.00    +0.012 C 
ATOM     17  C   UNL     1       5.436  -1.651  27.558  0.00  0.00    +0.072 C 
ENDBRANCH   1  17
BRANCH   9  18
ATOM     18  C   UNL     1       7.682  -3.594  26.225  0.00  0.00    +0.197 C 
ATOM     19  O   UNL     1       8.502  -4.140  26.958  0.00  0.00    -0.287 OA
BRANCH  18  20
ATOM     20  C   UNL     1       6.744  -4.468  25.459  0.00  0.00    +0.025 A 
ATOM     21  C   UNL     1       5.720  -5.118  26.165  0.00  0.00    +0.030 A 
ATOM     22  C   UNL     1       4.893  -6.038  25.517  0.00  0.00    +0.061 A 
ATOM     23 BR   UNL     1       3.531  -6.889  26.525  0.00  0.00    -0.046 Br
ATOM     24  C   UNL     1       5.093  -6.332  24.166  0.00  0.00    +0.145 A 
ATOM     25  C   UNL     1       6.059  -5.625  23.445  0.00  0.00    +0.061 A 
ATOM     26 BR   UNL     1       6.365  -5.989  21.609  0.00  0.00    -0.046 Br
ATOM     27  C   UNL     1       6.851  -4.664  24.077  0.00  0.00    +0.030 A 
BRANCH  24  28
ATOM     28  O   UNL     1       4.353  -7.319  23.573  0.00  0.00    -0.505 OA
ATOM     29  H   UNL     1       4.744  -7.522  22.704  0.00  0.00    +0.292 HD
ENDBRANCH  24  28
ENDBRANCH  18  20
ENDBRANCH   9  18
TORSDOF 6
ENDMDL
MODEL 7
REMARK VINA RESULT:      -6.7      4.395      8.602
REMARK  Name = 
REMARK  9 active torsions:
REMARK  status: ('A' for Active; 'I' for Inactive)
REMARK    1  A    between atoms: C_1  and  C_2
REMARK    2  A    between atoms: C_2  and  C_3
REMARK    3  A    between atoms: C_4  and  C_5
REMARK    4  A    between atoms: C_5  and  C_7
REMARK    5  A    between atoms: C_11  and  O_12
REMARK    6  A    between atoms: C_20  and  S_23
REMARK    7  A    between atoms: S_23  and  N_26
REMARK    8  A    between atoms: N_26  and  C_27
REMARK    9  A    between atoms: N_26  and  C_28
REMARK                            x       y       z     vdW  Elec       q    Type
REMARK                         _______ _______ _______ _____ _____    ______ ____
ROOT
ATOM      1  C   UNL     1       9.171   0.893  22.721  0.00  0.00    +0.117 A 
ATOM      2  O   UNL     1       9.547  -0.419  22.712  0.00  0.00    -0.459 OA
ATOM      3  C   UNL     1       8.523  -1.140  23.238  0.00  0.00    +0.138 A 
ATOM      4  C   UNL     1       8.499  -2.528  23.364  0.00  0.00    +0.075 A 
ATOM      5  C   UNL     1       7.336  -3.073  23.924  0.00  0.00    +0.109 A 
ATOM      6  C   UNL     1       6.320  -2.260  24.441  0.00  0.00    +0.029 A 
ATOM      7  C   UNL     1       6.389  -0.868  24.303  0.00  0.00    +0.014 A 
ATOM      8  C   UNL     1       7.490  -0.295  23.624  0.00  0.00    +0.031 A 
ATOM      9  C   UNL     1       7.859   1.015  23.161  0.00  0.00    +0.071 A 
ENDROOT
BRANCH   5  10
ATOM     10  S   UNL     1       7.157  -4.848  24.010  0.00  0.00    +0.060 S 
ATOM     11  O   UNL     1       8.452  -5.426  23.726  0.00  0.00    -0.153 OA
ATOM     12  O   UNL     1       5.990  -5.196  23.228  0.00  0.00    -0.153 OA
BRANCH  10  13
ATOM     13  N   UNL     1       6.798  -5.114  25.654  0.00  0.00    -0.183 NA
ATOM     14  C   UNL     1       7.944  -5.265  26.569  0.00  0.00    +0.131 C 
ATOM     15  C   UNL     1       5.678  -6.017  25.965  0.00  0.00    +0.131 C 
ENDBRANCH  10  13
ENDBRANCH   5  10
BRANCH   1  17
ATOM     16  C   UNL     1      10.839   2.639  23.361  0.00  0.00    +0.012 C 
ATOM     17  C   UNL     1      10.192   1.859  22.226  0.00  0.00    +0.072 C 
ENDBRANCH   1  17
BRANCH   9  18
ATOM     18  C   UNL     1       7.093   2.257  23.137  0.00  0.00    +0.197 C 
ATOM     19  O   UNL     1       6.298   2.513  22.236  0.00  0.00    -0.287 OA
BRANCH  18  20
ATOM     20  C   UNL     1       7.246   3.258  24.235  0.00  0.00    +0.025 A 
ATOM     21  C   UNL     1       7.805   4.505  23.919  0.00  0.00    +0.030 A 
ATOM     22  C   UNL     1       8.081   5.429  24.930  0.00  0.00    +0.061 A 
ATOM     23 BR   UNL     1       8.841   7.097  24.442  0.00  0.00    -0.046 Br
ATOM     24  C   UNL     1       7.822   5.108  26.264  0.00  0.00    +0.145 A 
ATOM     25  C   UNL     1       7.191   3.899  26.569  0.00  0.00    +0.061 A 
ATOM     26 BR   UNL     1       6.818   3.420  28.366  0.00  0.00    -0.046 Br
ATOM     27  C   UNL     1       6.863   2.996  25.556  0.00  0.00    +0.030 A 
BRANCH  24  28
ATOM     28  O   UNL     1       8.204   5.973  27.253  0.00  0.00    -0.505 OA
ATOM     29  H   UNL     1       7.408   6.270  27.731  0.00  0.00    +0.292 HD
ENDBRANCH  24  28
ENDBRANCH  18  20
ENDBRANCH   9  18
TORSDOF 6
ENDMDL
MODEL 8
REMARK VINA RESULT:      -6.6      4.788      8.742
REMARK  Name = 
REMARK  9 active torsions:
REMARK  status: ('A' for Active; 'I' for Inactive)
REMARK    1  A    between atoms: C_1  and  C_2
REMARK    2  A    between atoms: C_2  and  C_3
REMARK    3  A    between atoms: C_4  and  C_5
REMARK    4  A    between atoms: C_5  and  C_7
REMARK    5  A    between atoms: C_11  and  O_12
REMARK    6  A    between atoms: C_20  and  S_23
REMARK    7  A    between atoms: S_23  and  N_26
REMARK    8  A    between atoms: N_26  and  C_27
REMARK    9  A    between atoms: N_26  and  C_28
REMARK                            x       y       z     vdW  Elec       q    Type
REMARK                         _______ _______ _______ _____ _____    ______ ____
ROOT
ATOM      1  C   UNL     1       7.786  -0.051  25.844  0.00  0.00    +0.117 A 
ATOM      2  O   UNL     1       6.904  -1.087  25.745  0.00  0.00    -0.459 OA
ATOM      3  C   UNL     1       7.176  -1.746  24.588  0.00  0.00    +0.138 A 
ATOM      4  C   UNL     1       6.521  -2.892  24.143  0.00  0.00    +0.075 A 
ATOM      5  C   UNL     1       6.970  -3.420  22.925  0.00  0.00    +0.109 A 
ATOM      6  C   UNL     1       7.928  -2.761  22.147  0.00  0.00    +0.029 A 
ATOM      7  C   UNL     1       8.554  -1.603  22.629  0.00  0.00    +0.014 A 
ATOM      8  C   UNL     1       8.216  -1.119  23.913  0.00  0.00    +0.031 A 
ATOM      9  C   UNL     1       8.702  -0.097  24.800  0.00  0.00    +0.071 A 
ENDROOT
BRANCH   5  10
ATOM     10  S   UNL     1       6.281  -4.959  22.334  0.00  0.00    +0.060 S 
ATOM     11  O   UNL     1       7.320  -5.961  22.429  0.00  0.00    -0.153 OA
ATOM     12  O   UNL     1       5.623  -4.675  21.076  0.00  0.00    -0.153 OA
BRANCH  10  13
ATOM     13  N   UNL     1       5.086  -5.310  23.496  0.00  0.00    -0.183 NA
ATOM     14  C   UNL     1       5.109  -6.661  24.086  0.00  0.00    +0.131 C 
ATOM     15  C   UNL     1       3.727  -4.804  23.244  0.00  0.00    +0.131 C 
ENDBRANCH  10  13
ENDBRANCH   5  10
BRANCH   1  17
ATOM     16  C   UNL     1       6.422   0.415  27.884  0.00  0.00    +0.012 C 
ATOM     17  C   UNL     1       7.613   0.831  27.032  0.00  0.00    +0.072 C 
ENDBRANCH   1  17
BRANCH   9  18
ATOM     18  C   UNL     1       9.877   0.763  24.695  0.00  0.00    +0.197 C 
ATOM     19  O   UNL     1      10.991   0.388  25.052  0.00  0.00    -0.287 OA
BRANCH  18  20
ATOM     20  C   UNL     1       9.755   2.138  24.125  0.00  0.00    +0.025 A 
ATOM     21  C   UNL     1      10.933   2.866  23.896  0.00  0.00    +0.030 A 
ATOM     22  C   UNL     1      10.868   4.198  23.480  0.00  0.00    +0.061 A 
ATOM     23 BR   UNL     1      12.493   5.131  23.192  0.00  0.00    -0.046 Br
ATOM     24  C   UNL     1       9.629   4.819  23.308  0.00  0.00    +0.145 A 
ATOM     25  C   UNL     1       8.459   4.071  23.457  0.00  0.00    +0.061 A 
ATOM     26 BR   UNL     1       6.754   4.872  23.233  0.00  0.00    -0.046 Br
ATOM     27  C   UNL     1       8.521   2.724  23.820  0.00  0.00    +0.030 A 
BRANCH  24  28
ATOM     28  O   UNL     1       9.579   6.155  23.013  0.00  0.00    -0.505 OA
ATOM     29  H   UNL     1       9.676   6.660  23.840  0.00  0.00    +0.292 HD
ENDBRANCH  24  28
ENDBRANCH  18  20
ENDBRANCH   9  18
TORSDOF 6
ENDMDL
MODEL 9
REMARK VINA RESULT:      -6.5      2.524      3.124
REMARK  Name = 
REMARK  9 active torsions:
REMARK  status: ('A' for Active; 'I' for Inactive)
REMARK    1  A    between atoms: C_1  and  C_2
REMARK    2  A    between atoms: C_2  and  C_3
REMARK    3  A    between atoms: C_4  and  C_5
REMARK    4  A    between atoms: C_5  and  C_7
REMARK    5  A    between atoms: C_11  and  O_12
REMARK    6  A    between atoms: C_20  and  S_23
REMARK    7  A    between atoms: S_23  and  N_26
REMARK    8  A    between atoms: N_26  and  C_27
REMARK    9  A    between atoms: N_26  and  C_28
REMARK                            x       y       z     vdW  Elec       q    Type
REMARK                         _______ _______ _______ _____ _____    ______ ____
ROOT
ATOM      1  C   UNL     1       4.613  -4.416  23.513  0.00  0.00    +0.117 A 
ATOM      2  O   UNL     1       5.703  -4.305  22.701  0.00  0.00    -0.459 OA
ATOM      3  C   UNL     1       6.317  -3.131  23.000  0.00  0.00    +0.138 A 
ATOM      4  C   UNL     1       7.495  -2.668  22.418  0.00  0.00    +0.075 A 
ATOM      5  C   UNL     1       7.965  -1.433  22.883  0.00  0.00    +0.109 A 
ATOM      6  C   UNL     1       7.226  -0.658  23.783  0.00  0.00    +0.029 A 
ATOM      7  C   UNL     1       6.040  -1.157  24.337  0.00  0.00    +0.014 A 
ATOM      8  C   UNL     1       5.607  -2.457  23.986  0.00  0.00    +0.031 A 
ATOM      9  C   UNL     1       4.573  -3.360  24.415  0.00  0.00    +0.071 A 
ENDROOT
BRANCH   5  10
ATOM     10  S   UNL     1       9.533  -0.816  22.290  0.00  0.00    +0.060 S 
ATOM     11  O   UNL     1       9.317  -0.302  20.955  0.00  0.00    -0.153 OA
ATOM     12  O   UNL     1      10.520  -1.842  22.550  0.00  0.00    -0.153 OA
BRANCH  10  13
ATOM     13  N   UNL     1       9.841   0.499  23.329  0.00  0.00    -0.183 NA
ATOM     14  C   UNL     1      10.027   1.817  22.697  0.00  0.00    +0.131 C 
ATOM     15  C   UNL     1      10.742   0.263  24.469  0.00  0.00    +0.131 C 
ENDBRANCH  10  13
ENDBRANCH   5  10
BRANCH   1  17
ATOM     16  C   UNL     1       4.302  -6.835  24.053  0.00  0.00    +0.012 C 
ATOM     17  C   UNL     1       3.770  -5.627  23.297  0.00  0.00    +0.072 C 
ENDBRANCH   1  17
BRANCH   9  18
ATOM     18  C   UNL     1       3.634  -3.259  25.528  0.00  0.00    +0.197 C 
ATOM     19  O   UNL     1       2.895  -2.289  25.669  0.00  0.00    -0.287 OA
BRANCH  18  20
ATOM     20  C   UNL     1       3.535  -4.362  26.530  0.00  0.00    +0.025 A 
ATOM     21  C   UNL     1       4.698  -4.732  27.223  0.00  0.00    +0.030 A 
ATOM     22  C   UNL     1       4.685  -5.835  28.081  0.00  0.00    +0.061 A 
ATOM     23 BR   UNL     1       6.288  -6.290  28.986  0.00  0.00    -0.046 Br
ATOM     24  C   UNL     1       3.519  -6.588  28.238  0.00  0.00    +0.145 A 
ATOM     25  C   UNL     1       2.342  -6.171  27.611  0.00  0.00    +0.061 A 
ATOM     26 BR   UNL     1       0.735  -7.161  27.796  0.00  0.00    -0.046 Br
ATOM     27  C   UNL     1       2.337  -5.037  26.797  0.00  0.00    +0.030 A 
BRANCH  24  28
ATOM     28  O   UNL     1       3.550  -7.732  28.989  0.00  0.00    -0.505 OA
ATOM     29  H   UNL     1       4.045  -8.413  28.497  0.00  0.00    +0.292 HD
ENDBRANCH  24  28
ENDBRANCH  18  20
ENDBRANCH   9  18
TORSDOF 6
ENDMDL
