MODEL 1
REMARK VINA RESULT:      -7.7      0.000      0.000
REMARK  Name = 
REMARK  10 active torsions:
REMARK  status: ('A' for Active; 'I' for Inactive)
REMARK    1  A    between atoms: C_8  and  N_10
REMARK    2  A    between atoms: C_11  and  C_13
REMARK    3  A    between atoms: C_13  and  C_15
REMARK    4  A    between atoms: C_13  and  N_16
REMARK    5  A    between atoms: C_17  and  C_19
REMARK    6  A    between atoms: C_19  and  C_21
REMARK    7  A    between atoms: C_19  and  N_22
REMARK    8  A    between atoms: C_32  and  C_43
REMARK    9  A    between atoms: N_34  and  C_35
REMARK   10  A    between atoms: C_43  and  O_44
REMARK                            x       y       z     vdW  Elec       q    Type
REMARK                         _______ _______ _______ _____ _____    ______ ____
ROOT
ATOM      1  C   UNL     1       5.829  -4.706  22.934  0.00  0.00    +0.033 C 
ATOM      2  C   UNL     1       4.628  -5.113  23.754  0.00  0.00    +0.083 C 
ATOM      3  C   UNL     1       4.734  -3.723  23.177  0.00  0.00    +0.033 C 
ATOM      4  C   UNL     1       5.302  -2.573  23.964  0.00  0.00    +0.112 C 
ATOM      5  N   UNL     1       6.753  -2.803  23.930  0.00  0.00    -0.312 N 
ATOM      6  C   UNL     1       7.524  -1.708  23.596  0.00  0.00    +0.159 A 
ATOM      7  C   UNL     1       8.422  -1.668  22.529  0.00  0.00    +0.164 A 
ATOM      8  F   UNL     1       8.548  -2.683  21.662  0.00  0.00    -0.202 F 
ATOM      9  C   UNL     1       9.177  -0.529  22.290  0.00  0.00    +0.057 A 
ATOM     10  C   UNL     1       9.041   0.560  23.146  0.00  0.00    +0.068 A 
ATOM     11  C   UNL     1       9.823   1.777  22.890  0.00  0.00    +0.205 A 
ATOM     12  C   UNL     1       9.686   2.907  23.819  0.00  0.00    +0.122 A 
ATOM     13  C   UNL     1       8.847   2.739  24.854  0.00  0.00    +0.112 A 
ATOM     14  N   UNL     1       8.058   1.618  25.135  0.00  0.00    -0.297 N 
ATOM     15  O   UNL     1      10.575   1.858  21.919  0.00  0.00    -0.286 OA
ATOM     16  C   UNL     1       8.153   0.494  24.222  0.00  0.00    +0.151 A 
ATOM     17  N   UNL     1       7.384  -0.616  24.394  0.00  0.00    -0.211 NA
ATOM     18  C   UNL     1       7.080  -4.180  23.563  0.00  0.00    +0.112 C 
ENDROOT
BRANCH  14  19
ATOM     19  C   UNL     1       7.165   1.615  26.272  0.00  0.00    +0.083 A 
ATOM     20  C   UNL     1       7.349   0.765  27.385  0.00  0.00    +0.150 A 
ATOM     21  F   UNL     1       8.373  -0.101  27.426  0.00  0.00    -0.203 F 
ATOM     22  C   UNL     1       6.522   0.816  28.508  0.00  0.00    +0.078 A 
ATOM     23  C   UNL     1       5.489   1.737  28.548  0.00  0.00    +0.126 A 
ATOM     24  F   UNL     1       4.719   1.824  29.639  0.00  0.00    -0.205 F 
ATOM     25  C   UNL     1       5.248   2.575  27.471  0.00  0.00    +0.040 A 
ATOM     26  C   UNL     1       6.065   2.497  26.338  0.00  0.00    +0.032 A 
ENDBRANCH  14  19
BRANCH   2  27
ATOM     27  N   UNL     1       3.711  -6.071  23.217  0.00  0.00    -0.310 N 
ATOM     28  H   UNL     1       4.078  -6.982  22.939  0.00  0.00    +0.149 HD
ATOM     29  C   UNL     1       2.337  -5.952  23.300  0.00  0.00    +0.233 C 
ATOM     30  O   UNL     1       1.787  -5.041  23.921  0.00  0.00    -0.274 OA
BRANCH  29  31
ATOM     31  C   UNL     1       1.519  -7.120  22.685  0.00  0.00    +0.156 C 
ATOM     32  C   UNL     1       0.469  -6.613  21.704  0.00  0.00    +0.038 C 
BRANCH  31  33
ATOM     33  N   UNL     1       0.972  -8.049  23.678  0.00  0.00    -0.303 N 
ATOM     34  H   UNL     1      -0.039  -8.138  23.771  0.00  0.00    +0.149 HD
ATOM     35  C   UNL     1       1.690  -8.661  24.673  0.00  0.00    +0.230 C 
ATOM     36  O   UNL     1       2.901  -8.494  24.813  0.00  0.00    -0.274 OA
BRANCH  35  37
ATOM     37  C   UNL     1       0.898  -9.678  25.515  0.00  0.00    +0.135 C 
ATOM     38  C   UNL     1       0.500  -9.001  26.824  0.00  0.00    +0.033 C 
BRANCH  37  39
ATOM     39  N   UNL     1       1.704 -10.892  25.788  0.00  0.00    -0.320 NA
ATOM     40  H   UNL     1       2.667 -10.715  25.492  0.00  0.00    +0.119 HD
ATOM     41  H   UNL     1       1.764 -11.007  26.802  0.00  0.00    +0.119 HD
ENDBRANCH  37  39
ENDBRANCH  35  37
ENDBRANCH  31  33
ENDBRANCH  29  31
ENDBRANCH   2  27
BRANCH  12  42
ATOM     42  C   UNL     1      10.423   4.180  23.659  0.00  0.00    +0.342 C 
ATOM     43  O   UNL     1       9.927   5.275  23.875  0.00  0.00    -0.245 OA
BRANCH  42  44
ATOM     44  O   UNL     1      11.702   4.043  23.241  0.00  0.00    -0.477 OA
ATOM     45  H   UNL     1      12.026   4.774  22.661  0.00  0.00    +0.295 HD
ENDBRANCH  42  44
ENDBRANCH  12  42
TORSDOF 8
ENDMDL
MODEL 2
REMARK VINA RESULT:      -7.7      4.219     10.376
REMARK  Name = 
REMARK  10 active torsions:
REMARK  status: ('A' for Active; 'I' for Inactive)
REMARK    1  A    between atoms: C_8  and  N_10
REMARK    2  A    between atoms: C_11  and  C_13
REMARK    3  A    between atoms: C_13  and  C_15
REMARK    4  A    between atoms: C_13  and  N_16
REMARK    5  A    between atoms: C_17  and  C_19
REMARK    6  A    between atoms: C_19  and  C_21
REMARK    7  A    between atoms: C_19  and  N_22
REMARK    8  A    between atoms: C_32  and  C_43
REMARK    9  A    between atoms: N_34  and  C_35
REMARK   10  A    between atoms: C_43  and  O_44
REMARK                            x       y       z     vdW  Elec       q    Type
REMARK                         _______ _______ _______ _____ _____    ______ ____
ROOT
ATOM      1  C   UNL     1       7.551   1.269  23.406  0.00  0.00    +0.033 C 
ATOM      2  C   UNL     1       6.798   2.573  23.534  0.00  0.00    +0.083 C 
ATOM      3  C   UNL     1       7.260   1.824  24.760  0.00  0.00    +0.033 C 
ATOM      4  C   UNL     1       6.369   0.851  25.484  0.00  0.00    +0.112 C 
ATOM      5  N   UNL     1       6.382  -0.344  24.630  0.00  0.00    -0.312 N 
ATOM      6  C   UNL     1       6.607  -1.541  25.279  0.00  0.00    +0.159 A 
ATOM      7  C   UNL     1       7.643  -2.425  24.974  0.00  0.00    +0.164 A 
ATOM      8  F   UNL     1       8.583  -2.137  24.063  0.00  0.00    -0.202 F 
ATOM      9  C   UNL     1       7.770  -3.621  25.665  0.00  0.00    +0.057 A 
ATOM     10  C   UNL     1       6.834  -3.934  26.646  0.00  0.00    +0.068 A 
ATOM     11  C   UNL     1       6.972  -5.190  27.395  0.00  0.00    +0.205 A 
ATOM     12  C   UNL     1       5.960  -5.516  28.410  0.00  0.00    +0.122 A 
ATOM     13  C   UNL     1       4.965  -4.630  28.576  0.00  0.00    +0.112 A 
ATOM     14  N   UNL     1       4.795  -3.408  27.914  0.00  0.00    -0.297 N 
ATOM     15  O   UNL     1       7.912  -5.956  27.187  0.00  0.00    -0.286 OA
ATOM     16  C   UNL     1       5.791  -3.047  26.924  0.00  0.00    +0.151 A 
ATOM     17  N   UNL     1       5.729  -1.855  26.269  0.00  0.00    -0.211 NA
ATOM     18  C   UNL     1       6.848  -0.045  23.276  0.00  0.00    +0.112 C 
ENDROOT
BRANCH  14  19
ATOM     19  C   UNL     1       3.686  -2.541  28.245  0.00  0.00    +0.083 A 
ATOM     20  C   UNL     1       2.431  -2.628  27.603  0.00  0.00    +0.150 A 
ATOM     21  F   UNL     1       2.218  -3.527  26.631  0.00  0.00    -0.203 F 
ATOM     22  C   UNL     1       1.346  -1.833  27.976  0.00  0.00    +0.078 A 
ATOM     23  C   UNL     1       1.491  -0.933  29.018  0.00  0.00    +0.126 A 
ATOM     24  F   UNL     1       0.444  -0.199  29.412  0.00  0.00    -0.205 F 
ATOM     25  C   UNL     1       2.709  -0.790  29.663  0.00  0.00    +0.040 A 
ATOM     26  C   UNL     1       3.799  -1.570  29.264  0.00  0.00    +0.032 A 
ENDBRANCH  14  19
BRANCH   2  27
ATOM     27  N   UNL     1       7.434   3.787  23.124  0.00  0.00    -0.310 N 
ATOM     28  H   UNL     1       7.853   3.817  22.193  0.00  0.00    +0.149 HD
ATOM     29  C   UNL     1       7.286   4.993  23.779  0.00  0.00    +0.233 C 
ATOM     30  O   UNL     1       6.521   5.140  24.734  0.00  0.00    -0.274 OA
BRANCH  29  31
ATOM     31  C   UNL     1       8.033   6.202  23.150  0.00  0.00    +0.156 C 
ATOM     32  C   UNL     1       7.358   6.671  21.867  0.00  0.00    +0.038 C 
BRANCH  31  33
ATOM     33  N   UNL     1       9.475   5.991  22.993  0.00  0.00    -0.303 N 
ATOM     34  H   UNL     1       9.828   5.599  22.121  0.00  0.00    +0.149 HD
ATOM     35  C   UNL     1      10.401   6.059  24.002  0.00  0.00    +0.230 C 
ATOM     36  O   UNL     1      10.097   6.331  25.163  0.00  0.00    -0.274 OA
BRANCH  35  37
ATOM     37  C   UNL     1      11.866   5.908  23.550  0.00  0.00    +0.135 C 
ATOM     38  C   UNL     1      12.122   4.431  23.261  0.00  0.00    +0.033 C 
BRANCH  37  39
ATOM     39  N   UNL     1      12.801   6.397  24.591  0.00  0.00    -0.320 NA
ATOM     40  H   UNL     1      12.690   7.410  24.677  0.00  0.00    +0.119 HD
ATOM     41  H   UNL     1      12.490   6.027  25.492  0.00  0.00    +0.119 HD
ENDBRANCH  37  39
ENDBRANCH  35  37
ENDBRANCH  31  33
ENDBRANCH  29  31
ENDBRANCH   2  27
BRANCH  12  42
ATOM     42  C   UNL     1       5.998  -6.751  29.223  0.00  0.00    +0.342 C 
ATOM     43  O   UNL     1       6.298  -6.767  30.408  0.00  0.00    -0.245 OA
BRANCH  42  44
ATOM     44  O   UNL     1       5.683  -7.880  28.549  0.00  0.00    -0.477 OA
ATOM     45  H   UNL     1       5.477  -7.745  27.593  0.00  0.00    +0.295 HD
ENDBRANCH  42  44
ENDBRANCH  12  42
TORSDOF 8
ENDMDL
MODEL 3
REMARK VINA RESULT:      -7.5      2.979     11.307
REMARK  Name = 
REMARK  10 active torsions:
REMARK  status: ('A' for Active; 'I' for Inactive)
REMARK    1  A    between atoms: C_8  and  N_10
REMARK    2  A    between atoms: C_11  and  C_13
REMARK    3  A    between atoms: C_13  and  C_15
REMARK    4  A    between atoms: C_13  and  N_16
REMARK    5  A    between atoms: C_17  and  C_19
REMARK    6  A    between atoms: C_19  and  C_21
REMARK    7  A    between atoms: C_19  and  N_22
REMARK    8  A    between atoms: C_32  and  C_43
REMARK    9  A    between atoms: N_34  and  C_35
REMARK   10  A    between atoms: C_43  and  O_44
REMARK                            x       y       z     vdW  Elec       q    Type
REMARK                         _______ _______ _______ _____ _____    ______ ____
ROOT
ATOM      1  C   UNL     1       7.259   1.635  26.270  0.00  0.00    +0.033 C 
ATOM      2  C   UNL     1       8.030   2.000  25.024  0.00  0.00    +0.083 C 
ATOM      3  C   UNL     1       6.671   1.353  24.928  0.00  0.00    +0.033 C 
ATOM      4  C   UNL     1       6.503  -0.136  24.793  0.00  0.00    +0.112 C 
ATOM      5  N   UNL     1       6.759  -0.646  26.146  0.00  0.00    -0.312 N 
ATOM      6  C   UNL     1       5.834  -1.549  26.630  0.00  0.00    +0.159 A 
ATOM      7  C   UNL     1       5.109  -1.385  27.811  0.00  0.00    +0.164 A 
ATOM      8  F   UNL     1       5.186  -0.267  28.547  0.00  0.00    -0.202 F 
ATOM      9  C   UNL     1       4.222  -2.365  28.231  0.00  0.00    +0.057 A 
ATOM     10  C   UNL     1       4.087  -3.522  27.469  0.00  0.00    +0.068 A 
ATOM     11  C   UNL     1       3.136  -4.556  27.896  0.00  0.00    +0.205 A 
ATOM     12  C   UNL     1       3.025  -5.782  27.093  0.00  0.00    +0.122 A 
ATOM     13  C   UNL     1       3.819  -5.870  26.014  0.00  0.00    +0.112 A 
ATOM     14  N   UNL     1       4.722  -4.910  25.542  0.00  0.00    -0.297 N 
ATOM     15  O   UNL     1       2.440  -4.406  28.900  0.00  0.00    -0.286 OA
ATOM     16  C   UNL     1       4.836  -3.678  26.301  0.00  0.00    +0.151 A 
ATOM     17  N   UNL     1       5.654  -2.673  25.885  0.00  0.00    -0.211 NA
ATOM     18  C   UNL     1       7.462   0.332  26.976  0.00  0.00    +0.112 C 
ENDROOT
BRANCH  14  19
ATOM     19  C   UNL     1       5.473  -5.142  24.328  0.00  0.00    +0.083 A 
ATOM     20  C   UNL     1       6.878  -5.282  24.315  0.00  0.00    +0.150 A 
ATOM     21  F   UNL     1       7.589  -5.190  25.450  0.00  0.00    -0.203 F 
ATOM     22  C   UNL     1       7.588  -5.573  23.149  0.00  0.00    +0.078 A 
ATOM     23  C   UNL     1       6.899  -5.743  21.961  0.00  0.00    +0.126 A 
ATOM     24  F   UNL     1       7.566  -6.066  20.847  0.00  0.00    -0.205 F 
ATOM     25  C   UNL     1       5.522  -5.590  21.914  0.00  0.00    +0.040 A 
ATOM     26  C   UNL     1       4.822  -5.270  23.082  0.00  0.00    +0.032 A 
ENDBRANCH  14  19
BRANCH   2  27
ATOM     27  N   UNL     1       8.217   3.382  24.702  0.00  0.00    -0.310 N 
ATOM     28  H   UNL     1       8.701   3.971  25.382  0.00  0.00    +0.149 HD
ATOM     29  C   UNL     1       8.037   3.910  23.439  0.00  0.00    +0.233 C 
ATOM     30  O   UNL     1       7.774   3.210  22.459  0.00  0.00    -0.274 OA
BRANCH  29  31
ATOM     31  C   UNL     1       8.328   5.429  23.292  0.00  0.00    +0.156 C 
ATOM     32  C   UNL     1       7.582   6.030  22.107  0.00  0.00    +0.038 C 
BRANCH  31  33
ATOM     33  N   UNL     1       9.755   5.763  23.298  0.00  0.00    -0.303 N 
ATOM     34  H   UNL     1      10.300   5.629  22.448  0.00  0.00    +0.149 HD
ATOM     35  C   UNL     1      10.501   6.034  24.416  0.00  0.00    +0.230 C 
ATOM     36  O   UNL     1      10.020   6.040  25.548  0.00  0.00    -0.274 OA
BRANCH  35  37
ATOM     37  C   UNL     1      11.953   6.466  24.138  0.00  0.00    +0.135 C 
ATOM     38  C   UNL     1      12.671   5.304  23.457  0.00  0.00    +0.033 C 
BRANCH  37  39
ATOM     39  N   UNL     1      12.652   6.837  25.392  0.00  0.00    -0.320 NA
ATOM     40  H   UNL     1      13.379   7.520  25.168  0.00  0.00    +0.119 HD
ATOM     41  H   UNL     1      11.991   7.349  25.980  0.00  0.00    +0.119 HD
ENDBRANCH  37  39
ENDBRANCH  35  37
ENDBRANCH  31  33
ENDBRANCH  29  31
ENDBRANCH   2  27
BRANCH  12  42
ATOM     42  C   UNL     1       2.102  -6.889  27.428  0.00  0.00    +0.342 C 
ATOM     43  O   UNL     1       1.139  -7.192  26.741  0.00  0.00    -0.245 OA
BRANCH  42  44
ATOM     44  O   UNL     1       2.399  -7.544  28.573  0.00  0.00    -0.477 OA
ATOM     45  H   UNL     1       2.324  -6.996  29.392  0.00  0.00    +0.295 HD
ENDBRANCH  42  44
ENDBRANCH  12  42
TORSDOF 8
ENDMDL
MODEL 4
REMARK VINA RESULT:      -6.8      4.581      6.458
REMARK  Name = 
REMARK  10 active torsions:
REMARK  status: ('A' for Active; 'I' for Inactive)
REMARK    1  A    between atoms: C_8  and  N_10
REMARK    2  A    between atoms: C_11  and  C_13
REMARK    3  A    between atoms: C_13  and  C_15
REMARK    4  A    between atoms: C_13  and  N_16
REMARK    5  A    between atoms: C_17  and  C_19
REMARK    6  A    between atoms: C_19  and  C_21
REMARK    7  A    between atoms: C_19  and  N_22
REMARK    8  A    between atoms: C_32  and  C_43
REMARK    9  A    between atoms: N_34  and  C_35
REMARK   10  A    between atoms: C_43  and  O_44
REMARK                            x       y       z     vdW  Elec       q    Type
REMARK                         _______ _______ _______ _____ _____    ______ ____
ROOT
ATOM      1  C   UNL     1       3.850   2.201  27.088  0.00  0.00    +0.033 C 
ATOM      2  C   UNL     1       3.450   0.744  27.082  0.00  0.00    +0.083 C 
ATOM      3  C   UNL     1       4.864   1.155  27.409  0.00  0.00    +0.033 C 
ATOM      4  C   UNL     1       5.942   1.209  26.361  0.00  0.00    +0.112 C 
ATOM      5  N   UNL     1       5.652   2.443  25.618  0.00  0.00    -0.312 N 
ATOM      6  C   UNL     1       6.730   3.278  25.401  0.00  0.00    +0.159 A 
ATOM      7  C   UNL     1       6.791   4.613  25.804  0.00  0.00    +0.164 A 
ATOM      8  F   UNL     1       5.822   5.185  26.532  0.00  0.00    -0.202 F 
ATOM      9  C   UNL     1       7.908   5.382  25.513  0.00  0.00    +0.057 A 
ATOM     10  C   UNL     1       8.952   4.808  24.793  0.00  0.00    +0.068 A 
ATOM     11  C   UNL     1      10.146   5.609  24.497  0.00  0.00    +0.205 A 
ATOM     12  C   UNL     1      11.228   4.995  23.714  0.00  0.00    +0.122 A 
ATOM     13  C   UNL     1      11.038   3.727  23.315  0.00  0.00    +0.112 A 
ATOM     14  N   UNL     1       9.937   2.905  23.588  0.00  0.00    -0.297 N 
ATOM     15  O   UNL     1      10.250   6.769  24.895  0.00  0.00    -0.286 OA
ATOM     16  C   UNL     1       8.864   3.477  24.380  0.00  0.00    +0.151 A 
ATOM     17  N   UNL     1       7.780   2.732  24.732  0.00  0.00    -0.211 NA
ATOM     18  C   UNL     1       4.285   2.910  25.845  0.00  0.00    +0.112 C 
ENDROOT
BRANCH  14  19
ATOM     19  C   UNL     1       9.908   1.537  23.121  0.00  0.00    +0.083 A 
ATOM     20  C   UNL     1      10.295   0.447  23.931  0.00  0.00    +0.150 A 
ATOM     21  F   UNL     1      10.726   0.641  25.186  0.00  0.00    -0.203 F 
ATOM     22  C   UNL     1      10.200  -0.876  23.495  0.00  0.00    +0.078 A 
ATOM     23  C   UNL     1       9.699  -1.140  22.231  0.00  0.00    +0.126 A 
ATOM     24  F   UNL     1       9.562  -2.407  21.822  0.00  0.00    -0.205 F 
ATOM     25  C   UNL     1       9.331  -0.104  21.387  0.00  0.00    +0.040 A 
ATOM     26  C   UNL     1       9.457   1.220  21.821  0.00  0.00    +0.032 A 
ENDBRANCH  14  19
BRANCH   2  27
ATOM     27  N   UNL     1       2.564   0.262  28.097  0.00  0.00    -0.310 N 
ATOM     28  H   UNL     1       2.568   0.738  29.001  0.00  0.00    +0.149 HD
ATOM     29  C   UNL     1       1.523  -0.613  27.859  0.00  0.00    +0.233 C 
ATOM     30  O   UNL     1       1.220  -0.991  26.726  0.00  0.00    -0.274 OA
BRANCH  29  31
ATOM     31  C   UNL     1       0.655  -0.985  29.093  0.00  0.00    +0.156 C 
ATOM     32  C   UNL     1       0.706   0.101  30.161  0.00  0.00    +0.038 C 
BRANCH  31  33
ATOM     33  N   UNL     1       0.923  -2.323  29.626  0.00  0.00    -0.303 N 
ATOM     34  H   UNL     1       0.140  -2.923  29.881  0.00  0.00    +0.149 HD
ATOM     35  C   UNL     1       2.149  -2.783  30.035  0.00  0.00    +0.230 C 
ATOM     36  O   UNL     1       3.168  -2.097  29.973  0.00  0.00    -0.274 OA
BRANCH  35  37
ATOM     37  C   UNL     1       2.180  -4.266  30.450  0.00  0.00    +0.135 C 
ATOM     38  C   UNL     1       3.542  -4.837  30.063  0.00  0.00    +0.033 C 
BRANCH  37  39
ATOM     39  N   UNL     1       1.096  -5.031  29.790  0.00  0.00    -0.320 NA
ATOM     40  H   UNL     1       0.332  -5.154  30.459  0.00  0.00    +0.119 HD
ATOM     41  H   UNL     1       0.701  -4.444  29.052  0.00  0.00    +0.119 HD
ENDBRANCH  37  39
ENDBRANCH  35  37
ENDBRANCH  31  33
ENDBRANCH  29  31
ENDBRANCH   2  27
BRANCH  12  42
ATOM     42  C   UNL     1      12.474   5.707  23.357  0.00  0.00    +0.342 C 
ATOM     43  O   UNL     1      12.975   5.667  22.244  0.00  0.00    -0.245 OA
BRANCH  42  44
ATOM     44  O   UNL     1      13.034   6.407  24.370  0.00  0.00    -0.477 OA
ATOM     45  H   UNL     1      13.887   6.037  24.704  0.00  0.00    +0.295 HD
ENDBRANCH  42  44
ENDBRANCH  12  42
TORSDOF 8
ENDMDL
MODEL 5
REMARK VINA RESULT:      -6.8      3.125     11.049
REMARK  Name = 
REMARK  10 active torsions:
REMARK  status: ('A' for Active; 'I' for Inactive)
REMARK    1  A    between atoms: C_8  and  N_10
REMARK    2  A    between atoms: C_11  and  C_13
REMARK    3  A    between atoms: C_13  and  C_15
REMARK    4  A    between atoms: C_13  and  N_16
REMARK    5  A    between atoms: C_17  and  C_19
REMARK    6  A    between atoms: C_19  and  C_21
REMARK    7  A    between atoms: C_19  and  N_22
REMARK    8  A    between atoms: C_32  and  C_43
REMARK    9  A    between atoms: N_34  and  C_35
REMARK   10  A    between atoms: C_43  and  O_44
REMARK                            x       y       z     vdW  Elec       q    Type
REMARK                         _______ _______ _______ _____ _____    ______ ____
ROOT
ATOM      1  C   UNL     1       7.273   1.726  26.176  0.00  0.00    +0.033 C 
ATOM      2  C   UNL     1       8.006   2.092  24.907  0.00  0.00    +0.083 C 
ATOM      3  C   UNL     1       6.657   1.421  24.852  0.00  0.00    +0.033 C 
ATOM      4  C   UNL     1       6.512  -0.072  24.735  0.00  0.00    +0.112 C 
ATOM      5  N   UNL     1       6.810  -0.564  26.087  0.00  0.00    -0.312 N 
ATOM      6  C   UNL     1       5.914  -1.478  26.602  0.00  0.00    +0.159 A 
ATOM      7  C   UNL     1       5.215  -1.315  27.799  0.00  0.00    +0.164 A 
ATOM      8  F   UNL     1       5.290  -0.188  28.522  0.00  0.00    -0.202 F 
ATOM      9  C   UNL     1       4.356  -2.305  28.250  0.00  0.00    +0.057 A 
ATOM     10  C   UNL     1       4.222  -3.472  27.503  0.00  0.00    +0.068 A 
ATOM     11  C   UNL     1       3.300  -4.518  27.964  0.00  0.00    +0.205 A 
ATOM     12  C   UNL     1       3.191  -5.754  27.176  0.00  0.00    +0.122 A 
ATOM     13  C   UNL     1       3.959  -5.840  26.078  0.00  0.00    +0.112 A 
ATOM     14  N   UNL     1       4.834  -4.869  25.575  0.00  0.00    -0.297 N 
ATOM     15  O   UNL     1       2.627  -4.370  28.983  0.00  0.00    -0.286 OA
ATOM     16  C   UNL     1       4.945  -3.628  26.318  0.00  0.00    +0.151 A 
ATOM     17  N   UNL     1       5.735  -2.612  25.873  0.00  0.00    -0.211 NA
ATOM     18  C   UNL     1       7.516   0.434  26.889  0.00  0.00    +0.112 C 
ENDROOT
BRANCH  14  19
ATOM     19  C   UNL     1       5.559  -5.099  24.345  0.00  0.00    +0.083 A 
ATOM     20  C   UNL     1       6.963  -5.243  24.302  0.00  0.00    +0.150 A 
ATOM     21  F   UNL     1       7.697  -5.155  25.421  0.00  0.00    -0.203 F 
ATOM     22  C   UNL     1       7.647  -5.533  23.120  0.00  0.00    +0.078 A 
ATOM     23  C   UNL     1       6.933  -5.700  21.946  0.00  0.00    +0.126 A 
ATOM     24  F   UNL     1       7.576  -6.022  20.818  0.00  0.00    -0.205 F 
ATOM     25  C   UNL     1       5.556  -5.542  21.929  0.00  0.00    +0.040 A 
ATOM     26  C   UNL     1       4.881  -5.223  23.112  0.00  0.00    +0.032 A 
ENDBRANCH  14  19
BRANCH   2  27
ATOM     27  N   UNL     1       8.161   3.474  24.567  0.00  0.00    -0.310 N 
ATOM     28  H   UNL     1       7.508   4.144  24.976  0.00  0.00    +0.149 HD
ATOM     29  C   UNL     1       9.283   3.994  23.952  0.00  0.00    +0.233 C 
ATOM     30  O   UNL     1      10.285   3.317  23.717  0.00  0.00    -0.274 OA
BRANCH  29  31
ATOM     31  C   UNL     1       9.268   5.528  23.703  0.00  0.00    +0.156 C 
ATOM     32  C   UNL     1      10.264   6.251  24.601  0.00  0.00    +0.038 C 
BRANCH  31  33
ATOM     33  N   UNL     1       7.928   6.122  23.742  0.00  0.00    -0.303 N 
ATOM     34  H   UNL     1       7.467   6.250  24.641  0.00  0.00    +0.149 HD
ATOM     35  C   UNL     1       7.119   6.325  22.653  0.00  0.00    +0.230 C 
ATOM     36  O   UNL     1       7.464   6.035  21.508  0.00  0.00    -0.274 OA
BRANCH  35  37
ATOM     37  C   UNL     1       5.805   7.070  22.951  0.00  0.00    +0.135 C 
ATOM     38  C   UNL     1       5.317   6.636  24.331  0.00  0.00    +0.033 C 
BRANCH  37  39
ATOM     39  N   UNL     1       4.775   6.772  21.926  0.00  0.00    -0.320 NA
ATOM     40  H   UNL     1       4.346   5.872  22.150  0.00  0.00    +0.119 HD
ATOM     41  H   UNL     1       4.019   7.452  22.034  0.00  0.00    +0.119 HD
ENDBRANCH  37  39
ENDBRANCH  35  37
ENDBRANCH  31  33
ENDBRANCH  29  31
ENDBRANCH   2  27
BRANCH  12  42
ATOM     42  C   UNL     1       2.296  -6.873  27.545  0.00  0.00    +0.342 C 
ATOM     43  O   UNL     1       1.329  -7.208  26.878  0.00  0.00    -0.245 OA
BRANCH  42  44
ATOM     44  O   UNL     1       2.625  -7.502  28.696  0.00  0.00    -0.477 OA
ATOM     45  H   UNL     1       3.482  -7.992  28.667  0.00  0.00    +0.295 HD
ENDBRANCH  42  44
ENDBRANCH  12  42
TORSDOF 8
ENDMDL
MODEL 6
REMARK VINA RESULT:      -6.8      3.098     10.780
REMARK  Name = 
REMARK  10 active torsions:
REMARK  status: ('A' for Active; 'I' for Inactive)
REMARK    1  A    between atoms: C_8  and  N_10
REMARK    2  A    between atoms: C_11  and  C_13
REMARK    3  A    between atoms: C_13  and  C_15
REMARK    4  A    between atoms: C_13  and  N_16
REMARK    5  A    between atoms: C_17  and  C_19
REMARK    6  A    between atoms: C_19  and  C_21
REMARK    7  A    between atoms: C_19  and  N_22
REMARK    8  A    between atoms: C_32  and  C_43
REMARK    9  A    between atoms: N_34  and  C_35
REMARK   10  A    between atoms: C_43  and  O_44
REMARK                            x       y       z     vdW  Elec       q    Type
REMARK                         _______ _______ _______ _____ _____    ______ ____
ROOT
ATOM      1  C   UNL     1       7.837   1.374  23.829  0.00  0.00    +0.033 C 
ATOM      2  C   UNL     1       7.643   2.505  24.812  0.00  0.00    +0.083 C 
ATOM      3  C   UNL     1       7.770   1.080  25.290  0.00  0.00    +0.033 C 
ATOM      4  C   UNL     1       6.568   0.210  25.539  0.00  0.00    +0.112 C 
ATOM      5  N   UNL     1       6.126  -0.178  24.193  0.00  0.00    -0.312 N 
ATOM      6  C   UNL     1       5.867  -1.522  24.012  0.00  0.00    +0.159 A 
ATOM      7  C   UNL     1       6.486  -2.326  23.054  0.00  0.00    +0.164 A 
ATOM      8  F   UNL     1       7.473  -1.871  22.269  0.00  0.00    -0.202 F 
ATOM      9  C   UNL     1       6.137  -3.662  22.930  0.00  0.00    +0.057 A 
ATOM     10  C   UNL     1       5.144  -4.179  23.757  0.00  0.00    +0.068 A 
ATOM     11  C   UNL     1       4.781  -5.597  23.645  0.00  0.00    +0.205 A 
ATOM     12  C   UNL     1       3.713  -6.120  24.509  0.00  0.00    +0.122 A 
ATOM     13  C   UNL     1       3.135  -5.245  25.348  0.00  0.00    +0.112 A 
ATOM     14  N   UNL     1       3.454  -3.892  25.519  0.00  0.00    -0.297 N 
ATOM     15  O   UNL     1       5.356  -6.341  22.850  0.00  0.00    -0.286 OA
ATOM     16  C   UNL     1       4.521  -3.354  24.696  0.00  0.00    +0.151 A 
ATOM     17  N   UNL     1       4.928  -2.062  24.833  0.00  0.00    -0.211 NA
ATOM     18  C   UNL     1       6.683   0.696  23.160  0.00  0.00    +0.112 C 
ENDROOT
BRANCH  14  19
ATOM     19  C   UNL     1       2.762  -3.093  26.505  0.00  0.00    +0.083 A 
ATOM     20  C   UNL     1       3.319  -2.785  27.766  0.00  0.00    +0.150 A 
ATOM     21  F   UNL     1       4.533  -3.241  28.110  0.00  0.00    -0.203 F 
ATOM     22  C   UNL     1       2.673  -1.957  28.685  0.00  0.00    +0.078 A 
ATOM     23  C   UNL     1       1.447  -1.405  28.355  0.00  0.00    +0.126 A 
ATOM     24  F   UNL     1       0.841  -0.574  29.212  0.00  0.00    -0.205 F 
ATOM     25  C   UNL     1       0.844  -1.697  27.143  0.00  0.00    +0.040 A 
ATOM     26  C   UNL     1       1.486  -2.551  26.239  0.00  0.00    +0.032 A 
ENDBRANCH  14  19
BRANCH   2  27
ATOM     27  N   UNL     1       8.701   3.449  25.004  0.00  0.00    -0.310 N 
ATOM     28  H   UNL     1       9.641   3.087  25.170  0.00  0.00    +0.149 HD
ATOM     29  C   UNL     1       8.594   4.794  24.712  0.00  0.00    +0.233 C 
ATOM     30  O   UNL     1       7.594   5.281  24.182  0.00  0.00    -0.274 OA
BRANCH  29  31
ATOM     31  C   UNL     1       9.873   5.643  24.959  0.00  0.00    +0.156 C 
ATOM     32  C   UNL     1       9.533   7.106  25.215  0.00  0.00    +0.038 C 
BRANCH  31  33
ATOM     33  N   UNL     1      10.908   5.468  23.936  0.00  0.00    -0.303 N 
ATOM     34  H   UNL     1      10.710   4.885  23.124  0.00  0.00    +0.149 HD
ATOM     35  C   UNL     1      12.222   5.834  24.067  0.00  0.00    +0.230 C 
ATOM     36  O   UNL     1      12.661   6.376  25.081  0.00  0.00    -0.274 OA
BRANCH  35  37
ATOM     37  C   UNL     1      13.079   5.642  22.802  0.00  0.00    +0.135 C 
ATOM     38  C   UNL     1      12.310   4.739  21.841  0.00  0.00    +0.033 C 
BRANCH  37  39
ATOM     39  N   UNL     1      14.394   5.040  23.131  0.00  0.00    -0.320 NA
ATOM     40  H   UNL     1      14.871   5.648  23.800  0.00  0.00    +0.119 HD
ATOM     41  H   UNL     1      14.223   4.174  23.647  0.00  0.00    +0.119 HD
ENDBRANCH  37  39
ENDBRANCH  35  37
ENDBRANCH  31  33
ENDBRANCH  29  31
ENDBRANCH   2  27
BRANCH  12  42
ATOM     42  C   UNL     1       3.266  -7.529  24.482  0.00  0.00    +0.342 C 
ATOM     43  O   UNL     1       3.372  -8.286  25.434  0.00  0.00    -0.245 OA
BRANCH  42  44
ATOM     44  O   UNL     1       2.733  -7.929  23.305  0.00  0.00    -0.477 OA
ATOM     45  H   UNL     1       2.029  -7.334  22.948  0.00  0.00    +0.295 HD
ENDBRANCH  42  44
ENDBRANCH  12  42
TORSDOF 8
ENDMDL
MODEL 7
REMARK VINA RESULT:      -6.8      2.168      2.761
REMARK  Name = 
REMARK  10 active torsions:
REMARK  status: ('A' for Active; 'I' for Inactive)
REMARK    1  A    between atoms: C_8  and  N_10
REMARK    2  A    between atoms: C_11  and  C_13
REMARK    3  A    between atoms: C_13  and  C_15
REMARK    4  A    between atoms: C_13  and  N_16
REMARK    5  A    between atoms: C_17  and  C_19
REMARK    6  A    between atoms: C_19  and  C_21
REMARK    7  A    between atoms: C_19  and  N_22
REMARK    8  A    between atoms: C_32  and  C_43
REMARK    9  A    between atoms: N_34  and  C_35
REMARK   10  A    between atoms: C_43  and  O_44
REMARK                            x       y       z     vdW  Elec       q    Type
REMARK                         _______ _______ _______ _____ _____    ______ ____
ROOT
ATOM      1  C   UNL     1       6.708  -3.415  24.988  0.00  0.00    +0.033 C 
ATOM      2  C   UNL     1       5.394  -3.748  25.654  0.00  0.00    +0.083 C 
ATOM      3  C   UNL     1       5.511  -2.563  24.728  0.00  0.00    +0.033 C 
ATOM      4  C   UNL     1       5.803  -1.178  25.238  0.00  0.00    +0.112 C 
ATOM      5  N   UNL     1       7.240  -1.207  25.541  0.00  0.00    -0.312 N 
ATOM      6  C   UNL     1       7.976  -0.146  25.053  0.00  0.00    +0.159 A 
ATOM      7  C   UNL     1       9.077  -0.270  24.205  0.00  0.00    +0.164 A 
ATOM      8  F   UNL     1       9.468  -1.453  23.710  0.00  0.00    -0.202 F 
ATOM      9  C   UNL     1       9.773   0.855  23.790  0.00  0.00    +0.057 A 
ATOM     10  C   UNL     1       9.369   2.104  24.253  0.00  0.00    +0.068 A 
ATOM     11  C   UNL     1      10.088   3.303  23.804  0.00  0.00    +0.205 A 
ATOM     12  C   UNL     1       9.665   4.612  24.322  0.00  0.00    +0.122 A 
ATOM     13  C   UNL     1       8.638   4.614  25.188  0.00  0.00    +0.112 A 
ATOM     14  N   UNL     1       7.898   3.511  25.631  0.00  0.00    -0.297 N 
ATOM     15  O   UNL     1      11.024   3.224  23.008  0.00  0.00    -0.286 OA
ATOM     16  C   UNL     1       8.277   2.208  25.118  0.00  0.00    +0.151 A 
ATOM     17  N   UNL     1       7.580   1.090  25.459  0.00  0.00    -0.211 NA
ATOM     18  C   UNL     1       7.748  -2.573  25.657  0.00  0.00    +0.112 C 
ENDROOT
BRANCH  14  19
ATOM     19  C   UNL     1       6.783   3.689  26.535  0.00  0.00    +0.083 A 
ATOM     20  C   UNL     1       5.466   3.925  26.084  0.00  0.00    +0.150 A 
ATOM     21  F   UNL     1       5.192   4.008  24.774  0.00  0.00    -0.203 F 
ATOM     22  C   UNL     1       4.385   4.029  26.962  0.00  0.00    +0.078 A 
ATOM     23  C   UNL     1       4.599   3.886  28.322  0.00  0.00    +0.126 A 
ATOM     24  F   UNL     1       3.563   3.940  29.166  0.00  0.00    -0.205 F 
ATOM     25  C   UNL     1       5.877   3.681  28.818  0.00  0.00    +0.040 A 
ATOM     26  C   UNL     1       6.958   3.607  27.934  0.00  0.00    +0.032 A 
ENDBRANCH  14  19
BRANCH   2  27
ATOM     27  N   UNL     1       4.694  -4.932  25.258  0.00  0.00    -0.310 N 
ATOM     28  H   UNL     1       4.152  -4.901  24.393  0.00  0.00    +0.149 HD
ATOM     29  C   UNL     1       4.916  -6.179  25.809  0.00  0.00    +0.233 C 
ATOM     30  O   UNL     1       5.801  -6.389  26.640  0.00  0.00    -0.274 OA
BRANCH  29  31
ATOM     31  C   UNL     1       4.076  -7.341  25.212  0.00  0.00    +0.156 C 
ATOM     32  C   UNL     1       3.523  -6.985  23.837  0.00  0.00    +0.038 C 
BRANCH  31  33
ATOM     33  N   UNL     1       3.052  -7.862  26.122  0.00  0.00    -0.303 N 
ATOM     34  H   UNL     1       2.961  -8.869  26.243  0.00  0.00    +0.149 HD
ATOM     35  C   UNL     1       2.031  -7.129  26.670  0.00  0.00    +0.230 C 
ATOM     36  O   UNL     1       1.890  -5.926  26.455  0.00  0.00    -0.274 OA
BRANCH  35  37
ATOM     37  C   UNL     1       1.156  -7.890  27.682  0.00  0.00    +0.135 C 
ATOM     38  C   UNL     1       1.753  -7.687  29.072  0.00  0.00    +0.033 C 
BRANCH  37  39
ATOM     39  N   UNL     1       1.092  -9.336  27.357  0.00  0.00    -0.320 NA
ATOM     40  H   UNL     1       2.033  -9.655  27.118  0.00  0.00    +0.119 HD
ATOM     41  H   UNL     1       0.859  -9.840  28.215  0.00  0.00    +0.119 HD
ENDBRANCH  37  39
ENDBRANCH  35  37
ENDBRANCH  31  33
ENDBRANCH  29  31
ENDBRANCH   2  27
BRANCH  12  42
ATOM     42  C   UNL     1      10.315   5.884  23.940  0.00  0.00    +0.342 C 
ATOM     43  O   UNL     1      10.291   6.887  24.636  0.00  0.00    -0.245 OA
BRANCH  42  44
ATOM     44  O   UNL     1      10.939   5.860  22.740  0.00  0.00    -0.477 OA
ATOM     45  H   UNL     1      10.543   6.455  22.058  0.00  0.00    +0.295 HD
ENDBRANCH  42  44
ENDBRANCH  12  42
TORSDOF 8
ENDMDL
MODEL 8
REMARK VINA RESULT:      -6.7      3.422     11.205
REMARK  Name = 
REMARK  10 active torsions:
REMARK  status: ('A' for Active; 'I' for Inactive)
REMARK    1  A    between atoms: C_8  and  N_10
REMARK    2  A    between atoms: C_11  and  C_13
REMARK    3  A    between atoms: C_13  and  C_15
REMARK    4  A    between atoms: C_13  and  N_16
REMARK    5  A    between atoms: C_17  and  C_19
REMARK    6  A    between atoms: C_19  and  C_21
REMARK    7  A    between atoms: C_19  and  N_22
REMARK    8  A    between atoms: C_32  and  C_43
REMARK    9  A    between atoms: N_34  and  C_35
REMARK   10  A    between atoms: C_43  and  O_44
REMARK                            x       y       z     vdW  Elec       q    Type
REMARK                         _______ _______ _______ _____ _____    ______ ____
ROOT
ATOM      1  C   UNL     1       4.501   1.601  26.875  0.00  0.00    +0.033 C 
ATOM      2  C   UNL     1       5.850   2.222  26.601  0.00  0.00    +0.083 C 
ATOM      3  C   UNL     1       5.248   1.229  25.638  0.00  0.00    +0.033 C 
ATOM      4  C   UNL     1       5.563  -0.241  25.706  0.00  0.00    +0.112 C 
ATOM      5  N   UNL     1       4.774  -0.721  26.847  0.00  0.00    -0.312 N 
ATOM      6  C   UNL     1       4.036  -1.866  26.625  0.00  0.00    +0.159 A 
ATOM      7  C   UNL     1       2.654  -1.963  26.793  0.00  0.00    +0.164 A 
ATOM      8  F   UNL     1       1.896  -0.902  27.105  0.00  0.00    -0.202 F 
ATOM      9  C   UNL     1       2.003  -3.167  26.573  0.00  0.00    +0.057 A 
ATOM     10  C   UNL     1       2.755  -4.281  26.208  0.00  0.00    +0.068 A 
ATOM     11  C   UNL     1       2.072  -5.556  25.954  0.00  0.00    +0.205 A 
ATOM     12  C   UNL     1       2.883  -6.728  25.594  0.00  0.00    +0.122 A 
ATOM     13  C   UNL     1       4.212  -6.543  25.528  0.00  0.00    +0.112 A 
ATOM     14  N   UNL     1       4.916  -5.350  25.731  0.00  0.00    -0.297 N 
ATOM     15  O   UNL     1       0.847  -5.650  26.036  0.00  0.00    -0.286 OA
ATOM     16  C   UNL     1       4.139  -4.171  26.064  0.00  0.00    +0.151 A 
ATOM     17  N   UNL     1       4.739  -2.960  26.230  0.00  0.00    -0.211 NA
ATOM     18  C   UNL     1       4.347   0.374  27.717  0.00  0.00    +0.112 C 
ENDROOT
BRANCH  14  19
ATOM     19  C   UNL     1       6.353  -5.310  25.575  0.00  0.00    +0.083 A 
ATOM     20  C   UNL     1       6.980  -5.200  24.314  0.00  0.00    +0.150 A 
ATOM     21  F   UNL     1       6.254  -5.142  23.188  0.00  0.00    -0.203 F 
ATOM     22  C   UNL     1       8.365  -5.094  24.177  0.00  0.00    +0.078 A 
ATOM     23  C   UNL     1       9.160  -5.082  25.311  0.00  0.00    +0.126 A 
ATOM     24  F   UNL     1      10.485  -4.936  25.192  0.00  0.00    -0.205 F 
ATOM     25  C   UNL     1       8.596  -5.215  26.570  0.00  0.00    +0.040 A 
ATOM     26  C   UNL     1       7.210  -5.350  26.696  0.00  0.00    +0.032 A 
ENDBRANCH  14  19
BRANCH   2  27
ATOM     27  N   UNL     1       5.923   3.615  26.280  0.00  0.00    -0.310 N 
ATOM     28  H   UNL     1       5.226   3.995  25.638  0.00  0.00    +0.149 HD
ATOM     29  C   UNL     1       6.689   4.526  26.979  0.00  0.00    +0.233 C 
ATOM     30  O   UNL     1       7.316   4.225  27.996  0.00  0.00    -0.274 OA
BRANCH  29  31
ATOM     31  C   UNL     1       6.600   5.999  26.492  0.00  0.00    +0.156 C 
ATOM     32  C   UNL     1       5.160   6.497  26.476  0.00  0.00    +0.038 C 
BRANCH  31  33
ATOM     33  N   UNL     1       7.306   6.252  25.233  0.00  0.00    -0.303 N 
ATOM     34  H   UNL     1       6.780   6.260  24.361  0.00  0.00    +0.149 HD
ATOM     35  C   UNL     1       8.668   6.258  25.075  0.00  0.00    +0.230 C 
ATOM     36  O   UNL     1       9.444   6.065  26.010  0.00  0.00    -0.274 OA
BRANCH  35  37
ATOM     37  C   UNL     1       9.157   6.661  23.672  0.00  0.00    +0.135 C 
ATOM     38  C   UNL     1       8.033   6.377  22.679  0.00  0.00    +0.033 C 
BRANCH  37  39
ATOM     39  N   UNL     1      10.379   5.911  23.293  0.00  0.00    -0.320 NA
ATOM     40  H   UNL     1      10.687   5.366  24.101  0.00  0.00    +0.119 HD
ATOM     41  H   UNL     1      10.115   5.212  22.596  0.00  0.00    +0.119 HD
ENDBRANCH  37  39
ENDBRANCH  35  37
ENDBRANCH  31  33
ENDBRANCH  29  31
ENDBRANCH   2  27
BRANCH  12  42
ATOM     42  C   UNL     1       2.304  -8.060  25.318  0.00  0.00    +0.342 C 
ATOM     43  O   UNL     1       2.415  -8.632  24.244  0.00  0.00    -0.245 OA
BRANCH  42  44
ATOM     44  O   UNL     1       1.622  -8.604  26.351  0.00  0.00    -0.477 OA
ATOM     45  H   UNL     1       1.693  -8.104  27.200  0.00  0.00    +0.295 HD
ENDBRANCH  42  44
ENDBRANCH  12  42
TORSDOF 8
ENDMDL
MODEL 9
REMARK VINA RESULT:      -6.3      2.291      3.092
REMARK  Name = 
REMARK  10 active torsions:
REMARK  status: ('A' for Active; 'I' for Inactive)
REMARK    1  A    between atoms: C_8  and  N_10
REMARK    2  A    between atoms: C_11  and  C_13
REMARK    3  A    between atoms: C_13  and  C_15
REMARK    4  A    between atoms: C_13  and  N_16
REMARK    5  A    between atoms: C_17  and  C_19
REMARK    6  A    between atoms: C_19  and  C_21
REMARK    7  A    between atoms: C_19  and  N_22
REMARK    8  A    between atoms: C_32  and  C_43
REMARK    9  A    between atoms: N_34  and  C_35
REMARK   10  A    between atoms: C_43  and  O_44
REMARK                            x       y       z     vdW  Elec       q    Type
REMARK                         _______ _______ _______ _____ _____    ______ ____
ROOT
ATOM      1  C   UNL     1       6.630  -3.409  25.800  0.00  0.00    +0.033 C 
ATOM      2  C   UNL     1       5.314  -3.663  26.496  0.00  0.00    +0.083 C 
ATOM      3  C   UNL     1       5.429  -2.610  25.422  0.00  0.00    +0.033 C 
ATOM      4  C   UNL     1       5.705  -1.167  25.746  0.00  0.00    +0.112 C 
ATOM      5  N   UNL     1       7.139  -1.142  26.060  0.00  0.00    -0.312 N 
ATOM      6  C   UNL     1       7.871  -0.149  25.441  0.00  0.00    +0.159 A 
ATOM      7  C   UNL     1       8.980  -0.374  24.624  0.00  0.00    +0.164 A 
ATOM      8  F   UNL     1       9.384  -1.608  24.292  0.00  0.00    -0.202 F 
ATOM      9  C   UNL     1       9.669   0.693  24.068  0.00  0.00    +0.057 A 
ATOM     10  C   UNL     1       9.252   1.989  24.359  0.00  0.00    +0.068 A 
ATOM     11  C   UNL     1       9.965   3.124  23.760  0.00  0.00    +0.205 A 
ATOM     12  C   UNL     1       9.526   4.486  24.098  0.00  0.00    +0.122 A 
ATOM     13  C   UNL     1       8.493   4.593  24.948  0.00  0.00    +0.112 A 
ATOM     14  N   UNL     1       7.758   3.552  25.529  0.00  0.00    -0.297 N 
ATOM     15  O   UNL     1      10.907   2.949  22.988  0.00  0.00    -0.286 OA
ATOM     16  C   UNL     1       8.152   2.196  25.195  0.00  0.00    +0.151 A 
ATOM     17  N   UNL     1       7.462   1.126  25.676  0.00  0.00    -0.211 NA
ATOM     18  C   UNL     1       7.657  -2.477  26.359  0.00  0.00    +0.112 C 
ENDROOT
BRANCH  14  19
ATOM     19  C   UNL     1       6.635   3.838  26.393  0.00  0.00    +0.083 A 
ATOM     20  C   UNL     1       5.323   4.025  25.904  0.00  0.00    +0.150 A 
ATOM     21  F   UNL     1       5.064   3.956  24.589  0.00  0.00    -0.203 F 
ATOM     22  C   UNL     1       4.234   4.234  26.751  0.00  0.00    +0.078 A 
ATOM     23  C   UNL     1       4.433   4.249  28.121  0.00  0.00    +0.126 A 
ATOM     24  F   UNL     1       3.388   4.404  28.942  0.00  0.00    -0.205 F 
ATOM     25  C   UNL     1       5.704   4.098  28.652  0.00  0.00    +0.040 A 
ATOM     26  C   UNL     1       6.795   3.918  27.794  0.00  0.00    +0.032 A 
ENDBRANCH  14  19
BRANCH   2  27
ATOM     27  N   UNL     1       4.626  -4.895  26.255  0.00  0.00    -0.310 N 
ATOM     28  H   UNL     1       5.177  -5.755  26.235  0.00  0.00    +0.149 HD
ATOM     29  C   UNL     1       3.254  -5.036  26.318  0.00  0.00    +0.233 C 
ATOM     30  O   UNL     1       2.509  -4.120  26.670  0.00  0.00    -0.274 OA
BRANCH  29  31
ATOM     31  C   UNL     1       2.708  -6.467  26.060  0.00  0.00    +0.156 C 
ATOM     32  C   UNL     1       3.762  -7.529  26.347  0.00  0.00    +0.038 C 
BRANCH  31  33
ATOM     33  N   UNL     1       2.073  -6.633  24.749  0.00  0.00    -0.303 N 
ATOM     34  H   UNL     1       1.148  -7.056  24.695  0.00  0.00    +0.149 HD
ATOM     35  C   UNL     1       2.699  -6.479  23.539  0.00  0.00    +0.230 C 
ATOM     36  O   UNL     1       3.884  -6.159  23.442  0.00  0.00    -0.274 OA
BRANCH  35  37
ATOM     37  C   UNL     1       1.778  -6.600  22.311  0.00  0.00    +0.135 C 
ATOM     38  C   UNL     1       0.443  -5.944  22.654  0.00  0.00    +0.033 C 
BRANCH  37  39
ATOM     39  N   UNL     1       1.571  -8.018  21.933  0.00  0.00    -0.320 NA
ATOM     40  H   UNL     1       0.687  -8.092  21.425  0.00  0.00    +0.119 HD
ATOM     41  H   UNL     1       2.285  -8.267  21.244  0.00  0.00    +0.119 HD
ENDBRANCH  37  39
ENDBRANCH  35  37
ENDBRANCH  31  33
ENDBRANCH  29  31
ENDBRANCH   2  27
BRANCH  12  42
ATOM     42  C   UNL     1      10.169   5.702  23.554  0.00  0.00    +0.342 C 
ATOM     43  O   UNL     1       9.568   6.746  23.350  0.00  0.00    -0.245 OA
BRANCH  42  44
ATOM     44  O   UNL     1      11.488   5.571  23.285  0.00  0.00    -0.477 OA
ATOM     45  H   UNL     1      11.963   4.923  23.860  0.00  0.00    +0.295 HD
ENDBRANCH  42  44
ENDBRANCH  12  42
TORSDOF 8
ENDMDL
