MODEL 1
REMARK VINA RESULT:      -5.2      0.000      0.000
REMARK  Name = 
REMARK  25 active torsions:
REMARK  status: ('A' for Active; 'I' for Inactive)
REMARK    1  A    between atoms: C_2  and  O_3
REMARK    2  A    between atoms: C_2  and  C_4
REMARK    3  A    between atoms: C_2  and  C_6
REMARK    4  A    between atoms: C_4  and  O_5
REMARK    5  A    between atoms: C_6  and  O_7
REMARK    6  A    between atoms: O_7  and  P_8
REMARK    7  A    between atoms: P_8  and  O_11
REMARK    8  A    between atoms: O_11  and  C_12
REMARK    9  A    between atoms: C_12  and  C_13
REMARK   10  A    between atoms: C_13  and  C_15
REMARK   11  A    between atoms: C_13  and  O_23
REMARK   12  A    between atoms: C_15  and  O_16
REMARK   13  A    between atoms: O_16  and  C_17
REMARK   14  A    between atoms: C_17  and  C_19
REMARK   15  A    between atoms: C_19  and  C_20
REMARK   16  A    between atoms: C_20  and  C_21
REMARK   17  A    between atoms: C_21  and  C_22
REMARK   18  A    between atoms: O_23  and  C_24
REMARK   19  A    between atoms: C_24  and  C_26
REMARK   20  A    between atoms: C_26  and  C_27
REMARK   21  A    between atoms: C_27  and  C_28
REMARK   22  A    between atoms: C_28  and  C_29
REMARK   23  A    between atoms: C_29  and  C_30
REMARK   24  A    between atoms: C_30  and  C_31
REMARK   25  A    between atoms: C_31  and  C_32
REMARK                            x       y       z     vdW  Elec       q    Type
REMARK                         _______ _______ _______ _____ _____    ______ ____
ROOT
ATOM      1  C   UNL     1       7.157  -1.158  23.521  0.00  0.00    +0.240 C 
ENDROOT
BRANCH   1   2
ATOM      2  C   UNL     1       6.161  -0.261  24.266  0.00  0.00    +0.279 C 
BRANCH   2   3
ATOM      3  O   UNL     1       6.726   1.040  24.520  0.00  0.00    -0.461 OA
BRANCH   3   4
ATOM      4  C   UNL     1       6.627   1.972  23.539  0.00  0.00    +0.307 C 
ATOM      5  O   UNL     1       6.302   1.767  22.376  0.00  0.00    -0.251 OA
BRANCH   4   6
ATOM      6  C   UNL     1       6.952   3.343  24.081  0.00  0.00    +0.120 C 
BRANCH   6   7
ATOM      7  C   UNL     1       6.432   4.434  23.151  0.00  0.00    +0.011 C 
BRANCH   7   8
ATOM      8  C   UNL     1       7.529   4.968  22.231  0.00  0.00    -0.003 C 
ATOM      9  C   UNL     1       7.578   6.487  22.269  0.00  0.00    +0.004 C 
ENDBRANCH   7   8
ENDBRANCH   6   7
ENDBRANCH   4   6
ENDBRANCH   3   4
ENDBRANCH   2   3
ENDBRANCH   1   2
BRANCH   1  10
ATOM     10  C   UNL     1       6.501  -2.323  22.784  0.00  0.00    +0.216 C 
BRANCH  10  11
ATOM     11  O   UNL     1       5.915  -3.261  23.670  0.00  0.00    -0.324 OA
BRANCH  11  12
ATOM     12  P   UNL     1       6.370  -4.799  23.379  0.00  0.00    +0.213 P 
ATOM     13  O   UNL     1       5.198  -5.505  22.732  0.00  0.00    -0.517 OA
ATOM     14  O   UNL     1       7.726  -4.776  22.740  0.00  0.00    -0.437 OA
BRANCH  12  15
ATOM     15  O   UNL     1       6.487  -5.370  24.882  0.00  0.00    -0.325 OA
BRANCH  15  16
ATOM     16  C   UNL     1       6.844  -4.525  25.959  0.00  0.00    +0.201 C 
BRANCH  16  17
ATOM     17  C   UNL     1       8.085  -4.881  26.798  0.00  0.00    +0.166 C 
BRANCH  17  18
ATOM     18  O   UNL     1       7.932  -6.104  27.524  0.00  0.00    -0.387 OA
ATOM     19  H   UNL     1       6.968  -6.170  27.747  0.00  0.00    +0.210 HD
ENDBRANCH  17  18
BRANCH  17  20
ATOM     20  C   UNL     1       9.427  -4.862  26.054  0.00  0.00    +0.189 C 
BRANCH  20  21
ATOM     21  O   UNL     1       9.545  -5.766  24.966  0.00  0.00    -0.392 OA
ATOM     22  H   UNL     1      10.173  -5.378  24.304  0.00  0.00    +0.210 HD
ENDBRANCH  20  21
ENDBRANCH  17  20
ENDBRANCH  16  17
ENDBRANCH  15  16
ENDBRANCH  12  15
ENDBRANCH  11  12
ENDBRANCH  10  11
ENDBRANCH   1  10
BRANCH   1  23
ATOM     23  O   UNL     1       8.065  -1.739  24.488  0.00  0.00    -0.456 OA
BRANCH  23  24
ATOM     24  C   UNL     1       9.397  -1.636  24.259  0.00  0.00    +0.308 C 
ATOM     25  O   UNL     1      10.083  -2.428  23.632  0.00  0.00    -0.251 OA
BRANCH  24  26
ATOM     26  C   UNL     1       9.923  -0.369  24.894  0.00  0.00    +0.120 C 
BRANCH  26  27
ATOM     27  C   UNL     1      10.806   0.428  23.938  0.00  0.00    +0.011 C 
BRANCH  27  28
ATOM     28  C   UNL     1      10.087   0.783  22.634  0.00  0.00    +0.001 C 
BRANCH  28  29
ATOM     29  C   UNL     1      10.177   2.281  22.342  0.00  0.00    +0.000 C 
BRANCH  29  30
ATOM     30  C   UNL     1      10.542   3.072  23.599  0.00  0.00    -0.000 C 
BRANCH  30  31
ATOM     31  C   UNL     1      11.555   4.173  23.284  0.00  0.00    -0.003 C 
ATOM     32  C   UNL     1      11.025   5.545  23.668  0.00  0.00    +0.004 C 
ENDBRANCH  30  31
ENDBRANCH  29  30
ENDBRANCH  28  29
ENDBRANCH  27  28
ENDBRANCH  26  27
ENDBRANCH  24  26
ENDBRANCH  23  24
ENDBRANCH   1  23
TORSDOF 23
ENDMDL
MODEL 2
REMARK VINA RESULT:      -5.2      1.570      2.433
REMARK  Name = 
REMARK  25 active torsions:
REMARK  status: ('A' for Active; 'I' for Inactive)
REMARK    1  A    between atoms: C_2  and  O_3
REMARK    2  A    between atoms: C_2  and  C_4
REMARK    3  A    between atoms: C_2  and  C_6
REMARK    4  A    between atoms: C_4  and  O_5
REMARK    5  A    between atoms: C_6  and  O_7
REMARK    6  A    between atoms: O_7  and  P_8
REMARK    7  A    between atoms: P_8  and  O_11
REMARK    8  A    between atoms: O_11  and  C_12
REMARK    9  A    between atoms: C_12  and  C_13
REMARK   10  A    between atoms: C_13  and  C_15
REMARK   11  A    between atoms: C_13  and  O_23
REMARK   12  A    between atoms: C_15  and  O_16
REMARK   13  A    between atoms: O_16  and  C_17
REMARK   14  A    between atoms: C_17  and  C_19
REMARK   15  A    between atoms: C_19  and  C_20
REMARK   16  A    between atoms: C_20  and  C_21
REMARK   17  A    between atoms: C_21  and  C_22
REMARK   18  A    between atoms: O_23  and  C_24
REMARK   19  A    between atoms: C_24  and  C_26
REMARK   20  A    between atoms: C_26  and  C_27
REMARK   21  A    between atoms: C_27  and  C_28
REMARK   22  A    between atoms: C_28  and  C_29
REMARK   23  A    between atoms: C_29  and  C_30
REMARK   24  A    between atoms: C_30  and  C_31
REMARK   25  A    between atoms: C_31  and  C_32
REMARK                            x       y       z     vdW  Elec       q    Type
REMARK                         _______ _______ _______ _____ _____    ______ ____
ROOT
ATOM      1  C   UNL     1       7.259  -1.935  22.601  0.00  0.00    +0.240 C 
ENDROOT
BRANCH   1   2
ATOM      2  C   UNL     1       6.460  -1.336  23.765  0.00  0.00    +0.279 C 
BRANCH   2   3
ATOM      3  O   UNL     1       6.290   0.085  23.597  0.00  0.00    -0.461 OA
BRANCH   3   4
ATOM      4  C   UNL     1       5.653   0.763  24.585  0.00  0.00    +0.307 C 
ATOM      5  O   UNL     1       4.985   0.272  25.485  0.00  0.00    -0.251 OA
BRANCH   4   6
ATOM      6  C   UNL     1       5.899   2.246  24.447  0.00  0.00    +0.120 C 
BRANCH   6   7
ATOM      7  C   UNL     1       5.974   2.652  22.978  0.00  0.00    +0.011 C 
BRANCH   7   8
ATOM      8  C   UNL     1       5.935   4.169  22.804  0.00  0.00    -0.003 C 
ATOM      9  C   UNL     1       7.267   4.692  22.291  0.00  0.00    +0.004 C 
ENDBRANCH   7   8
ENDBRANCH   6   7
ENDBRANCH   4   6
ENDBRANCH   3   4
ENDBRANCH   2   3
ENDBRANCH   1   2
BRANCH   1  10
ATOM     10  C   UNL     1       6.738  -3.292  22.133  0.00  0.00    +0.216 C 
BRANCH  10  11
ATOM     11  O   UNL     1       5.352  -3.454  22.382  0.00  0.00    -0.324 OA
BRANCH  11  12
ATOM     12  P   UNL     1       4.979  -4.895  23.047  0.00  0.00    +0.213 P 
ATOM     13  O   UNL     1       3.473  -5.036  23.011  0.00  0.00    -0.517 OA
ATOM     14  O   UNL     1       5.883  -5.935  22.456  0.00  0.00    -0.437 OA
BRANCH  12  15
ATOM     15  O   UNL     1       5.385  -4.632  24.586  0.00  0.00    -0.325 OA
BRANCH  15  16
ATOM     16  C   UNL     1       6.143  -5.580  25.313  0.00  0.00    +0.201 C 
BRANCH  16  17
ATOM     17  C   UNL     1       7.543  -5.180  25.813  0.00  0.00    +0.166 C 
BRANCH  17  18
ATOM     18  O   UNL     1       7.939  -5.895  26.987  0.00  0.00    -0.387 OA
ATOM     19  H   UNL     1       7.871  -5.249  27.736  0.00  0.00    +0.210 HD
ENDBRANCH  17  18
BRANCH  17  20
ATOM     20  C   UNL     1       8.664  -5.203  24.766  0.00  0.00    +0.189 C 
BRANCH  20  21
ATOM     21  O   UNL     1       9.901  -5.752  25.195  0.00  0.00    -0.392 OA
ATOM     22  H   UNL     1      10.509  -5.005  25.431  0.00  0.00    +0.210 HD
ENDBRANCH  20  21
ENDBRANCH  17  20
ENDBRANCH  16  17
ENDBRANCH  15  16
ENDBRANCH  12  15
ENDBRANCH  11  12
ENDBRANCH  10  11
ENDBRANCH   1  10
BRANCH   1  23
ATOM     23  O   UNL     1       8.623  -2.147  23.041  0.00  0.00    -0.456 OA
BRANCH  23  24
ATOM     24  C   UNL     1       9.620  -1.553  22.340  0.00  0.00    +0.308 C 
ATOM     25  O   UNL     1      10.795  -1.887  22.337  0.00  0.00    -0.251 OA
BRANCH  24  26
ATOM     26  C   UNL     1       9.060  -0.401  21.538  0.00  0.00    +0.120 C 
BRANCH  26  27
ATOM     27  C   UNL     1       9.844   0.889  21.763  0.00  0.00    +0.011 C 
BRANCH  27  28
ATOM     28  C   UNL     1       9.498   1.560  23.095  0.00  0.00    +0.001 C 
BRANCH  28  29
ATOM     29  C   UNL     1      10.689   1.532  24.054  0.00  0.00    +0.000 C 
BRANCH  29  30
ATOM     30  C   UNL     1      10.551   0.407  25.080  0.00  0.00    -0.000 C 
BRANCH  30  31
ATOM     31  C   UNL     1       9.112   0.288  25.581  0.00  0.00    -0.003 C 
ATOM     32  C   UNL     1       8.945  -0.892  26.524  0.00  0.00    +0.004 C 
ENDBRANCH  30  31
ENDBRANCH  29  30
ENDBRANCH  28  29
ENDBRANCH  27  28
ENDBRANCH  26  27
ENDBRANCH  24  26
ENDBRANCH  23  24
ENDBRANCH   1  23
TORSDOF 23
ENDMDL
MODEL 3
REMARK VINA RESULT:      -5.1      2.639      7.793
REMARK  Name = 
REMARK  25 active torsions:
REMARK  status: ('A' for Active; 'I' for Inactive)
REMARK    1  A    between atoms: C_2  and  O_3
REMARK    2  A    between atoms: C_2  and  C_4
REMARK    3  A    between atoms: C_2  and  C_6
REMARK    4  A    between atoms: C_4  and  O_5
REMARK    5  A    between atoms: C_6  and  O_7
REMARK    6  A    between atoms: O_7  and  P_8
REMARK    7  A    between atoms: P_8  and  O_11
REMARK    8  A    between atoms: O_11  and  C_12
REMARK    9  A    between atoms: C_12  and  C_13
REMARK   10  A    between atoms: C_13  and  C_15
REMARK   11  A    between atoms: C_13  and  O_23
REMARK   12  A    between atoms: C_15  and  O_16
REMARK   13  A    between atoms: O_16  and  C_17
REMARK   14  A    between atoms: C_17  and  C_19
REMARK   15  A    between atoms: C_19  and  C_20
REMARK   16  A    between atoms: C_20  and  C_21
REMARK   17  A    between atoms: C_21  and  C_22
REMARK   18  A    between atoms: O_23  and  C_24
REMARK   19  A    between atoms: C_24  and  C_26
REMARK   20  A    between atoms: C_26  and  C_27
REMARK   21  A    between atoms: C_27  and  C_28
REMARK   22  A    between atoms: C_28  and  C_29
REMARK   23  A    between atoms: C_29  and  C_30
REMARK   24  A    between atoms: C_30  and  C_31
REMARK   25  A    between atoms: C_31  and  C_32
REMARK                            x       y       z     vdW  Elec       q    Type
REMARK                         _______ _______ _______ _____ _____    ______ ____
ROOT
ATOM      1  C   UNL     1       8.302  -3.314  23.728  0.00  0.00    +0.240 C 
ENDROOT
BRANCH   1   2
ATOM      2  C   UNL     1       7.482  -3.414  22.436  0.00  0.00    +0.279 C 
BRANCH   2   3
ATOM      3  O   UNL     1       7.509  -4.754  21.908  0.00  0.00    -0.461 OA
BRANCH   3   4
ATOM      4  C   UNL     1       6.329  -5.306  21.530  0.00  0.00    +0.307 C 
ATOM      5  O   UNL     1       5.884  -5.352  20.390  0.00  0.00    -0.251 OA
BRANCH   4   6
ATOM      6  C   UNL     1       5.619  -5.899  22.723  0.00  0.00    +0.120 C 
BRANCH   6   7
ATOM      7  C   UNL     1       4.279  -5.209  22.959  0.00  0.00    +0.011 C 
BRANCH   7   8
ATOM      8  C   UNL     1       3.167  -6.213  23.255  0.00  0.00    -0.003 C 
ATOM      9  C   UNL     1       3.530  -7.092  24.441  0.00  0.00    +0.004 C 
ENDBRANCH   7   8
ENDBRANCH   6   7
ENDBRANCH   4   6
ENDBRANCH   3   4
ENDBRANCH   2   3
ENDBRANCH   1   2
BRANCH   1  10
ATOM     10  C   UNL     1       9.533  -2.418  23.607  0.00  0.00    +0.216 C 
BRANCH  10  11
ATOM     11  O   UNL     1       9.521  -1.356  24.546  0.00  0.00    -0.324 OA
BRANCH  11  12
ATOM     12  P   UNL     1      10.106   0.042  23.947  0.00  0.00    +0.213 P 
ATOM     13  O   UNL     1      11.198   0.516  24.882  0.00  0.00    -0.517 OA
ATOM     14  O   UNL     1      10.349  -0.138  22.479  0.00  0.00    -0.437 OA
BRANCH  12  15
ATOM     15  O   UNL     1       8.843   1.020  24.173  0.00  0.00    -0.325 OA
BRANCH  15  16
ATOM     16  C   UNL     1       7.556   0.671  23.702  0.00  0.00    +0.201 C 
BRANCH  16  17
ATOM     17  C   UNL     1       6.992   1.413  22.476  0.00  0.00    +0.166 C 
BRANCH  17  18
ATOM     18  O   UNL     1       5.634   1.826  22.653  0.00  0.00    -0.387 OA
ATOM     19  H   UNL     1       5.166   1.057  23.070  0.00  0.00    +0.210 HD
ENDBRANCH  17  18
BRANCH  17  20
ATOM     20  C   UNL     1       7.842   2.573  21.943  0.00  0.00    +0.189 C 
BRANCH  20  21
ATOM     21  O   UNL     1       9.082   2.212  21.354  0.00  0.00    -0.392 OA
ATOM     22  H   UNL     1       8.902   1.600  20.595  0.00  0.00    +0.210 HD
ENDBRANCH  20  21
ENDBRANCH  17  20
ENDBRANCH  16  17
ENDBRANCH  15  16
ENDBRANCH  12  15
ENDBRANCH  11  12
ENDBRANCH  10  11
ENDBRANCH   1  10
BRANCH   1  23
ATOM     23  O   UNL     1       8.788  -4.637  24.067  0.00  0.00    -0.456 OA
BRANCH  23  24
ATOM     24  C   UNL     1       9.363  -4.815  25.282  0.00  0.00    +0.308 C 
ATOM     25  O   UNL     1      10.469  -5.288  25.492  0.00  0.00    -0.251 OA
BRANCH  24  26
ATOM     26  C   UNL     1       8.425  -4.327  26.363  0.00  0.00    +0.120 C 
BRANCH  26  27
ATOM     27  C   UNL     1       7.739  -5.480  27.090  0.00  0.00    +0.011 C 
BRANCH  27  28
ATOM     28  C   UNL     1       6.272  -5.641  26.682  0.00  0.00    +0.001 C 
BRANCH  28  29
ATOM     29  C   UNL     1       5.746  -4.380  25.997  0.00  0.00    +0.000 C 
BRANCH  29  30
ATOM     30  C   UNL     1       4.363  -3.995  26.525  0.00  0.00    -0.000 C 
BRANCH  30  31
ATOM     31  C   UNL     1       3.944  -2.614  26.021  0.00  0.00    -0.003 C 
ATOM     32  C   UNL     1       5.071  -1.931  25.262  0.00  0.00    +0.004 C 
ENDBRANCH  30  31
ENDBRANCH  29  30
ENDBRANCH  28  29
ENDBRANCH  27  28
ENDBRANCH  26  27
ENDBRANCH  24  26
ENDBRANCH  23  24
ENDBRANCH   1  23
TORSDOF 23
ENDMDL
MODEL 4
REMARK VINA RESULT:      -5.1      1.699      3.872
REMARK  Name = 
REMARK  25 active torsions:
REMARK  status: ('A' for Active; 'I' for Inactive)
REMARK    1  A    between atoms: C_2  and  O_3
REMARK    2  A    between atoms: C_2  and  C_4
REMARK    3  A    between atoms: C_2  and  C_6
REMARK    4  A    between atoms: C_4  and  O_5
REMARK    5  A    between atoms: C_6  and  O_7
REMARK    6  A    between atoms: O_7  and  P_8
REMARK    7  A    between atoms: P_8  and  O_11
REMARK    8  A    between atoms: O_11  and  C_12
REMARK    9  A    between atoms: C_12  and  C_13
REMARK   10  A    between atoms: C_13  and  C_15
REMARK   11  A    between atoms: C_13  and  O_23
REMARK   12  A    between atoms: C_15  and  O_16
REMARK   13  A    between atoms: O_16  and  C_17
REMARK   14  A    between atoms: C_17  and  C_19
REMARK   15  A    between atoms: C_19  and  C_20
REMARK   16  A    between atoms: C_20  and  C_21
REMARK   17  A    between atoms: C_21  and  C_22
REMARK   18  A    between atoms: O_23  and  C_24
REMARK   19  A    between atoms: C_24  and  C_26
REMARK   20  A    between atoms: C_26  and  C_27
REMARK   21  A    between atoms: C_27  and  C_28
REMARK   22  A    between atoms: C_28  and  C_29
REMARK   23  A    between atoms: C_29  and  C_30
REMARK   24  A    between atoms: C_30  and  C_31
REMARK   25  A    between atoms: C_31  and  C_32
REMARK                            x       y       z     vdW  Elec       q    Type
REMARK                         _______ _______ _______ _____ _____    ______ ____
ROOT
ATOM      1  C   UNL     1       6.370   0.373  24.803  0.00  0.00    +0.240 C 
ENDROOT
BRANCH   1   2
ATOM      2  C   UNL     1       7.645   0.885  25.483  0.00  0.00    +0.279 C 
BRANCH   2   3
ATOM      3  O   UNL     1       8.804   0.163  25.020  0.00  0.00    -0.461 OA
BRANCH   3   4
ATOM      4  C   UNL     1       9.934   0.875  24.781  0.00  0.00    +0.307 C 
ATOM      5  O   UNL     1      11.078   0.520  25.032  0.00  0.00    -0.251 OA
BRANCH   4   6
ATOM      6  C   UNL     1       9.598   2.190  24.121  0.00  0.00    +0.120 C 
BRANCH   6   7
ATOM      7  C   UNL     1      10.064   2.206  22.669  0.00  0.00    +0.011 C 
BRANCH   7   8
ATOM      8  C   UNL     1       9.021   1.605  21.729  0.00  0.00    -0.003 C 
ATOM      9  C   UNL     1       9.375   0.170  21.371  0.00  0.00    +0.004 C 
ENDBRANCH   7   8
ENDBRANCH   6   7
ENDBRANCH   4   6
ENDBRANCH   3   4
ENDBRANCH   2   3
ENDBRANCH   1   2
BRANCH   1  10
ATOM     10  C   UNL     1       6.420  -1.110  24.440  0.00  0.00    +0.216 C 
BRANCH  10  11
ATOM     11  O   UNL     1       6.322  -1.327  23.043  0.00  0.00    -0.324 OA
BRANCH  11  12
ATOM     12  P   UNL     1       6.540  -2.885  22.615  0.00  0.00    +0.213 P 
ATOM     13  O   UNL     1       5.287  -3.338  21.896  0.00  0.00    -0.517 OA
ATOM     14  O   UNL     1       7.897  -3.017  21.991  0.00  0.00    -0.437 OA
BRANCH  12  15
ATOM     15  O   UNL     1       6.533  -3.600  24.060  0.00  0.00    -0.325 OA
BRANCH  15  16
ATOM     16  C   UNL     1       7.167  -4.849  24.259  0.00  0.00    +0.201 C 
BRANCH  16  17
ATOM     17  C   UNL     1       8.464  -4.895  25.086  0.00  0.00    +0.166 C 
BRANCH  17  18
ATOM     18  O   UNL     1       9.480  -5.701  24.482  0.00  0.00    -0.387 OA
ATOM     19  H   UNL     1       9.419  -6.590  24.919  0.00  0.00    +0.210 HD
ENDBRANCH  17  18
BRANCH  17  20
ATOM     20  C   UNL     1       9.038  -3.538  25.513  0.00  0.00    +0.189 C 
BRANCH  20  21
ATOM     21  O   UNL     1       9.558  -2.729  24.468  0.00  0.00    -0.392 OA
ATOM     22  H   UNL     1       8.824  -2.536  23.829  0.00  0.00    +0.210 HD
ENDBRANCH  20  21
ENDBRANCH  17  20
ENDBRANCH  16  17
ENDBRANCH  15  16
ENDBRANCH  12  15
ENDBRANCH  11  12
ENDBRANCH  10  11
ENDBRANCH   1  10
BRANCH   1  23
ATOM     23  O   UNL     1       6.190   1.095  23.560  0.00  0.00    -0.456 OA
BRANCH  23  24
ATOM     24  C   UNL     1       5.376   2.179  23.562  0.00  0.00    +0.308 C 
ATOM     25  O   UNL     1       4.412   2.355  24.291  0.00  0.00    -0.251 OA
BRANCH  24  26
ATOM     26  C   UNL     1       5.845   3.167  22.517  0.00  0.00    +0.120 C 
BRANCH  26  27
ATOM     27  C   UNL     1       6.546   4.371  23.141  0.00  0.00    +0.011 C 
BRANCH  27  28
ATOM     28  C   UNL     1       7.344   5.181  22.115  0.00  0.00    +0.001 C 
BRANCH  28  29
ATOM     29  C   UNL     1       8.008   6.395  22.765  0.00  0.00    +0.000 C 
BRANCH  29  30
ATOM     30  C   UNL     1       9.349   6.023  23.400  0.00  0.00    -0.000 C 
BRANCH  30  31
ATOM     31  C   UNL     1       9.482   6.621  24.800  0.00  0.00    -0.003 C 
ATOM     32  C   UNL     1       8.750   5.783  25.836  0.00  0.00    +0.004 C 
ENDBRANCH  30  31
ENDBRANCH  29  30
ENDBRANCH  28  29
ENDBRANCH  27  28
ENDBRANCH  26  27
ENDBRANCH  24  26
ENDBRANCH  23  24
ENDBRANCH   1  23
TORSDOF 23
ENDMDL
MODEL 5
REMARK VINA RESULT:      -5.1      1.709      4.067
REMARK  Name = 
REMARK  25 active torsions:
REMARK  status: ('A' for Active; 'I' for Inactive)
REMARK    1  A    between atoms: C_2  and  O_3
REMARK    2  A    between atoms: C_2  and  C_4
REMARK    3  A    between atoms: C_2  and  C_6
REMARK    4  A    between atoms: C_4  and  O_5
REMARK    5  A    between atoms: C_6  and  O_7
REMARK    6  A    between atoms: O_7  and  P_8
REMARK    7  A    between atoms: P_8  and  O_11
REMARK    8  A    between atoms: O_11  and  C_12
REMARK    9  A    between atoms: C_12  and  C_13
REMARK   10  A    between atoms: C_13  and  C_15
REMARK   11  A    between atoms: C_13  and  O_23
REMARK   12  A    between atoms: C_15  and  O_16
REMARK   13  A    between atoms: O_16  and  C_17
REMARK   14  A    between atoms: C_17  and  C_19
REMARK   15  A    between atoms: C_19  and  C_20
REMARK   16  A    between atoms: C_20  and  C_21
REMARK   17  A    between atoms: C_21  and  C_22
REMARK   18  A    between atoms: O_23  and  C_24
REMARK   19  A    between atoms: C_24  and  C_26
REMARK   20  A    between atoms: C_26  and  C_27
REMARK   21  A    between atoms: C_27  and  C_28
REMARK   22  A    between atoms: C_28  and  C_29
REMARK   23  A    between atoms: C_29  and  C_30
REMARK   24  A    between atoms: C_30  and  C_31
REMARK   25  A    between atoms: C_31  and  C_32
REMARK                            x       y       z     vdW  Elec       q    Type
REMARK                         _______ _______ _______ _____ _____    ______ ____
ROOT
ATOM      1  C   UNL     1       7.992  -1.165  25.962  0.00  0.00    +0.240 C 
ENDROOT
BRANCH   1   2
ATOM      2  C   UNL     1       9.172  -1.250  24.987  0.00  0.00    +0.279 C 
BRANCH   2   3
ATOM      3  O   UNL     1       8.765  -1.830  23.732  0.00  0.00    -0.461 OA
BRANCH   3   4
ATOM      4  C   UNL     1       9.416  -1.429  22.612  0.00  0.00    +0.307 C 
ATOM      5  O   UNL     1       9.410  -1.998  21.528  0.00  0.00    -0.251 OA
BRANCH   4   6
ATOM      6  C   UNL     1      10.153  -0.136  22.867  0.00  0.00    +0.120 C 
BRANCH   6   7
ATOM      7  C   UNL     1       9.780   0.917  21.829  0.00  0.00    +0.011 C 
BRANCH   7   8
ATOM      8  C   UNL     1      10.265   2.309  22.232  0.00  0.00    -0.003 C 
ATOM      9  C   UNL     1      10.514   2.385  23.730  0.00  0.00    +0.004 C 
ENDBRANCH   7   8
ENDBRANCH   6   7
ENDBRANCH   4   6
ENDBRANCH   3   4
ENDBRANCH   2   3
ENDBRANCH   1   2
BRANCH   1  10
ATOM     10  C   UNL     1       7.390  -2.522  26.319  0.00  0.00    +0.216 C 
BRANCH  10  11
ATOM     11  O   UNL     1       8.381  -3.514  26.526  0.00  0.00    -0.324 OA
BRANCH  11  12
ATOM     12  P   UNL     1       8.077  -4.906  25.735  0.00  0.00    +0.213 P 
ATOM     13  O   UNL     1       9.189  -5.110  24.729  0.00  0.00    -0.517 OA
ATOM     14  O   UNL     1       7.727  -5.957  26.746  0.00  0.00    -0.437 OA
BRANCH  12  15
ATOM     15  O   UNL     1       6.760  -4.497  24.898  0.00  0.00    -0.325 OA
BRANCH  15  16
ATOM     16  C   UNL     1       6.095  -5.439  24.079  0.00  0.00    +0.201 C 
BRANCH  16  17
ATOM     17  C   UNL     1       6.340  -5.401  22.559  0.00  0.00    +0.166 C 
BRANCH  17  18
ATOM     18  O   UNL     1       5.389  -6.175  21.823  0.00  0.00    -0.387 OA
ATOM     19  H   UNL     1       4.635  -5.563  21.622  0.00  0.00    +0.210 HD
ENDBRANCH  17  18
BRANCH  17  20
ATOM     20  C   UNL     1       6.493  -4.006  21.938  0.00  0.00    +0.189 C 
BRANCH  20  21
ATOM     21  O   UNL     1       6.152  -2.913  22.777  0.00  0.00    -0.392 OA
ATOM     22  H   UNL     1       6.986  -2.552  23.174  0.00  0.00    +0.210 HD
ENDBRANCH  20  21
ENDBRANCH  17  20
ENDBRANCH  16  17
ENDBRANCH  15  16
ENDBRANCH  12  15
ENDBRANCH  11  12
ENDBRANCH  10  11
ENDBRANCH   1  10
BRANCH   1  23
ATOM     23  O   UNL     1       6.935  -0.395  25.339  0.00  0.00    -0.456 OA
BRANCH  23  24
ATOM     24  C   UNL     1       7.156   0.920  25.098  0.00  0.00    +0.308 C 
ATOM     25  O   UNL     1       7.697   1.710  25.856  0.00  0.00    -0.251 OA
BRANCH  24  26
ATOM     26  C   UNL     1       6.638   1.277  23.723  0.00  0.00    +0.120 C 
BRANCH  26  27
ATOM     27  C   UNL     1       6.425   2.780  23.564  0.00  0.00    +0.011 C 
BRANCH  27  28
ATOM     28  C   UNL     1       6.770   3.275  22.157  0.00  0.00    +0.001 C 
BRANCH  28  29
ATOM     29  C   UNL     1       7.198   4.743  22.176  0.00  0.00    +0.000 C 
BRANCH  29  30
ATOM     30  C   UNL     1       7.983   5.077  23.445  0.00  0.00    -0.000 C 
BRANCH  30  31
ATOM     31  C   UNL     1       8.844   6.325  23.249  0.00  0.00    -0.003 C 
ATOM     32  C   UNL     1      10.258   6.115  23.764  0.00  0.00    +0.004 C 
ENDBRANCH  30  31
ENDBRANCH  29  30
ENDBRANCH  28  29
ENDBRANCH  27  28
ENDBRANCH  26  27
ENDBRANCH  24  26
ENDBRANCH  23  24
ENDBRANCH   1  23
TORSDOF 23
ENDMDL
MODEL 6
REMARK VINA RESULT:      -5.0      2.838      7.815
REMARK  Name = 
REMARK  25 active torsions:
REMARK  status: ('A' for Active; 'I' for Inactive)
REMARK    1  A    between atoms: C_2  and  O_3
REMARK    2  A    between atoms: C_2  and  C_4
REMARK    3  A    between atoms: C_2  and  C_6
REMARK    4  A    between atoms: C_4  and  O_5
REMARK    5  A    between atoms: C_6  and  O_7
REMARK    6  A    between atoms: O_7  and  P_8
REMARK    7  A    between atoms: P_8  and  O_11
REMARK    8  A    between atoms: O_11  and  C_12
REMARK    9  A    between atoms: C_12  and  C_13
REMARK   10  A    between atoms: C_13  and  C_15
REMARK   11  A    between atoms: C_13  and  O_23
REMARK   12  A    between atoms: C_15  and  O_16
REMARK   13  A    between atoms: O_16  and  C_17
REMARK   14  A    between atoms: C_17  and  C_19
REMARK   15  A    between atoms: C_19  and  C_20
REMARK   16  A    between atoms: C_20  and  C_21
REMARK   17  A    between atoms: C_21  and  C_22
REMARK   18  A    between atoms: O_23  and  C_24
REMARK   19  A    between atoms: C_24  and  C_26
REMARK   20  A    between atoms: C_26  and  C_27
REMARK   21  A    between atoms: C_27  and  C_28
REMARK   22  A    between atoms: C_28  and  C_29
REMARK   23  A    between atoms: C_29  and  C_30
REMARK   24  A    between atoms: C_30  and  C_31
REMARK   25  A    between atoms: C_31  and  C_32
REMARK                            x       y       z     vdW  Elec       q    Type
REMARK                         _______ _______ _______ _____ _____    ______ ____
ROOT
ATOM      1  C   UNL     1       9.131  -1.096  24.511  0.00  0.00    +0.240 C 
ENDROOT
BRANCH   1   2
ATOM      2  C   UNL     1       9.345  -1.693  23.115  0.00  0.00    +0.279 C 
BRANCH   2   3
ATOM      3  O   UNL     1       8.161  -1.553  22.305  0.00  0.00    -0.461 OA
BRANCH   3   4
ATOM      4  C   UNL     1       7.069  -2.276  22.657  0.00  0.00    +0.307 C 
ATOM      5  O   UNL     1       6.059  -1.843  23.197  0.00  0.00    -0.251 OA
BRANCH   4   6
ATOM      6  C   UNL     1       7.247  -3.723  22.266  0.00  0.00    +0.120 C 
BRANCH   6   7
ATOM      7  C   UNL     1       6.043  -4.226  21.476  0.00  0.00    +0.011 C 
BRANCH   7   8
ATOM      8  C   UNL     1       6.172  -5.707  21.124  0.00  0.00    -0.003 C 
ATOM      9  C   UNL     1       7.168  -6.398  22.042  0.00  0.00    +0.004 C 
ENDBRANCH   7   8
ENDBRANCH   6   7
ENDBRANCH   4   6
ENDBRANCH   3   4
ENDBRANCH   2   3
ENDBRANCH   1   2
BRANCH   1  10
ATOM     10  C   UNL     1      10.080   0.054  24.840  0.00  0.00    +0.216 C 
BRANCH  10  11
ATOM     11  O   UNL     1      10.693   0.597  23.683  0.00  0.00    -0.324 OA
BRANCH  11  12
ATOM     12  P   UNL     1      10.022   1.999  23.194  0.00  0.00    +0.213 P 
ATOM     13  O   UNL     1      11.016   3.103  23.480  0.00  0.00    -0.517 OA
ATOM     14  O   UNL     1       9.444   1.793  21.825  0.00  0.00    -0.437 OA
BRANCH  12  15
ATOM     15  O   UNL     1       8.830   2.155  24.269  0.00  0.00    -0.325 OA
BRANCH  15  16
ATOM     16  C   UNL     1       7.618   2.801  23.927  0.00  0.00    +0.201 C 
BRANCH  16  17
ATOM     17  C   UNL     1       6.376   1.937  23.643  0.00  0.00    +0.166 C 
BRANCH  17  18
ATOM     18  O   UNL     1       6.568   1.028  22.555  0.00  0.00    -0.387 OA
ATOM     19  H   UNL     1       7.504   1.158  22.253  0.00  0.00    +0.210 HD
ENDBRANCH  17  18
BRANCH  17  20
ATOM     20  C   UNL     1       5.772   1.209  24.851  0.00  0.00    +0.189 C 
BRANCH  20  21
ATOM     21  O   UNL     1       6.691   0.815  25.859  0.00  0.00    -0.392 OA
ATOM     22  H   UNL     1       6.768  -0.173  25.842  0.00  0.00    +0.210 HD
ENDBRANCH  20  21
ENDBRANCH  17  20
ENDBRANCH  16  17
ENDBRANCH  15  16
ENDBRANCH  12  15
ENDBRANCH  11  12
ENDBRANCH  10  11
ENDBRANCH   1  10
BRANCH   1  23
ATOM     23  O   UNL     1       9.376  -2.129  25.496  0.00  0.00    -0.456 OA
BRANCH  23  24
ATOM     24  C   UNL     1       8.311  -2.672  26.134  0.00  0.00    +0.308 C 
ATOM     25  O   UNL     1       7.264  -2.102  26.400  0.00  0.00    -0.251 OA
BRANCH  24  26
ATOM     26  C   UNL     1       8.603  -4.117  26.469  0.00  0.00    +0.120 C 
BRANCH  26  27
ATOM     27  C   UNL     1       7.821  -5.080  25.581  0.00  0.00    +0.011 C 
BRANCH  27  28
ATOM     28  C   UNL     1       6.451  -5.437  26.166  0.00  0.00    +0.001 C 
BRANCH  28  29
ATOM     29  C   UNL     1       5.343  -5.259  25.128  0.00  0.00    +0.000 C 
BRANCH  29  30
ATOM     30  C   UNL     1       4.640  -6.585  24.832  0.00  0.00    -0.000 C 
BRANCH  30  31
ATOM     31  C   UNL     1       3.641  -6.436  23.684  0.00  0.00    -0.003 C 
ATOM     32  C   UNL     1       3.117  -5.013  23.581  0.00  0.00    +0.004 C 
ENDBRANCH  30  31
ENDBRANCH  29  30
ENDBRANCH  28  29
ENDBRANCH  27  28
ENDBRANCH  26  27
ENDBRANCH  24  26
ENDBRANCH  23  24
ENDBRANCH   1  23
TORSDOF 23
ENDMDL
MODEL 7
REMARK VINA RESULT:      -5.0      3.079      7.872
REMARK  Name = 
REMARK  25 active torsions:
REMARK  status: ('A' for Active; 'I' for Inactive)
REMARK    1  A    between atoms: C_2  and  O_3
REMARK    2  A    between atoms: C_2  and  C_4
REMARK    3  A    between atoms: C_2  and  C_6
REMARK    4  A    between atoms: C_4  and  O_5
REMARK    5  A    between atoms: C_6  and  O_7
REMARK    6  A    between atoms: O_7  and  P_8
REMARK    7  A    between atoms: P_8  and  O_11
REMARK    8  A    between atoms: O_11  and  C_12
REMARK    9  A    between atoms: C_12  and  C_13
REMARK   10  A    between atoms: C_13  and  C_15
REMARK   11  A    between atoms: C_13  and  O_23
REMARK   12  A    between atoms: C_15  and  O_16
REMARK   13  A    between atoms: O_16  and  C_17
REMARK   14  A    between atoms: C_17  and  C_19
REMARK   15  A    between atoms: C_19  and  C_20
REMARK   16  A    between atoms: C_20  and  C_21
REMARK   17  A    between atoms: C_21  and  C_22
REMARK   18  A    between atoms: O_23  and  C_24
REMARK   19  A    between atoms: C_24  and  C_26
REMARK   20  A    between atoms: C_26  and  C_27
REMARK   21  A    between atoms: C_27  and  C_28
REMARK   22  A    between atoms: C_28  and  C_29
REMARK   23  A    between atoms: C_29  and  C_30
REMARK   24  A    between atoms: C_30  and  C_31
REMARK   25  A    between atoms: C_31  and  C_32
REMARK                            x       y       z     vdW  Elec       q    Type
REMARK                         _______ _______ _______ _____ _____    ______ ____
ROOT
ATOM      1  C   UNL     1       9.676  -0.554  24.863  0.00  0.00    +0.240 C 
ENDROOT
BRANCH   1   2
ATOM      2  C   UNL     1       8.694  -0.308  26.015  0.00  0.00    +0.279 C 
BRANCH   2   3
ATOM      3  O   UNL     1       8.173  -1.550  26.525  0.00  0.00    -0.461 OA
BRANCH   3   4
ATOM      4  C   UNL     1       6.871  -1.837  26.274  0.00  0.00    +0.307 C 
ATOM      5  O   UNL     1       5.982  -1.025  26.051  0.00  0.00    -0.251 OA
BRANCH   4   6
ATOM      6  C   UNL     1       6.651  -3.330  26.278  0.00  0.00    +0.120 C 
BRANCH   6   7
ATOM      7  C   UNL     1       7.897  -4.063  26.763  0.00  0.00    +0.011 C 
BRANCH   7   8
ATOM      8  C   UNL     1       8.308  -5.180  25.805  0.00  0.00    -0.003 C 
ATOM      9  C   UNL     1       9.772  -5.050  25.415  0.00  0.00    +0.004 C 
ENDBRANCH   7   8
ENDBRANCH   6   7
ENDBRANCH   4   6
ENDBRANCH   3   4
ENDBRANCH   2   3
ENDBRANCH   1   2
BRANCH   1  10
ATOM     10  C   UNL     1      10.602   0.626  24.581  0.00  0.00    +0.216 C 
BRANCH  10  11
ATOM     11  O   UNL     1       9.910   1.863  24.562  0.00  0.00    -0.324 OA
BRANCH  11  12
ATOM     12  P   UNL     1      10.214   2.754  23.231  0.00  0.00    +0.213 P 
ATOM     13  O   UNL     1      11.509   3.499  23.469  0.00  0.00    -0.517 OA
ATOM     14  O   UNL     1      10.015   1.884  22.026  0.00  0.00    -0.437 OA
BRANCH  12  15
ATOM     15  O   UNL     1       9.027   3.843  23.318  0.00  0.00    -0.325 OA
BRANCH  15  16
ATOM     16  C   UNL     1       7.813   3.548  23.982  0.00  0.00    +0.201 C 
BRANCH  16  17
ATOM     17  C   UNL     1       6.627   3.022  23.153  0.00  0.00    +0.166 C 
BRANCH  17  18
ATOM     18  O   UNL     1       6.608   3.539  21.820  0.00  0.00    -0.387 OA
ATOM     19  H   UNL     1       6.287   2.799  21.244  0.00  0.00    +0.210 HD
ENDBRANCH  17  18
BRANCH  17  20
ATOM     20  C   UNL     1       6.439   1.499  23.141  0.00  0.00    +0.189 C 
BRANCH  20  21
ATOM     21  O   UNL     1       5.442   0.992  24.016  0.00  0.00    -0.392 OA
ATOM     22  H   UNL     1       4.949   0.273  23.543  0.00  0.00    +0.210 HD
ENDBRANCH  20  21
ENDBRANCH  17  20
ENDBRANCH  16  17
ENDBRANCH  15  16
ENDBRANCH  12  15
ENDBRANCH  11  12
ENDBRANCH  10  11
ENDBRANCH   1  10
BRANCH   1  23
ATOM     23  O   UNL     1       8.915  -0.780  23.651  0.00  0.00    -0.456 OA
BRANCH  23  24
ATOM     24  C   UNL     1       9.302  -1.786  22.830  0.00  0.00    +0.308 C 
ATOM     25  O   UNL     1      10.335  -1.828  22.180  0.00  0.00    -0.251 OA
BRANCH  24  26
ATOM     26  C   UNL     1       8.256  -2.879  22.839  0.00  0.00    +0.120 C 
BRANCH  26  27
ATOM     27  C   UNL     1       6.846  -2.323  22.660  0.00  0.00    +0.011 C 
BRANCH  27  28
ATOM     28  C   UNL     1       5.789  -3.426  22.561  0.00  0.00    +0.001 C 
BRANCH  28  29
ATOM     29  C   UNL     1       6.294  -4.603  21.726  0.00  0.00    +0.000 C 
BRANCH  29  30
ATOM     30  C   UNL     1       6.107  -5.930  22.463  0.00  0.00    -0.000 C 
BRANCH  30  31
ATOM     31  C   UNL     1       5.438  -5.719  23.820  0.00  0.00    -0.003 C 
ATOM     32  C   UNL     1       4.461  -6.839  24.142  0.00  0.00    +0.004 C 
ENDBRANCH  30  31
ENDBRANCH  29  30
ENDBRANCH  28  29
ENDBRANCH  27  28
ENDBRANCH  26  27
ENDBRANCH  24  26
ENDBRANCH  23  24
ENDBRANCH   1  23
TORSDOF 23
ENDMDL
MODEL 8
REMARK VINA RESULT:      -5.0      2.197      4.717
REMARK  Name = 
REMARK  25 active torsions:
REMARK  status: ('A' for Active; 'I' for Inactive)
REMARK    1  A    between atoms: C_2  and  O_3
REMARK    2  A    between atoms: C_2  and  C_4
REMARK    3  A    between atoms: C_2  and  C_6
REMARK    4  A    between atoms: C_4  and  O_5
REMARK    5  A    between atoms: C_6  and  O_7
REMARK    6  A    between atoms: O_7  and  P_8
REMARK    7  A    between atoms: P_8  and  O_11
REMARK    8  A    between atoms: O_11  and  C_12
REMARK    9  A    between atoms: C_12  and  C_13
REMARK   10  A    between atoms: C_13  and  C_15
REMARK   11  A    between atoms: C_13  and  O_23
REMARK   12  A    between atoms: C_15  and  O_16
REMARK   13  A    between atoms: O_16  and  C_17
REMARK   14  A    between atoms: C_17  and  C_19
REMARK   15  A    between atoms: C_19  and  C_20
REMARK   16  A    between atoms: C_20  and  C_21
REMARK   17  A    between atoms: C_21  and  C_22
REMARK   18  A    between atoms: O_23  and  C_24
REMARK   19  A    between atoms: C_24  and  C_26
REMARK   20  A    between atoms: C_26  and  C_27
REMARK   21  A    between atoms: C_27  and  C_28
REMARK   22  A    between atoms: C_28  and  C_29
REMARK   23  A    between atoms: C_29  and  C_30
REMARK   24  A    between atoms: C_30  and  C_31
REMARK   25  A    between atoms: C_31  and  C_32
REMARK                            x       y       z     vdW  Elec       q    Type
REMARK                         _______ _______ _______ _____ _____    ______ ____
ROOT
ATOM      1  C   UNL     1       8.253  -1.851  24.847  0.00  0.00    +0.240 C 
ENDROOT
BRANCH   1   2
ATOM      2  C   UNL     1       7.082  -0.942  24.454  0.00  0.00    +0.279 C 
BRANCH   2   3
ATOM      3  O   UNL     1       6.485  -1.376  23.216  0.00  0.00    -0.461 OA
BRANCH   3   4
ATOM      4  C   UNL     1       5.784  -2.537  23.229  0.00  0.00    +0.307 C 
ATOM      5  O   UNL     1       4.949  -2.869  24.060  0.00  0.00    -0.251 OA
BRANCH   4   6
ATOM      6  C   UNL     1       6.153  -3.387  22.038  0.00  0.00    +0.120 C 
BRANCH   6   7
ATOM      7  C   UNL     1       7.386  -4.235  22.334  0.00  0.00    +0.011 C 
BRANCH   7   8
ATOM      8  C   UNL     1       7.136  -5.717  22.064  0.00  0.00    -0.003 C 
ATOM      9  C   UNL     1       6.170  -5.903  20.905  0.00  0.00    +0.004 C 
ENDBRANCH   7   8
ENDBRANCH   6   7
ENDBRANCH   4   6
ENDBRANCH   3   4
ENDBRANCH   2   3
ENDBRANCH   1   2
BRANCH   1  10
ATOM     10  C   UNL     1       8.237  -2.273  26.315  0.00  0.00    +0.216 C 
BRANCH  10  11
ATOM     11  O   UNL     1       7.153  -3.136  26.616  0.00  0.00    -0.324 OA
BRANCH  11  12
ATOM     12  P   UNL     1       7.586  -4.704  26.722  0.00  0.00    +0.213 P 
ATOM     13  O   UNL     1       6.920  -5.437  25.578  0.00  0.00    -0.517 OA
ATOM     14  O   UNL     1       9.067  -4.771  26.946  0.00  0.00    -0.437 OA
BRANCH  12  15
ATOM     15  O   UNL     1       6.812  -5.141  28.068  0.00  0.00    -0.325 OA
BRANCH  15  16
ATOM     16  C   UNL     1       5.594  -4.526  28.443  0.00  0.00    +0.201 C 
BRANCH  16  17
ATOM     17  C   UNL     1       4.299  -4.961  27.733  0.00  0.00    +0.166 C 
BRANCH  17  18
ATOM     18  O   UNL     1       4.174  -4.410  26.419  0.00  0.00    -0.387 OA
ATOM     19  H   UNL     1       5.084  -4.115  26.158  0.00  0.00    +0.210 HD
ENDBRANCH  17  18
BRANCH  17  20
ATOM     20  C   UNL     1       4.016  -6.469  27.713  0.00  0.00    +0.189 C 
BRANCH  20  21
ATOM     21  O   UNL     1       5.048  -7.285  27.179  0.00  0.00    -0.392 OA
ATOM     22  H   UNL     1       5.424  -7.833  27.914  0.00  0.00    +0.210 HD
ENDBRANCH  20  21
ENDBRANCH  17  20
ENDBRANCH  16  17
ENDBRANCH  15  16
ENDBRANCH  12  15
ENDBRANCH  11  12
ENDBRANCH  10  11
ENDBRANCH   1  10
BRANCH   1  23
ATOM     23  O   UNL     1       9.489  -1.123  24.642  0.00  0.00    -0.456 OA
BRANCH  23  24
ATOM     24  C   UNL     1      10.008  -1.083  23.390  0.00  0.00    +0.308 C 
ATOM     25  O   UNL     1      10.423  -2.038  22.752  0.00  0.00    -0.251 OA
BRANCH  24  26
ATOM     26  C   UNL     1       9.992   0.340  22.880  0.00  0.00    +0.120 C 
BRANCH  26  27
ATOM     27  C   UNL     1      10.480   1.331  23.933  0.00  0.00    +0.011 C 
BRANCH  27  28
ATOM     28  C   UNL     1       9.338   2.152  24.540  0.00  0.00    +0.001 C 
BRANCH  28  29
ATOM     29  C   UNL     1       9.341   3.584  24.006  0.00  0.00    +0.000 C 
BRANCH  29  30
ATOM     30  C   UNL     1      10.714   3.969  23.451  0.00  0.00    -0.000 C 
BRANCH  30  31
ATOM     31  C   UNL     1      11.034   5.436  23.737  0.00  0.00    -0.003 C 
ATOM     32  C   UNL     1      12.533   5.678  23.800  0.00  0.00    +0.004 C 
ENDBRANCH  30  31
ENDBRANCH  29  30
ENDBRANCH  28  29
ENDBRANCH  27  28
ENDBRANCH  26  27
ENDBRANCH  24  26
ENDBRANCH  23  24
ENDBRANCH   1  23
TORSDOF 23
ENDMDL
MODEL 9
REMARK VINA RESULT:      -5.0      1.782      4.037
REMARK  Name = 
REMARK  25 active torsions:
REMARK  status: ('A' for Active; 'I' for Inactive)
REMARK    1  A    between atoms: C_2  and  O_3
REMARK    2  A    between atoms: C_2  and  C_4
REMARK    3  A    between atoms: C_2  and  C_6
REMARK    4  A    between atoms: C_4  and  O_5
REMARK    5  A    between atoms: C_6  and  O_7
REMARK    6  A    between atoms: O_7  and  P_8
REMARK    7  A    between atoms: P_8  and  O_11
REMARK    8  A    between atoms: O_11  and  C_12
REMARK    9  A    between atoms: C_12  and  C_13
REMARK   10  A    between atoms: C_13  and  C_15
REMARK   11  A    between atoms: C_13  and  O_23
REMARK   12  A    between atoms: C_15  and  O_16
REMARK   13  A    between atoms: O_16  and  C_17
REMARK   14  A    between atoms: C_17  and  C_19
REMARK   15  A    between atoms: C_19  and  C_20
REMARK   16  A    between atoms: C_20  and  C_21
REMARK   17  A    between atoms: C_21  and  C_22
REMARK   18  A    between atoms: O_23  and  C_24
REMARK   19  A    between atoms: C_24  and  C_26
REMARK   20  A    between atoms: C_26  and  C_27
REMARK   21  A    between atoms: C_27  and  C_28
REMARK   22  A    between atoms: C_28  and  C_29
REMARK   23  A    between atoms: C_29  and  C_30
REMARK   24  A    between atoms: C_30  and  C_31
REMARK   25  A    between atoms: C_31  and  C_32
REMARK                            x       y       z     vdW  Elec       q    Type
REMARK                         _______ _______ _______ _____ _____    ______ ____
ROOT
ATOM      1  C   UNL     1       9.368  -1.393  24.672  0.00  0.00    +0.240 C 
ENDROOT
BRANCH   1   2
ATOM      2  C   UNL     1       9.919  -0.702  23.418  0.00  0.00    +0.279 C 
BRANCH   2   3
ATOM      3  O   UNL     1      10.549   0.550  23.752  0.00  0.00    -0.461 OA
BRANCH   3   4
ATOM      4  C   UNL     1      10.280   1.620  22.964  0.00  0.00    +0.307 C 
ATOM      5  O   UNL     1      10.059   1.595  21.760  0.00  0.00    -0.251 OA
BRANCH   4   6
ATOM      6  C   UNL     1      10.260   2.886  23.786  0.00  0.00    +0.120 C 
BRANCH   6   7
ATOM      7  C   UNL     1      11.333   3.861  23.311  0.00  0.00    +0.011 C 
BRANCH   7   8
ATOM      8  C   UNL     1      10.990   5.305  23.673  0.00  0.00    -0.003 C 
ATOM      9  C   UNL     1      12.223   6.050  24.159  0.00  0.00    +0.004 C 
ENDBRANCH   7   8
ENDBRANCH   6   7
ENDBRANCH   4   6
ENDBRANCH   3   4
ENDBRANCH   2   3
ENDBRANCH   1   2
BRANCH   1  10
ATOM     10  C   UNL     1       9.336  -2.916  24.571  0.00  0.00    +0.216 C 
BRANCH  10  11
ATOM     11  O   UNL     1       8.315  -3.489  25.370  0.00  0.00    -0.324 OA
BRANCH  11  12
ATOM     12  P   UNL     1       8.198  -5.106  25.208  0.00  0.00    +0.213 P 
ATOM     13  O   UNL     1       9.455  -5.585  24.514  0.00  0.00    -0.517 OA
ATOM     14  O   UNL     1       7.755  -5.681  26.520  0.00  0.00    -0.437 OA
BRANCH  12  15
ATOM     15  O   UNL     1       7.001  -5.218  24.133  0.00  0.00    -0.325 OA
BRANCH  15  16
ATOM     16  C   UNL     1       7.269  -5.266  22.745  0.00  0.00    +0.201 C 
BRANCH  16  17
ATOM     17  C   UNL     1       6.476  -4.338  21.807  0.00  0.00    +0.166 C 
BRANCH  17  18
ATOM     18  O   UNL     1       5.853  -5.039  20.728  0.00  0.00    -0.387 OA
ATOM     19  H   UNL     1       4.877  -4.895  20.836  0.00  0.00    +0.210 HD
ENDBRANCH  17  18
BRANCH  17  20
ATOM     20  C   UNL     1       5.474  -3.394  22.485  0.00  0.00    +0.189 C 
BRANCH  20  21
ATOM     21  O   UNL     1       5.968  -2.661  23.596  0.00  0.00    -0.392 OA
ATOM     22  H   UNL     1       5.950  -3.251  24.392  0.00  0.00    +0.210 HD
ENDBRANCH  20  21
ENDBRANCH  17  20
ENDBRANCH  16  17
ENDBRANCH  15  16
ENDBRANCH  12  15
ENDBRANCH  11  12
ENDBRANCH  10  11
ENDBRANCH   1  10
BRANCH   1  23
ATOM     23  O   UNL     1       7.998  -0.964  24.869  0.00  0.00    -0.456 OA
BRANCH  23  24
ATOM     24  C   UNL     1       7.749  -0.041  25.830  0.00  0.00    +0.308 C 
ATOM     25  O   UNL     1       7.909  -0.191  27.032  0.00  0.00    -0.251 OA
BRANCH  24  26
ATOM     26  C   UNL     1       7.243   1.233  25.191  0.00  0.00    +0.120 C 
BRANCH  26  27
ATOM     27  C   UNL     1       6.236   0.954  24.078  0.00  0.00    +0.011 C 
BRANCH  27  28
ATOM     28  C   UNL     1       6.658   1.564  22.739  0.00  0.00    +0.001 C 
BRANCH  28  29
ATOM     29  C   UNL     1       6.134   2.993  22.592  0.00  0.00    +0.000 C 
BRANCH  29  30
ATOM     30  C   UNL     1       7.227   3.939  22.092  0.00  0.00    -0.000 C 
BRANCH  30  31
ATOM     31  C   UNL     1       7.269   5.222  22.921  0.00  0.00    -0.003 C 
ATOM     32  C   UNL     1       7.214   4.926  24.411  0.00  0.00    +0.004 C 
ENDBRANCH  30  31
ENDBRANCH  29  30
ENDBRANCH  28  29
ENDBRANCH  27  28
ENDBRANCH  26  27
ENDBRANCH  24  26
ENDBRANCH  23  24
ENDBRANCH   1  23
TORSDOF 23
ENDMDL
