MODEL 1
REMARK VINA RESULT:      -5.1      0.000      0.000
REMARK  Name = 
REMARK  6 active torsions:
REMARK  status: ('A' for Active; 'I' for Inactive)
REMARK    1  A    between atoms: CA_2  and  N_3
REMARK    2  A    between atoms: CA_2  and  CB_4
REMARK    3  A    between atoms: CA_2  and  C_11
REMARK    4  A    between atoms: CB_4  and  CG_5
REMARK    5  A    between atoms: C_11  and  O_12
REMARK    6  A    between atoms: C_11  and  OXT_13
REMARK                            x       y       z     vdW  Elec       q    Type
REMARK                         _______ _______ _______ _____ _____    ______ ____
ROOT
ATOM      1  CA  PHE A   1      12.292   5.724  24.047  0.00  0.00    +0.136 C 
ENDROOT
BRANCH   1   2
ATOM      2  N   PHE A   1      12.626   6.787  25.034  0.00  0.00    -0.321 NA
ATOM      3  H1  PHE A   1      12.338   7.670  24.596  0.00  0.00    +0.119 HD
ATOM      4  H2  PHE A   1      12.010   6.723  25.841  0.00  0.00    +0.119 HD
ENDBRANCH   1   2
BRANCH   1   5
ATOM      5  C   PHE A   1      13.276   5.740  22.837  0.00  0.00    +0.363 C 
BRANCH   5   6
ATOM      6  OXT PHE A   1      12.598   5.181  21.718  0.00  0.00    -0.506 OA
ATOM      7  HXT PHE A   1      12.367   4.274  21.983  0.00  0.00    +0.287 HD
ENDBRANCH   5   6
BRANCH   5   8
ATOM      8  O   PHE A   1      14.455   4.989  23.063  0.00  0.00    -0.506 OA
ATOM      9  H   PHE A   1      15.084   5.204  22.359  0.00  0.00    +0.287 HD
ENDBRANCH   5   8
ENDBRANCH   1   5
BRANCH   1  10
ATOM     10  CB  PHE A   1      10.812   5.838  23.640  0.00  0.00    +0.061 C 
BRANCH  10  11
ATOM     11  CG  PHE A   1       9.985   4.641  24.048  0.00  0.00    -0.046 A 
ATOM     12  CD2 PHE A   1      10.370   3.349  23.661  0.00  0.00    +0.004 A 
ATOM     13  CE2 PHE A   1       9.622   2.240  24.061  0.00  0.00    +0.000 A 
ATOM     14  CZ  PHE A   1       8.486   2.411  24.849  0.00  0.00    +0.000 A 
ATOM     15  CE1 PHE A   1       8.091   3.691  25.234  0.00  0.00    +0.000 A 
ATOM     16  CD1 PHE A   1       8.835   4.801  24.833  0.00  0.00    +0.004 A 
ENDBRANCH  10  11
ENDBRANCH   1  10
TORSDOF 6
ENDMDL
MODEL 2
REMARK VINA RESULT:      -4.8     10.017     10.826
REMARK  Name = 
REMARK  6 active torsions:
REMARK  status: ('A' for Active; 'I' for Inactive)
REMARK    1  A    between atoms: CA_2  and  N_3
REMARK    2  A    between atoms: CA_2  and  CB_4
REMARK    3  A    between atoms: CA_2  and  C_11
REMARK    4  A    between atoms: CB_4  and  CG_5
REMARK    5  A    between atoms: C_11  and  O_12
REMARK    6  A    between atoms: C_11  and  OXT_13
REMARK                            x       y       z     vdW  Elec       q    Type
REMARK                         _______ _______ _______ _____ _____    ______ ____
ROOT
ATOM      1  CA  PHE A   1       8.066  -5.437  26.125  0.00  0.00    +0.136 C 
ENDROOT
BRANCH   1   2
ATOM      2  N   PHE A   1       7.651  -5.820  27.502  0.00  0.00    -0.321 NA
ATOM      3  H1  PHE A   1       6.893  -6.504  27.383  0.00  0.00    +0.119 HD
ATOM      4  H2  PHE A   1       8.382  -6.369  27.950  0.00  0.00    +0.119 HD
ENDBRANCH   1   2
BRANCH   1   5
ATOM      5  C   PHE A   1       9.473  -4.764  26.120  0.00  0.00    +0.363 C 
BRANCH   5   6
ATOM      6  OXT PHE A   1       9.342  -3.489  25.502  0.00  0.00    -0.506 OA
ATOM      7  HXT PHE A   1       9.132  -3.675  24.570  0.00  0.00    +0.287 HD
ENDBRANCH   5   6
BRANCH   5   8
ATOM      8  O   PHE A   1      10.446  -5.506  25.409  0.00  0.00    -0.506 OA
ATOM      9  H   PHE A   1      11.277  -5.459  25.905  0.00  0.00    +0.287 HD
ENDBRANCH   5   8
ENDBRANCH   1   5
BRANCH   1  10
ATOM     10  CB  PHE A   1       6.969  -4.578  25.471  0.00  0.00    +0.061 C 
BRANCH  10  11
ATOM     11  CG  PHE A   1       6.572  -5.061  24.095  0.00  0.00    -0.046 A 
ATOM     12  CD2 PHE A   1       7.546  -5.254  23.105  0.00  0.00    +0.004 A 
ATOM     13  CE2 PHE A   1       7.184  -5.727  21.841  0.00  0.00    +0.000 A 
ATOM     14  CZ  PHE A   1       5.850  -6.007  21.556  0.00  0.00    +0.000 A 
ATOM     15  CE1 PHE A   1       4.873  -5.813  22.531  0.00  0.00    +0.000 A 
ATOM     16  CD1 PHE A   1       5.231  -5.338  23.794  0.00  0.00    +0.004 A 
ENDBRANCH  10  11
ENDBRANCH   1  10
TORSDOF 6
ENDMDL
MODEL 3
REMARK VINA RESULT:      -4.7      7.608      9.132
REMARK  Name = 
REMARK  6 active torsions:
REMARK  status: ('A' for Active; 'I' for Inactive)
REMARK    1  A    between atoms: CA_2  and  N_3
REMARK    2  A    between atoms: CA_2  and  CB_4
REMARK    3  A    between atoms: CA_2  and  C_11
REMARK    4  A    between atoms: CB_4  and  CG_5
REMARK    5  A    between atoms: C_11  and  O_12
REMARK    6  A    between atoms: C_11  and  OXT_13
REMARK                            x       y       z     vdW  Elec       q    Type
REMARK                         _______ _______ _______ _____ _____    ______ ____
ROOT
ATOM      1  CA  PHE A   1       9.111  -4.507  25.586  0.00  0.00    +0.136 C 
ENDROOT
BRANCH   1   2
ATOM      2  N   PHE A   1      10.103  -5.592  25.351  0.00  0.00    -0.321 NA
ATOM      3  H1  PHE A   1       9.554  -6.457  25.277  0.00  0.00    +0.119 HD
ATOM      4  H2  PHE A   1      10.509  -5.502  24.422  0.00  0.00    +0.119 HD
ENDBRANCH   1   2
BRANCH   1   5
ATOM      5  C   PHE A   1       7.825  -5.052  26.282  0.00  0.00    +0.363 C 
BRANCH   5   6
ATOM      6  OXT PHE A   1       7.189  -3.959  26.934  0.00  0.00    -0.506 OA
ATOM      7  HXT PHE A   1       7.733  -3.775  27.719  0.00  0.00    +0.287 HD
ENDBRANCH   5   6
BRANCH   5   8
ATOM      8  O   PHE A   1       8.092  -6.053  27.247  0.00  0.00    -0.506 OA
ATOM      9  H   PHE A   1       8.621  -5.652  27.952  0.00  0.00    +0.287 HD
ENDBRANCH   5   8
ENDBRANCH   1   5
BRANCH   1  10
ATOM     10  CB  PHE A   1       8.830  -3.764  24.268  0.00  0.00    +0.061 C 
BRANCH  10  11
ATOM     11  CG  PHE A   1       9.318  -2.334  24.271  0.00  0.00    -0.046 A 
ATOM     12  CD2 PHE A   1      10.042  -1.831  23.180  0.00  0.00    +0.004 A 
ATOM     13  CE2 PHE A   1      10.470  -0.501  23.170  0.00  0.00    +0.000 A 
ATOM     14  CZ  PHE A   1      10.181   0.334  24.246  0.00  0.00    +0.000 A 
ATOM     15  CE1 PHE A   1       9.467  -0.158  25.338  0.00  0.00    +0.000 A 
ATOM     16  CD1 PHE A   1       9.041  -1.487  25.352  0.00  0.00    +0.004 A 
ENDBRANCH  10  11
ENDBRANCH   1  10
TORSDOF 6
ENDMDL
MODEL 4
REMARK VINA RESULT:      -4.7      5.714      7.318
REMARK  Name = 
REMARK  6 active torsions:
REMARK  status: ('A' for Active; 'I' for Inactive)
REMARK    1  A    between atoms: CA_2  and  N_3
REMARK    2  A    between atoms: CA_2  and  CB_4
REMARK    3  A    between atoms: CA_2  and  C_11
REMARK    4  A    between atoms: CB_4  and  CG_5
REMARK    5  A    between atoms: C_11  and  O_12
REMARK    6  A    between atoms: C_11  and  OXT_13
REMARK                            x       y       z     vdW  Elec       q    Type
REMARK                         _______ _______ _______ _____ _____    ______ ____
ROOT
ATOM      1  CA  PHE A   1       9.308  -2.572  24.035  0.00  0.00    +0.136 C 
ENDROOT
BRANCH   1   2
ATOM      2  N   PHE A   1       9.855  -3.894  24.448  0.00  0.00    -0.321 NA
ATOM      3  H1  PHE A   1      10.761  -3.693  24.888  0.00  0.00    +0.119 HD
ATOM      4  H2  PHE A   1       9.310  -4.275  25.218  0.00  0.00    +0.119 HD
ENDBRANCH   1   2
BRANCH   1   5
ATOM      5  C   PHE A   1       7.812  -2.684  23.608  0.00  0.00    +0.363 C 
BRANCH   5   6
ATOM      6  OXT PHE A   1       7.777  -2.897  22.201  0.00  0.00    -0.506 OA
ATOM      7  HXT PHE A   1       7.369  -2.097  21.829  0.00  0.00    +0.287 HD
ENDBRANCH   5   6
BRANCH   5   8
ATOM      8  O   PHE A   1       7.058  -1.521  23.900  0.00  0.00    -0.506 OA
ATOM      9  H   PHE A   1       7.221  -0.876  23.196  0.00  0.00    +0.287 HD
ENDBRANCH   5   8
ENDBRANCH   1   5
BRANCH   1  10
ATOM     10  CB  PHE A   1      10.212  -1.948  22.957  0.00  0.00    +0.061 C 
BRANCH  10  11
ATOM     11  CG  PHE A   1      10.199  -0.437  22.966  0.00  0.00    -0.046 A 
ATOM     12  CD2 PHE A   1      10.633   0.267  24.098  0.00  0.00    +0.004 A 
ATOM     13  CE2 PHE A   1      10.647   1.664  24.098  0.00  0.00    +0.000 A 
ATOM     14  CZ  PHE A   1      10.228   2.367  22.970  0.00  0.00    +0.000 A 
ATOM     15  CE1 PHE A   1       9.790   1.676  21.842  0.00  0.00    +0.000 A 
ATOM     16  CD1 PHE A   1       9.771   0.280  21.841  0.00  0.00    +0.004 A 
ENDBRANCH  10  11
ENDBRANCH   1  10
TORSDOF 6
ENDMDL
MODEL 5
REMARK VINA RESULT:      -4.6      5.701      7.276
REMARK  Name = 
REMARK  6 active torsions:
REMARK  status: ('A' for Active; 'I' for Inactive)
REMARK    1  A    between atoms: CA_2  and  N_3
REMARK    2  A    between atoms: CA_2  and  CB_4
REMARK    3  A    between atoms: CA_2  and  C_11
REMARK    4  A    between atoms: CB_4  and  CG_5
REMARK    5  A    between atoms: C_11  and  O_12
REMARK    6  A    between atoms: C_11  and  OXT_13
REMARK                            x       y       z     vdW  Elec       q    Type
REMARK                         _______ _______ _______ _____ _____    ______ ____
ROOT
ATOM      1  CA  PHE A   1       9.292  -2.545  24.027  0.00  0.00    +0.136 C 
ENDROOT
BRANCH   1   2
ATOM      2  N   PHE A   1       9.823  -3.872  24.442  0.00  0.00    -0.321 NA
ATOM      3  H1  PHE A   1       9.505  -4.534  23.724  0.00  0.00    +0.119 HD
ATOM      4  H2  PHE A   1      10.835  -3.894  24.338  0.00  0.00    +0.119 HD
ENDBRANCH   1   2
BRANCH   1   5
ATOM      5  C   PHE A   1       7.790  -2.635  23.616  0.00  0.00    +0.363 C 
BRANCH   5   6
ATOM      6  OXT PHE A   1       7.737  -2.886  22.217  0.00  0.00    -0.506 OA
ATOM      7  HXT PHE A   1       8.551  -2.496  21.854  0.00  0.00    +0.287 HD
ENDBRANCH   5   6
BRANCH   5   8
ATOM      8  O   PHE A   1       7.064  -1.449  23.883  0.00  0.00    -0.506 OA
ATOM      9  H   PHE A   1       7.124  -1.271  24.833  0.00  0.00    +0.287 HD
ENDBRANCH   5   8
ENDBRANCH   1   5
BRANCH   1  10
ATOM     10  CB  PHE A   1      10.194  -1.941  22.936  0.00  0.00    +0.061 C 
BRANCH  10  11
ATOM     11  CG  PHE A   1      10.218  -0.430  22.947  0.00  0.00    -0.046 A 
ATOM     12  CD2 PHE A   1       9.779   0.292  21.828  0.00  0.00    +0.004 A 
ATOM     13  CE2 PHE A   1       9.774   1.689  21.846  0.00  0.00    +0.000 A 
ATOM     14  CZ  PHE A   1      10.207   2.374  22.979  0.00  0.00    +0.000 A 
ATOM     15  CE1 PHE A   1      10.650   1.666  24.095  0.00  0.00    +0.000 A 
ATOM     16  CD1 PHE A   1      10.660   0.270  24.078  0.00  0.00    +0.004 A 
ENDBRANCH  10  11
ENDBRANCH   1  10
TORSDOF 6
ENDMDL
MODEL 6
REMARK VINA RESULT:      -4.6      7.348      8.838
REMARK  Name = 
REMARK  6 active torsions:
REMARK  status: ('A' for Active; 'I' for Inactive)
REMARK    1  A    between atoms: CA_2  and  N_3
REMARK    2  A    between atoms: CA_2  and  CB_4
REMARK    3  A    between atoms: CA_2  and  C_11
REMARK    4  A    between atoms: CB_4  and  CG_5
REMARK    5  A    between atoms: C_11  and  O_12
REMARK    6  A    between atoms: C_11  and  OXT_13
REMARK                            x       y       z     vdW  Elec       q    Type
REMARK                         _______ _______ _______ _____ _____    ______ ____
ROOT
ATOM      1  CA  PHE A   1       8.523  -3.952  25.102  0.00  0.00    +0.136 C 
ENDROOT
BRANCH   1   2
ATOM      2  N   PHE A   1       7.070  -4.272  25.063  0.00  0.00    -0.321 NA
ATOM      3  H1  PHE A   1       7.011  -5.297  25.094  0.00  0.00    +0.119 HD
ATOM      4  H2  PHE A   1       6.625  -3.994  25.936  0.00  0.00    +0.119 HD
ENDBRANCH   1   2
BRANCH   1   5
ATOM      5  C   PHE A   1       9.285  -4.884  26.093  0.00  0.00    +0.363 C 
BRANCH   5   6
ATOM      6  OXT PHE A   1      10.299  -5.561  25.359  0.00  0.00    -0.506 OA
ATOM      7  HXT PHE A   1       9.826  -6.189  24.786  0.00  0.00    +0.287 HD
ENDBRANCH   5   6
BRANCH   5   8
ATOM      8  O   PHE A   1       8.453  -5.854  26.702  0.00  0.00    -0.506 OA
ATOM      9  H   PHE A   1       7.540  -5.534  26.656  0.00  0.00    +0.287 HD
ENDBRANCH   5   8
ENDBRANCH   1   5
BRANCH   1  10
ATOM     10  CB  PHE A   1       8.718  -2.452  25.392  0.00  0.00    +0.061 C 
BRANCH  10  11
ATOM     11  CG  PHE A   1       9.178  -1.665  24.187  0.00  0.00    -0.046 A 
ATOM     12  CD2 PHE A   1       8.845  -2.093  22.893  0.00  0.00    +0.004 A 
ATOM     13  CE2 PHE A   1       9.245  -1.351  21.780  0.00  0.00    +0.000 A 
ATOM     14  CZ  PHE A   1       9.980  -0.180  21.948  0.00  0.00    +0.000 A 
ATOM     15  CE1 PHE A   1      10.321   0.251  23.229  0.00  0.00    +0.000 A 
ATOM     16  CD1 PHE A   1       9.925  -0.490  24.344  0.00  0.00    +0.004 A 
ENDBRANCH  10  11
ENDBRANCH   1  10
TORSDOF 6
ENDMDL
MODEL 7
REMARK VINA RESULT:      -4.6      9.063     10.100
REMARK  Name = 
REMARK  6 active torsions:
REMARK  status: ('A' for Active; 'I' for Inactive)
REMARK    1  A    between atoms: CA_2  and  N_3
REMARK    2  A    between atoms: CA_2  and  CB_4
REMARK    3  A    between atoms: CA_2  and  C_11
REMARK    4  A    between atoms: CB_4  and  CG_5
REMARK    5  A    between atoms: C_11  and  O_12
REMARK    6  A    between atoms: C_11  and  OXT_13
REMARK                            x       y       z     vdW  Elec       q    Type
REMARK                         _______ _______ _______ _____ _____    ______ ____
ROOT
ATOM      1  CA  PHE A   1       8.401  -3.761  25.616  0.00  0.00    +0.136 C 
ENDROOT
BRANCH   1   2
ATOM      2  N   PHE A   1       8.475  -2.451  26.319  0.00  0.00    -0.321 NA
ATOM      3  H1  PHE A   1       7.594  -2.367  26.841  0.00  0.00    +0.119 HD
ATOM      4  H2  PHE A   1       9.173  -2.488  27.058  0.00  0.00    +0.119 HD
ENDBRANCH   1   2
BRANCH   1   5
ATOM      5  C   PHE A   1       9.193  -4.864  26.383  0.00  0.00    +0.363 C 
BRANCH   5   6
ATOM      6  OXT PHE A   1      10.162  -5.402  25.491  0.00  0.00    -0.506 OA
ATOM      7  HXT PHE A   1      10.874  -4.740  25.454  0.00  0.00    +0.287 HD
ENDBRANCH   5   6
BRANCH   5   8
ATOM      8  O   PHE A   1       8.374  -5.925  26.841  0.00  0.00    -0.506 OA
ATOM      9  H   PHE A   1       7.841  -5.592  27.578  0.00  0.00    +0.287 HD
ENDBRANCH   5   8
ENDBRANCH   1   5
BRANCH   1  10
ATOM     10  CB  PHE A   1       8.841  -3.591  24.151  0.00  0.00    +0.061 C 
BRANCH  10  11
ATOM     11  CG  PHE A   1       7.849  -4.151  23.158  0.00  0.00    -0.046 A 
ATOM     12  CD2 PHE A   1       7.738  -5.537  22.975  0.00  0.00    +0.004 A 
ATOM     13  CE2 PHE A   1       6.802  -6.058  22.078  0.00  0.00    +0.000 A 
ATOM     14  CZ  PHE A   1       5.972  -5.201  21.359  0.00  0.00    +0.000 A 
ATOM     15  CE1 PHE A   1       6.078  -3.822  21.530  0.00  0.00    +0.000 A 
ATOM     16  CD1 PHE A   1       7.015  -3.299  22.423  0.00  0.00    +0.004 A 
ENDBRANCH  10  11
ENDBRANCH   1  10
TORSDOF 6
ENDMDL
MODEL 8
REMARK VINA RESULT:      -4.6      4.776      6.146
REMARK  Name = 
REMARK  6 active torsions:
REMARK  status: ('A' for Active; 'I' for Inactive)
REMARK    1  A    between atoms: CA_2  and  N_3
REMARK    2  A    between atoms: CA_2  and  CB_4
REMARK    3  A    between atoms: CA_2  and  C_11
REMARK    4  A    between atoms: CB_4  and  CG_5
REMARK    5  A    between atoms: C_11  and  O_12
REMARK    6  A    between atoms: C_11  and  OXT_13
REMARK                            x       y       z     vdW  Elec       q    Type
REMARK                         _______ _______ _______ _____ _____    ______ ____
ROOT
ATOM      1  CA  PHE A   1       9.646   0.949  22.590  0.00  0.00    +0.136 C 
ENDROOT
BRANCH   1   2
ATOM      2  N   PHE A   1       9.563   1.970  21.510  0.00  0.00    -0.321 NA
ATOM      3  H1  PHE A   1       9.309   1.454  20.659  0.00  0.00    +0.119 HD
ATOM      4  H2  PHE A   1       8.756   2.573  21.657  0.00  0.00    +0.119 HD
ENDBRANCH   1   2
BRANCH   1   5
ATOM      5  C   PHE A   1      10.560   1.429  23.758  0.00  0.00    +0.363 C 
BRANCH   5   6
ATOM      6  OXT PHE A   1       9.831   1.277  24.971  0.00  0.00    -0.506 OA
ATOM      7  HXT PHE A   1      10.455   1.512  25.678  0.00  0.00    +0.287 HD
ENDBRANCH   5   6
BRANCH   5   8
ATOM      8  O   PHE A   1      10.952   2.785  23.642  0.00  0.00    -0.506 OA
ATOM      9  H   PHE A   1      10.168   3.334  23.784  0.00  0.00    +0.287 HD
ENDBRANCH   5   8
ENDBRANCH   1   5
BRANCH   1  10
ATOM     10  CB  PHE A   1      10.067  -0.406  21.993  0.00  0.00    +0.061 C 
BRANCH  10  11
ATOM     11  CG  PHE A   1       9.402  -1.587  22.661  0.00  0.00    -0.046 A 
ATOM     12  CD2 PHE A   1       8.166  -2.058  22.196  0.00  0.00    +0.004 A 
ATOM     13  CE2 PHE A   1       7.562  -3.167  22.794  0.00  0.00    +0.000 A 
ATOM     14  CZ  PHE A   1       8.186  -3.811  23.859  0.00  0.00    +0.000 A 
ATOM     15  CE1 PHE A   1       9.413  -3.348  24.332  0.00  0.00    +0.000 A 
ATOM     16  CD1 PHE A   1      10.016  -2.238  23.739  0.00  0.00    +0.004 A 
ENDBRANCH  10  11
ENDBRANCH   1  10
TORSDOF 6
ENDMDL
MODEL 9
REMARK VINA RESULT:      -4.5      4.912      6.249
REMARK  Name = 
REMARK  6 active torsions:
REMARK  status: ('A' for Active; 'I' for Inactive)
REMARK    1  A    between atoms: CA_2  and  N_3
REMARK    2  A    between atoms: CA_2  and  CB_4
REMARK    3  A    between atoms: CA_2  and  C_11
REMARK    4  A    between atoms: CB_4  and  CG_5
REMARK    5  A    between atoms: C_11  and  O_12
REMARK    6  A    between atoms: C_11  and  OXT_13
REMARK                            x       y       z     vdW  Elec       q    Type
REMARK                         _______ _______ _______ _____ _____    ______ ____
ROOT
ATOM      1  CA  PHE A   1       9.662   0.962  22.766  0.00  0.00    +0.136 C 
ENDROOT
BRANCH   1   2
ATOM      2  N   PHE A   1       9.882   1.982  21.705  0.00  0.00    -0.321 NA
ATOM      3  H1  PHE A   1       9.414   2.834  22.039  0.00  0.00    +0.119 HD
ATOM      4  H2  PHE A   1      10.861   2.257  21.679  0.00  0.00    +0.119 HD
ENDBRANCH   1   2
BRANCH   1   5
ATOM      5  C   PHE A   1      10.148   1.473  24.157  0.00  0.00    +0.363 C 
BRANCH   5   6
ATOM      6  OXT PHE A   1      11.396   0.850  24.437  0.00  0.00    -0.506 OA
ATOM      7  HXT PHE A   1      11.404   0.707  25.399  0.00  0.00    +0.287 HD
ENDBRANCH   5   6
BRANCH   5   8
ATOM      8  O   PHE A   1       9.253   1.168  25.210  0.00  0.00    -0.506 OA
ATOM      9  H   PHE A   1       9.263   1.909  25.834  0.00  0.00    +0.287 HD
ENDBRANCH   5   8
ENDBRANCH   1   5
BRANCH   1  10
ATOM     10  CB  PHE A   1      10.299  -0.374  22.343  0.00  0.00    +0.061 C 
BRANCH  10  11
ATOM     11  CG  PHE A   1       9.508  -1.582  22.790  0.00  0.00    -0.046 A 
ATOM     12  CD2 PHE A   1       9.945  -2.350  23.879  0.00  0.00    +0.004 A 
ATOM     13  CE2 PHE A   1       9.201  -3.450  24.311  0.00  0.00    +0.000 A 
ATOM     14  CZ  PHE A   1       8.018  -3.793  23.659  0.00  0.00    +0.000 A 
ATOM     15  CE1 PHE A   1       7.578  -3.039  22.573  0.00  0.00    +0.000 A 
ATOM     16  CD1 PHE A   1       8.321  -1.941  22.137  0.00  0.00    +0.004 A 
ENDBRANCH  10  11
ENDBRANCH   1  10
TORSDOF 6
ENDMDL
