MODEL 1
REMARK VINA RESULT:      -7.5      0.000      0.000
REMARK  Name = 
REMARK  9 active torsions:
REMARK  status: ('A' for Active; 'I' for Inactive)
REMARK    1  A    between atoms: C_1  and  C_2
REMARK    2  A    between atoms: C_2  and  C_3
REMARK    3  A    between atoms: C_8  and  N_9
REMARK    4  A    between atoms: C_10  and  C_11
REMARK    5  A    between atoms: N_23  and  C_24
REMARK    6  A    between atoms: C_24  and  C_25
REMARK    7  A    between atoms: C_25  and  C_26
REMARK    8  A    between atoms: C_26  and  O_27
REMARK    9  A    between atoms: O_27  and  C_28
REMARK                            x       y       z     vdW  Elec       q    Type
REMARK                         _______ _______ _______ _____ _____    ______ ____
ROOT
ATOM      1  C   UNL     1       7.537  -2.828  26.337  0.00  0.00    -0.011 A 
ATOM      2  C   UNL     1       8.366  -1.943  27.056  0.00  0.00    +0.009 A 
ATOM      3  C   UNL     1       8.933  -0.782  26.492  0.00  0.00    +0.011 A 
ATOM      4  C   UNL     1       8.846  -0.581  25.108  0.00  0.00    +0.008 A 
ATOM      5  C   UNL     1       9.279   0.442  24.210  0.00  0.00    +0.008 A 
ATOM      6  C   UNL     1       9.109  -0.047  22.912  0.00  0.00    +0.050 A 
ATOM      7  N   UNL     1       8.501  -1.283  23.031  0.00  0.00    -0.340 N 
ATOM      8  C   UNL     1       9.544   0.666  21.784  0.00  0.00    +0.026 A 
ATOM      9  C   UNL     1      10.094   1.937  21.983  0.00  0.00    +0.002 A 
ATOM     10  C   UNL     1      10.218   2.472  23.262  0.00  0.00    +0.001 A 
ATOM     11  C   UNL     1       9.833   1.729  24.381  0.00  0.00    +0.010 A 
ATOM     12  C   UNL     1       8.194  -1.546  24.351  0.00  0.00    +0.051 A 
ATOM     13  C   UNL     1       7.451  -2.584  24.951  0.00  0.00    +0.035 A 
ENDROOT
BRANCH   1  15
ATOM     14  C   UNL     1       5.503  -3.913  27.508  0.00  0.00    +0.056 A 
ATOM     15  C   UNL     1       6.815  -3.982  26.996  0.00  0.00    +0.043 A 
ATOM     16  C   UNL     1       7.368  -5.270  27.148  0.00  0.00    +0.129 A 
ATOM     17  N   UNL     1       6.757  -6.307  27.749  0.00  0.00    -0.199 NA
ATOM     18  C   UNL     1       5.545  -6.104  28.227  0.00  0.00    +0.214 A 
ATOM     19  N   UNL     1       4.922  -7.158  28.863  0.00  0.00    -0.327 N 
ATOM     20  H   UNL     1       5.617  -7.818  29.183  0.00  0.00    +0.145 HD
ATOM     21  H   UNL     1       4.255  -6.810  29.536  0.00  0.00    +0.145 HD
ATOM     22  N   UNL     1       4.903  -4.947  28.162  0.00  0.00    -0.219 NA
BRANCH  16  23
ATOM     23  N   UNL     1       8.591  -5.664  26.620  0.00  0.00    -0.343 N 
ATOM     24  H   UNL     1       9.408  -5.366  27.151  0.00  0.00    +0.144 HD
ATOM     25  H   UNL     1       8.569  -6.670  26.492  0.00  0.00    +0.144 HD
ENDBRANCH  16  23
BRANCH  14  27
ATOM     26  C   UNL     1       3.783  -2.631  26.115  0.00  0.00    +0.010 C 
ATOM     27  C   UNL     1       4.613  -2.695  27.394  0.00  0.00    +0.053 C 
ENDBRANCH  14  27
ENDBRANCH   1  15
BRANCH   7  28
ATOM     28  C   UNL     1       8.340  -2.231  21.939  0.00  0.00    +0.124 C 
BRANCH  28  29
ATOM     29  C   UNL     1       7.462  -3.431  22.316  0.00  0.00    +0.049 C 
BRANCH  29  30
ATOM     30  C   UNL     1       6.035  -3.366  21.770  0.00  0.00    +0.161 C 
BRANCH  30  31
ATOM     31  O   UNL     1       5.763  -4.352  20.777  0.00  0.00    -0.383 OA
ATOM     32  C   UNL     1       6.179  -5.665  21.129  0.00  0.00    +0.193 C 
ENDBRANCH  30  31
ENDBRANCH  29  30
ENDBRANCH  28  29
ENDBRANCH   7  28
TORSDOF 7
ENDMDL
MODEL 2
REMARK VINA RESULT:      -7.3      2.972      7.395
REMARK  Name = 
REMARK  9 active torsions:
REMARK  status: ('A' for Active; 'I' for Inactive)
REMARK    1  A    between atoms: C_1  and  C_2
REMARK    2  A    between atoms: C_2  and  C_3
REMARK    3  A    between atoms: C_8  and  N_9
REMARK    4  A    between atoms: C_10  and  C_11
REMARK    5  A    between atoms: N_23  and  C_24
REMARK    6  A    between atoms: C_24  and  C_25
REMARK    7  A    between atoms: C_25  and  C_26
REMARK    8  A    between atoms: C_26  and  O_27
REMARK    9  A    between atoms: O_27  and  C_28
REMARK                            x       y       z     vdW  Elec       q    Type
REMARK                         _______ _______ _______ _____ _____    ______ ____
ROOT
ATOM      1  C   UNL     1       8.356  -0.010  23.099  0.00  0.00    -0.011 A 
ATOM      2  C   UNL     1       9.087  -0.861  22.246  0.00  0.00    +0.009 A 
ATOM      3  C   UNL     1       8.677  -2.170  21.920  0.00  0.00    +0.011 A 
ATOM      4  C   UNL     1       7.604  -2.744  22.615  0.00  0.00    +0.008 A 
ATOM      5  C   UNL     1       6.924  -3.999  22.561  0.00  0.00    +0.008 A 
ATOM      6  C   UNL     1       6.089  -4.067  23.678  0.00  0.00    +0.050 A 
ATOM      7  N   UNL     1       6.193  -2.850  24.325  0.00  0.00    -0.340 N 
ATOM      8  C   UNL     1       5.357  -5.223  23.992  0.00  0.00    +0.026 A 
ATOM      9  C   UNL     1       5.423  -6.302  23.105  0.00  0.00    +0.002 A 
ATOM     10  C   UNL     1       6.199  -6.236  21.952  0.00  0.00    +0.001 A 
ATOM     11  C   UNL     1       6.968  -5.101  21.680  0.00  0.00    +0.010 A 
ATOM     12  C   UNL     1       6.988  -1.984  23.602  0.00  0.00    +0.051 A 
ATOM     13  C   UNL     1       7.268  -0.610  23.765  0.00  0.00    +0.035 A 
ENDROOT
BRANCH   1  15
ATOM     14  C   UNL     1       8.032   2.533  22.761  0.00  0.00    +0.056 A 
ATOM     15  C   UNL     1       8.728   1.440  23.316  0.00  0.00    +0.043 A 
ATOM     16  C   UNL     1       9.805   1.861  24.123  0.00  0.00    +0.129 A 
ATOM     17  N   UNL     1      10.171   3.142  24.315  0.00  0.00    -0.199 NA
ATOM     18  C   UNL     1       9.465   4.073  23.705  0.00  0.00    +0.214 A 
ATOM     19  N   UNL     1       9.850   5.387  23.882  0.00  0.00    -0.327 N 
ATOM     20  H   UNL     1      10.821   5.421  24.159  0.00  0.00    +0.145 HD
ATOM     21  H   UNL     1       9.566   5.940  23.086  0.00  0.00    +0.145 HD
ATOM     22  N   UNL     1       8.433   3.827  22.913  0.00  0.00    -0.219 NA
BRANCH  16  23
ATOM     23  N   UNL     1      10.581   1.011  24.899  0.00  0.00    -0.343 N 
ATOM     24  H   UNL     1      11.567   0.972  24.643  0.00  0.00    +0.144 HD
ATOM     25  H   UNL     1      10.452   1.265  25.872  0.00  0.00    +0.144 HD
ENDBRANCH  16  23
BRANCH  14  27
ATOM     26  C   UNL     1       5.542   3.079  22.543  0.00  0.00    +0.010 C 
ATOM     27  C   UNL     1       6.769   2.402  21.939  0.00  0.00    +0.053 C 
ENDBRANCH  14  27
ENDBRANCH   1  15
BRANCH   7  28
ATOM     28  C   UNL     1       5.659  -2.572  25.650  0.00  0.00    +0.124 C 
BRANCH  28  29
ATOM     29  C   UNL     1       6.624  -2.963  26.776  0.00  0.00    +0.049 C 
BRANCH  29  30
ATOM     30  C   UNL     1       6.300  -4.297  27.451  0.00  0.00    +0.161 C 
BRANCH  30  31
ATOM     31  O   UNL     1       7.433  -5.152  27.586  0.00  0.00    -0.383 OA
ATOM     32  C   UNL     1       8.319  -5.127  26.474  0.00  0.00    +0.193 C 
ENDBRANCH  30  31
ENDBRANCH  29  30
ENDBRANCH  28  29
ENDBRANCH   7  28
TORSDOF 7
ENDMDL
MODEL 3
REMARK VINA RESULT:      -7.2      2.887      7.636
REMARK  Name = 
REMARK  9 active torsions:
REMARK  status: ('A' for Active; 'I' for Inactive)
REMARK    1  A    between atoms: C_1  and  C_2
REMARK    2  A    between atoms: C_2  and  C_3
REMARK    3  A    between atoms: C_8  and  N_9
REMARK    4  A    between atoms: C_10  and  C_11
REMARK    5  A    between atoms: N_23  and  C_24
REMARK    6  A    between atoms: C_24  and  C_25
REMARK    7  A    between atoms: C_25  and  C_26
REMARK    8  A    between atoms: C_26  and  O_27
REMARK    9  A    between atoms: O_27  and  C_28
REMARK                            x       y       z     vdW  Elec       q    Type
REMARK                         _______ _______ _______ _____ _____    ______ ____
ROOT
ATOM      1  C   UNL     1       8.240   0.182  22.873  0.00  0.00    -0.011 A 
ATOM      2  C   UNL     1       8.990  -0.666  22.034  0.00  0.00    +0.009 A 
ATOM      3  C   UNL     1       8.630  -2.002  21.762  0.00  0.00    +0.011 A 
ATOM      4  C   UNL     1       7.595  -2.596  22.498  0.00  0.00    +0.008 A 
ATOM      5  C   UNL     1       6.969  -3.880  22.500  0.00  0.00    +0.008 A 
ATOM      6  C   UNL     1       6.158  -3.944  23.636  0.00  0.00    +0.050 A 
ATOM      7  N   UNL     1       6.223  -2.701  24.238  0.00  0.00    -0.340 N 
ATOM      8  C   UNL     1       5.482  -5.117  24.004  0.00  0.00    +0.026 A 
ATOM      9  C   UNL     1       5.577  -6.223  23.152  0.00  0.00    +0.002 A 
ATOM     10  C   UNL     1       6.328  -6.165  21.983  0.00  0.00    +0.001 A 
ATOM     11  C   UNL     1       7.042  -5.009  21.656  0.00  0.00    +0.010 A 
ATOM     12  C   UNL     1       6.967  -1.828  23.470  0.00  0.00    +0.051 A 
ATOM     13  C   UNL     1       7.191  -0.440  23.581  0.00  0.00    +0.035 A 
ENDROOT
BRANCH   1  15
ATOM     14  C   UNL     1       9.730   2.157  23.626  0.00  0.00    +0.056 A 
ATOM     15  C   UNL     1       8.554   1.653  23.033  0.00  0.00    +0.043 A 
ATOM     16  C   UNL     1       7.712   2.688  22.581  0.00  0.00    +0.129 A 
ATOM     17  N   UNL     1       7.956   4.004  22.731  0.00  0.00    -0.199 NA
ATOM     18  C   UNL     1       9.072   4.348  23.342  0.00  0.00    +0.214 A 
ATOM     19  N   UNL     1       9.317   5.695  23.516  0.00  0.00    -0.327 N 
ATOM     20  H   UNL     1       8.447   6.206  23.471  0.00  0.00    +0.145 HD
ATOM     21  H   UNL     1       9.907   5.837  24.323  0.00  0.00    +0.145 HD
ATOM     22  N   UNL     1       9.955   3.486  23.824  0.00  0.00    -0.219 NA
BRANCH  16  23
ATOM     23  N   UNL     1       6.553   2.489  21.843  0.00  0.00    -0.343 N 
ATOM     24  H   UNL     1       6.634   2.691  20.847  0.00  0.00    +0.144 HD
ATOM     25  H   UNL     1       6.229   1.543  22.013  0.00  0.00    +0.144 HD
ENDBRANCH  16  23
BRANCH  14  27
ATOM     26  C   UNL     1      10.510   0.326  25.235  0.00  0.00    +0.010 C 
ATOM     27  C   UNL     1      10.872   1.290  24.109  0.00  0.00    +0.053 C 
ENDBRANCH  14  27
ENDBRANCH   1  15
BRANCH   7  28
ATOM     28  C   UNL     1       5.702  -2.400  25.564  0.00  0.00    +0.124 C 
BRANCH  28  29
ATOM     29  C   UNL     1       6.678  -2.777  26.687  0.00  0.00    +0.049 C 
BRANCH  29  30
ATOM     30  C   UNL     1       6.329  -4.075  27.417  0.00  0.00    +0.161 C 
BRANCH  30  31
ATOM     31  O   UNL     1       7.420  -4.988  27.501  0.00  0.00    -0.383 OA
ATOM     32  C   UNL     1       8.498  -4.691  26.622  0.00  0.00    +0.193 C 
ENDBRANCH  30  31
ENDBRANCH  29  30
ENDBRANCH  28  29
ENDBRANCH   7  28
TORSDOF 7
ENDMDL
MODEL 4
REMARK VINA RESULT:      -7.2      2.772      7.575
REMARK  Name = 
REMARK  9 active torsions:
REMARK  status: ('A' for Active; 'I' for Inactive)
REMARK    1  A    between atoms: C_1  and  C_2
REMARK    2  A    between atoms: C_2  and  C_3
REMARK    3  A    between atoms: C_8  and  N_9
REMARK    4  A    between atoms: C_10  and  C_11
REMARK    5  A    between atoms: N_23  and  C_24
REMARK    6  A    between atoms: C_24  and  C_25
REMARK    7  A    between atoms: C_25  and  C_26
REMARK    8  A    between atoms: C_26  and  O_27
REMARK    9  A    between atoms: O_27  and  C_28
REMARK                            x       y       z     vdW  Elec       q    Type
REMARK                         _______ _______ _______ _____ _____    ______ ____
ROOT
ATOM      1  C   UNL     1       6.809  -1.556  23.325  0.00  0.00    -0.011 A 
ATOM      2  C   UNL     1       6.339  -2.285  22.214  0.00  0.00    +0.009 A 
ATOM      3  C   UNL     1       5.533  -3.437  22.328  0.00  0.00    +0.011 A 
ATOM      4  C   UNL     1       5.340  -4.015  23.590  0.00  0.00    +0.008 A 
ATOM      5  C   UNL     1       4.610  -5.141  24.081  0.00  0.00    +0.008 A 
ATOM      6  C   UNL     1       5.007  -5.346  25.404  0.00  0.00    +0.050 A 
ATOM      7  N   UNL     1       5.872  -4.316  25.723  0.00  0.00    -0.340 N 
ATOM      8  C   UNL     1       4.563  -6.447  26.153  0.00  0.00    +0.026 A 
ATOM      9  C   UNL     1       3.637  -7.312  25.561  0.00  0.00    +0.002 A 
ATOM     10  C   UNL     1       3.178  -7.094  24.266  0.00  0.00    +0.001 A 
ATOM     11  C   UNL     1       3.671  -6.026  23.510  0.00  0.00    +0.010 A 
ATOM     12  C   UNL     1       5.958  -3.416  24.680  0.00  0.00    +0.051 A 
ATOM     13  C   UNL     1       6.578  -2.152  24.581  0.00  0.00    +0.035 A 
ENDROOT
BRANCH   1  15
ATOM     14  C   UNL     1       8.875  -0.114  22.741  0.00  0.00    +0.056 A 
ATOM     15  C   UNL     1       7.542  -0.241  23.183  0.00  0.00    +0.043 A 
ATOM     16  C   UNL     1       6.961   1.014  23.457  0.00  0.00    +0.129 A 
ATOM     17  N   UNL     1       7.596   2.197  23.361  0.00  0.00    -0.199 NA
ATOM     18  C   UNL     1       8.857   2.179  22.977  0.00  0.00    +0.214 A 
ATOM     19  N   UNL     1       9.519   3.387  22.897  0.00  0.00    -0.327 N 
ATOM     20  H   UNL     1       9.054   4.067  23.483  0.00  0.00    +0.145 HD
ATOM     21  H   UNL     1      10.510   3.247  23.031  0.00  0.00    +0.145 HD
ATOM     22  N   UNL     1       9.534   1.077  22.692  0.00  0.00    -0.219 NA
BRANCH  16  23
ATOM     23  N   UNL     1       5.624   1.204  23.781  0.00  0.00    -0.343 N 
ATOM     24  H   UNL     1       5.166   0.402  24.213  0.00  0.00    +0.144 HD
ATOM     25  H   UNL     1       5.555   2.035  24.357  0.00  0.00    +0.144 HD
ENDBRANCH  16  23
BRANCH  14  27
ATOM     26  C   UNL     1      10.236  -2.183  23.384  0.00  0.00    +0.010 C 
ATOM     27  C   UNL     1       9.723  -1.275  22.270  0.00  0.00    +0.053 C 
ENDBRANCH  14  27
ENDBRANCH   1  15
BRANCH   7  28
ATOM     28  C   UNL     1       6.687  -4.267  26.928  0.00  0.00    +0.124 C 
BRANCH  28  29
ATOM     29  C   UNL     1       7.915  -5.184  26.856  0.00  0.00    +0.049 C 
BRANCH  29  30
ATOM     30  C   UNL     1       9.174  -4.511  26.306  0.00  0.00    +0.161 C 
BRANCH  30  31
ATOM     31  O   UNL     1       9.727  -5.182  25.176  0.00  0.00    -0.383 OA
ATOM     32  C   UNL     1       8.768  -5.562  24.197  0.00  0.00    +0.193 C 
ENDBRANCH  30  31
ENDBRANCH  29  30
ENDBRANCH  28  29
ENDBRANCH   7  28
TORSDOF 7
ENDMDL
MODEL 5
REMARK VINA RESULT:      -7.2      2.359      7.241
REMARK  Name = 
REMARK  9 active torsions:
REMARK  status: ('A' for Active; 'I' for Inactive)
REMARK    1  A    between atoms: C_1  and  C_2
REMARK    2  A    between atoms: C_2  and  C_3
REMARK    3  A    between atoms: C_8  and  N_9
REMARK    4  A    between atoms: C_10  and  C_11
REMARK    5  A    between atoms: N_23  and  C_24
REMARK    6  A    between atoms: C_24  and  C_25
REMARK    7  A    between atoms: C_25  and  C_26
REMARK    8  A    between atoms: C_26  and  O_27
REMARK    9  A    between atoms: O_27  and  C_28
REMARK                            x       y       z     vdW  Elec       q    Type
REMARK                         _______ _______ _______ _____ _____    ______ ____
ROOT
ATOM      1  C   UNL     1       7.710  -0.415  24.776  0.00  0.00    -0.011 A 
ATOM      2  C   UNL     1       6.347  -0.547  24.444  0.00  0.00    +0.009 A 
ATOM      3  C   UNL     1       5.496  -1.507  25.029  0.00  0.00    +0.011 A 
ATOM      4  C   UNL     1       6.049  -2.513  25.834  0.00  0.00    +0.008 A 
ATOM      5  C   UNL     1       5.522  -3.615  26.574  0.00  0.00    +0.008 A 
ATOM      6  C   UNL     1       6.605  -4.400  26.977  0.00  0.00    +0.050 A 
ATOM      7  N   UNL     1       7.747  -3.734  26.574  0.00  0.00    -0.340 N 
ATOM      8  C   UNL     1       6.432  -5.628  27.633  0.00  0.00    +0.026 A 
ATOM      9  C   UNL     1       5.128  -6.024  27.950  0.00  0.00    +0.002 A 
ATOM     10  C   UNL     1       4.036  -5.230  27.615  0.00  0.00    +0.001 A 
ATOM     11  C   UNL     1       4.218  -4.035  26.912  0.00  0.00    +0.010 A 
ATOM     12  C   UNL     1       7.426  -2.512  26.019  0.00  0.00    +0.051 A 
ATOM     13  C   UNL     1       8.231  -1.428  25.607  0.00  0.00    +0.035 A 
ENDROOT
BRANCH   1  15
ATOM     14  C   UNL     1       9.347   0.648  23.081  0.00  0.00    +0.056 A 
ATOM     15  C   UNL     1       8.569   0.715  24.254  0.00  0.00    +0.043 A 
ATOM     16  C   UNL     1       8.666   1.977  24.875  0.00  0.00    +0.129 A 
ATOM     17  N   UNL     1       9.439   2.991  24.445  0.00  0.00    -0.199 NA
ATOM     18  C   UNL     1      10.156   2.789  23.357  0.00  0.00    +0.214 A 
ATOM     19  N   UNL     1      10.966   3.819  22.923  0.00  0.00    -0.327 N 
ATOM     20  H   UNL     1      11.164   4.441  23.694  0.00  0.00    +0.145 HD
ATOM     21  H   UNL     1      11.748   3.448  22.403  0.00  0.00    +0.145 HD
ATOM     22  N   UNL     1      10.169   1.655  22.673  0.00  0.00    -0.219 NA
BRANCH  16  23
ATOM     23  N   UNL     1       7.909   2.372  25.970  0.00  0.00    -0.343 N 
ATOM     24  H   UNL     1       8.401   2.362  26.862  0.00  0.00    +0.144 HD
ATOM     25  H   UNL     1       7.512   3.282  25.766  0.00  0.00    +0.144 HD
ENDBRANCH  16  23
BRANCH  14  27
ATOM     26  C   UNL     1      10.388  -1.614  22.491  0.00  0.00    +0.010 C 
ATOM     27  C   UNL     1       9.362  -0.539  22.143  0.00  0.00    +0.053 C 
ENDBRANCH  14  27
ENDBRANCH   1  15
BRANCH   7  28
ATOM     28  C   UNL     1       9.086  -4.305  26.599  0.00  0.00    +0.124 C 
BRANCH  28  29
ATOM     29  C   UNL     1       9.494  -4.928  25.257  0.00  0.00    +0.049 C 
BRANCH  29  30
ATOM     30  C   UNL     1       8.331  -5.161  24.291  0.00  0.00    +0.161 C 
BRANCH  30  31
ATOM     31  O   UNL     1       8.340  -4.277  23.172  0.00  0.00    -0.383 OA
ATOM     32  C   UNL     1       7.062  -4.065  22.586  0.00  0.00    +0.193 C 
ENDBRANCH  30  31
ENDBRANCH  29  30
ENDBRANCH  28  29
ENDBRANCH   7  28
TORSDOF 7
ENDMDL
MODEL 6
REMARK VINA RESULT:      -7.2      2.148      3.393
REMARK  Name = 
REMARK  9 active torsions:
REMARK  status: ('A' for Active; 'I' for Inactive)
REMARK    1  A    between atoms: C_1  and  C_2
REMARK    2  A    between atoms: C_2  and  C_3
REMARK    3  A    between atoms: C_8  and  N_9
REMARK    4  A    between atoms: C_10  and  C_11
REMARK    5  A    between atoms: N_23  and  C_24
REMARK    6  A    between atoms: C_24  and  C_25
REMARK    7  A    between atoms: C_25  and  C_26
REMARK    8  A    between atoms: C_26  and  O_27
REMARK    9  A    between atoms: O_27  and  C_28
REMARK                            x       y       z     vdW  Elec       q    Type
REMARK                         _______ _______ _______ _____ _____    ______ ____
ROOT
ATOM      1  C   UNL     1       7.144  -3.189  25.169  0.00  0.00    -0.011 A 
ATOM      2  C   UNL     1       7.488  -3.299  23.807  0.00  0.00    +0.009 A 
ATOM      3  C   UNL     1       8.172  -2.292  23.097  0.00  0.00    +0.011 A 
ATOM      4  C   UNL     1       8.356  -1.037  23.695  0.00  0.00    +0.008 A 
ATOM      5  C   UNL     1       8.984   0.184  23.301  0.00  0.00    +0.008 A 
ATOM      6  C   UNL     1       8.623   1.156  24.237  0.00  0.00    +0.050 A 
ATOM      7  N   UNL     1       7.885   0.511  25.212  0.00  0.00    -0.340 N 
ATOM      8  C   UNL     1       8.980   2.505  24.085  0.00  0.00    +0.026 A 
ATOM      9  C   UNL     1       9.785   2.852  22.996  0.00  0.00    +0.002 A 
ATOM     10  C   UNL     1      10.209   1.891  22.083  0.00  0.00    +0.001 A 
ATOM     11  C   UNL     1       9.800   0.561  22.213  0.00  0.00    +0.010 A 
ATOM     12  C   UNL     1       7.851  -0.848  24.974  0.00  0.00    +0.051 A 
ATOM     13  C   UNL     1       7.364  -1.923  25.748  0.00  0.00    +0.035 A 
ENDROOT
BRANCH   1  15
ATOM     14  C   UNL     1       5.179  -4.675  25.956  0.00  0.00    +0.056 A 
ATOM     15  C   UNL     1       6.548  -4.337  25.953  0.00  0.00    +0.043 A 
ATOM     16  C   UNL     1       7.305  -5.217  26.753  0.00  0.00    +0.129 A 
ATOM     17  N   UNL     1       6.798  -6.232  27.478  0.00  0.00    -0.199 NA
ATOM     18  C   UNL     1       5.494  -6.419  27.431  0.00  0.00    +0.214 A 
ATOM     19  N   UNL     1       4.967  -7.445  28.189  0.00  0.00    -0.327 N 
ATOM     20  H   UNL     1       5.604  -7.672  28.940  0.00  0.00    +0.145 HD
ATOM     21  H   UNL     1       4.008  -7.239  28.429  0.00  0.00    +0.145 HD
ATOM     22  N   UNL     1       4.658  -5.669  26.729  0.00  0.00    -0.219 NA
BRANCH  16  23
ATOM     23  N   UNL     1       8.691  -5.206  26.833  0.00  0.00    -0.343 N 
ATOM     24  H   UNL     1       9.133  -6.124  26.803  0.00  0.00    +0.144 HD
ATOM     25  H   UNL     1       9.044  -4.592  26.107  0.00  0.00    +0.144 HD
ENDBRANCH  16  23
BRANCH  14  27
ATOM     26  C   UNL     1       3.955  -4.569  23.712  0.00  0.00    +0.010 C 
ATOM     27  C   UNL     1       4.135  -3.981  25.109  0.00  0.00    +0.053 C 
ENDBRANCH  14  27
ENDBRANCH   1  15
BRANCH   7  28
ATOM     28  C   UNL     1       7.131   1.188  26.257  0.00  0.00    +0.124 C 
BRANCH  28  29
ATOM     29  C   UNL     1       5.799   1.761  25.756  0.00  0.00    +0.049 C 
BRANCH  29  30
ATOM     30  C   UNL     1       4.565   1.209  26.473  0.00  0.00    +0.161 C 
BRANCH  30  31
ATOM     31  O   UNL     1       4.308  -0.163  26.181  0.00  0.00    -0.383 OA
ATOM     32  C   UNL     1       4.209  -0.995  27.330  0.00  0.00    +0.193 C 
ENDBRANCH  30  31
ENDBRANCH  29  30
ENDBRANCH  28  29
ENDBRANCH   7  28
TORSDOF 7
ENDMDL
MODEL 7
REMARK VINA RESULT:      -7.1      2.944      3.975
REMARK  Name = 
REMARK  9 active torsions:
REMARK  status: ('A' for Active; 'I' for Inactive)
REMARK    1  A    between atoms: C_1  and  C_2
REMARK    2  A    between atoms: C_2  and  C_3
REMARK    3  A    between atoms: C_8  and  N_9
REMARK    4  A    between atoms: C_10  and  C_11
REMARK    5  A    between atoms: N_23  and  C_24
REMARK    6  A    between atoms: C_24  and  C_25
REMARK    7  A    between atoms: C_25  and  C_26
REMARK    8  A    between atoms: C_26  and  O_27
REMARK    9  A    between atoms: O_27  and  C_28
REMARK                            x       y       z     vdW  Elec       q    Type
REMARK                         _______ _______ _______ _____ _____    ______ ____
ROOT
ATOM      1  C   UNL     1       7.203  -3.598  24.609  0.00  0.00    -0.011 A 
ATOM      2  C   UNL     1       8.535  -3.755  24.175  0.00  0.00    +0.009 A 
ATOM      3  C   UNL     1       9.440  -2.681  24.048  0.00  0.00    +0.011 A 
ATOM      4  C   UNL     1       8.964  -1.368  24.164  0.00  0.00    +0.008 A 
ATOM      5  C   UNL     1       9.561  -0.071  24.104  0.00  0.00    +0.008 A 
ATOM      6  C   UNL     1       8.522   0.861  24.051  0.00  0.00    +0.050 A 
ATOM      7  N   UNL     1       7.344   0.149  24.176  0.00  0.00    -0.340 N 
ATOM      8  C   UNL     1       8.760   2.232  23.871  0.00  0.00    +0.026 A 
ATOM      9  C   UNL     1      10.089   2.667  23.820  0.00  0.00    +0.002 A 
ATOM     10  C   UNL     1      11.142   1.764  23.933  0.00  0.00    +0.001 A 
ATOM     11  C   UNL     1      10.892   0.395  24.055  0.00  0.00    +0.010 A 
ATOM     12  C   UNL     1       7.608  -1.187  24.404  0.00  0.00    +0.051 A 
ATOM     13  C   UNL     1       6.762  -2.266  24.740  0.00  0.00    +0.035 A 
ENDROOT
BRANCH   1  15
ATOM     14  C   UNL     1       5.428  -5.354  23.935  0.00  0.00    +0.056 A 
ATOM     15  C   UNL     1       6.294  -4.775  24.886  0.00  0.00    +0.043 A 
ATOM     16  C   UNL     1       6.230  -5.442  26.126  0.00  0.00    +0.129 A 
ATOM     17  N   UNL     1       5.415  -6.476  26.406  0.00  0.00    -0.199 NA
ATOM     18  C   UNL     1       4.619  -6.899  25.443  0.00  0.00    +0.214 A 
ATOM     19  N   UNL     1       3.767  -7.946  25.731  0.00  0.00    -0.327 N 
ATOM     20  H   UNL     1       3.622  -7.999  26.730  0.00  0.00    +0.145 HD
ATOM     21  H   UNL     1       2.952  -7.900  25.137  0.00  0.00    +0.145 HD
ATOM     22  N   UNL     1       4.567  -6.367  24.232  0.00  0.00    -0.219 NA
BRANCH  16  23
ATOM     23  N   UNL     1       7.064  -5.174  27.203  0.00  0.00    -0.343 N 
ATOM     24  H   UNL     1       7.742  -5.905  27.418  0.00  0.00    +0.144 HD
ATOM     25  H   UNL     1       7.512  -4.279  27.041  0.00  0.00    +0.144 HD
ENDBRANCH  16  23
BRANCH  14  27
ATOM     26  C   UNL     1       6.339  -5.635  21.561  0.00  0.00    +0.010 C 
ATOM     27  C   UNL     1       5.355  -4.925  22.486  0.00  0.00    +0.053 C 
ENDBRANCH  14  27
ENDBRANCH   1  15
BRANCH   7  28
ATOM     28  C   UNL     1       6.017   0.704  23.955  0.00  0.00    +0.124 C 
BRANCH  28  29
ATOM     29  C   UNL     1       5.388   1.273  25.234  0.00  0.00    +0.049 C 
BRANCH  29  30
ATOM     30  C   UNL     1       4.686   2.619  25.047  0.00  0.00    +0.161 C 
BRANCH  30  31
ATOM     31  O   UNL     1       3.526   2.542  24.221  0.00  0.00    -0.383 OA
ATOM     32  C   UNL     1       3.590   3.348  23.051  0.00  0.00    +0.193 C 
ENDBRANCH  30  31
ENDBRANCH  29  30
ENDBRANCH  28  29
ENDBRANCH   7  28
TORSDOF 7
ENDMDL
MODEL 8
REMARK VINA RESULT:      -7.0      2.571      7.359
REMARK  Name = 
REMARK  9 active torsions:
REMARK  status: ('A' for Active; 'I' for Inactive)
REMARK    1  A    between atoms: C_1  and  C_2
REMARK    2  A    between atoms: C_2  and  C_3
REMARK    3  A    between atoms: C_8  and  N_9
REMARK    4  A    between atoms: C_10  and  C_11
REMARK    5  A    between atoms: N_23  and  C_24
REMARK    6  A    between atoms: C_24  and  C_25
REMARK    7  A    between atoms: C_25  and  C_26
REMARK    8  A    between atoms: C_26  and  O_27
REMARK    9  A    between atoms: O_27  and  C_28
REMARK                            x       y       z     vdW  Elec       q    Type
REMARK                         _______ _______ _______ _____ _____    ______ ____
ROOT
ATOM      1  C   UNL     1       6.874  -1.773  23.313  0.00  0.00    -0.011 A 
ATOM      2  C   UNL     1       6.081  -2.460  22.372  0.00  0.00    +0.009 A 
ATOM      3  C   UNL     1       5.111  -3.419  22.729  0.00  0.00    +0.011 A 
ATOM      4  C   UNL     1       5.049  -3.870  24.055  0.00  0.00    +0.008 A 
ATOM      5  C   UNL     1       4.227  -4.796  24.767  0.00  0.00    +0.008 A 
ATOM      6  C   UNL     1       4.815  -4.996  26.018  0.00  0.00    +0.050 A 
ATOM      7  N   UNL     1       5.899  -4.141  26.086  0.00  0.00    -0.340 N 
ATOM      8  C   UNL     1       4.320  -5.939  26.931  0.00  0.00    +0.026 A 
ATOM      9  C   UNL     1       3.157  -6.637  26.589  0.00  0.00    +0.002 A 
ATOM     10  C   UNL     1       2.517  -6.410  25.375  0.00  0.00    +0.001 A 
ATOM     11  C   UNL     1       3.051  -5.509  24.449  0.00  0.00    +0.010 A 
ATOM     12  C   UNL     1       5.957  -3.341  24.963  0.00  0.00    +0.051 A 
ATOM     13  C   UNL     1       6.771  -2.234  24.642  0.00  0.00    +0.035 A 
ENDROOT
BRANCH   1  15
ATOM     14  C   UNL     1       7.431   0.721  22.918  0.00  0.00    +0.056 A 
ATOM     15  C   UNL     1       7.798  -0.641  22.926  0.00  0.00    +0.043 A 
ATOM     16  C   UNL     1       9.145  -0.821  22.551  0.00  0.00    +0.129 A 
ATOM     17  N   UNL     1       9.982   0.165  22.180  0.00  0.00    -0.199 NA
ATOM     18  C   UNL     1       9.506   1.395  22.173  0.00  0.00    +0.214 A 
ATOM     19  N   UNL     1      10.355   2.407  21.774  0.00  0.00    -0.327 N 
ATOM     20  H   UNL     1      11.099   2.022  21.208  0.00  0.00    +0.145 HD
ATOM     21  H   UNL     1       9.821   3.175  21.393  0.00  0.00    +0.145 HD
ATOM     22  N   UNL     1       8.262   1.714  22.495  0.00  0.00    -0.219 NA
BRANCH  16  23
ATOM     23  N   UNL     1       9.814  -2.037  22.595  0.00  0.00    -0.343 N 
ATOM     24  H   UNL     1       9.755  -2.531  23.485  0.00  0.00    +0.144 HD
ATOM     25  H   UNL     1       9.485  -2.606  21.823  0.00  0.00    +0.144 HD
ENDBRANCH  16  23
BRANCH  14  27
ATOM     26  C   UNL     1       5.978   1.493  24.877  0.00  0.00    +0.010 C 
ATOM     27  C   UNL     1       6.085   1.236  23.377  0.00  0.00    +0.053 C 
ENDBRANCH  14  27
ENDBRANCH   1  15
BRANCH   7  28
ATOM     28  C   UNL     1       6.916  -4.181  27.127  0.00  0.00    +0.124 C 
BRANCH  28  29
ATOM     29  C   UNL     1       8.067  -5.142  26.799  0.00  0.00    +0.049 C 
BRANCH  29  30
ATOM     30  C   UNL     1       9.358  -4.452  26.357  0.00  0.00    +0.161 C 
BRANCH  30  31
ATOM     31  O   UNL     1       9.561  -4.481  24.946  0.00  0.00    -0.383 OA
ATOM     32  C   UNL     1       8.745  -5.422  24.259  0.00  0.00    +0.193 C 
ENDBRANCH  30  31
ENDBRANCH  29  30
ENDBRANCH  28  29
ENDBRANCH   7  28
TORSDOF 7
ENDMDL
MODEL 9
REMARK VINA RESULT:      -7.0      2.719      4.013
REMARK  Name = 
REMARK  9 active torsions:
REMARK  status: ('A' for Active; 'I' for Inactive)
REMARK    1  A    between atoms: C_1  and  C_2
REMARK    2  A    between atoms: C_2  and  C_3
REMARK    3  A    between atoms: C_8  and  N_9
REMARK    4  A    between atoms: C_10  and  C_11
REMARK    5  A    between atoms: N_23  and  C_24
REMARK    6  A    between atoms: C_24  and  C_25
REMARK    7  A    between atoms: C_25  and  C_26
REMARK    8  A    between atoms: C_26  and  O_27
REMARK    9  A    between atoms: O_27  and  C_28
REMARK                            x       y       z     vdW  Elec       q    Type
REMARK                         _______ _______ _______ _____ _____    ______ ____
ROOT
ATOM      1  C   UNL     1       7.063  -3.845  24.667  0.00  0.00    -0.011 A 
ATOM      2  C   UNL     1       8.377  -4.035  24.195  0.00  0.00    +0.009 A 
ATOM      3  C   UNL     1       9.320  -2.992  24.089  0.00  0.00    +0.011 A 
ATOM      4  C   UNL     1       8.899  -1.667  24.268  0.00  0.00    +0.008 A 
ATOM      5  C   UNL     1       9.544  -0.393  24.244  0.00  0.00    +0.008 A 
ATOM      6  C   UNL     1       8.541   0.580  24.252  0.00  0.00    +0.050 A 
ATOM      7  N   UNL     1       7.340  -0.092  24.378  0.00  0.00    -0.340 N 
ATOM      8  C   UNL     1       8.828   1.947  24.121  0.00  0.00    +0.026 A 
ATOM      9  C   UNL     1      10.172   2.332  24.055  0.00  0.00    +0.002 A 
ATOM     10  C   UNL     1      11.191   1.387  24.107  0.00  0.00    +0.001 A 
ATOM     11  C   UNL     1      10.891   0.024  24.181  0.00  0.00    +0.010 A 
ATOM     12  C   UNL     1       7.556  -1.445  24.546  0.00  0.00    +0.051 A 
ATOM     13  C   UNL     1       6.677  -2.503  24.860  0.00  0.00    +0.035 A 
ENDROOT
BRANCH   1  15
ATOM     14  C   UNL     1       5.259  -5.552  23.946  0.00  0.00    +0.056 A 
ATOM     15  C   UNL     1       6.115  -4.997  24.919  0.00  0.00    +0.043 A 
ATOM     16  C   UNL     1       6.000  -5.662  26.156  0.00  0.00    +0.129 A 
ATOM     17  N   UNL     1       5.150  -6.673  26.414  0.00  0.00    -0.199 NA
ATOM     18  C   UNL     1       4.369  -7.075  25.431  0.00  0.00    +0.214 A 
ATOM     19  N   UNL     1       3.481  -8.097  25.695  0.00  0.00    -0.327 N 
ATOM     20  H   UNL     1       3.309  -8.147  26.690  0.00  0.00    +0.145 HD
ATOM     21  H   UNL     1       2.683  -8.029  25.080  0.00  0.00    +0.145 HD
ATOM     22  N   UNL     1       4.362  -6.541  24.218  0.00  0.00    -0.219 NA
BRANCH  16  23
ATOM     23  N   UNL     1       6.814  -5.418  27.255  0.00  0.00    -0.343 N 
ATOM     24  H   UNL     1       7.354  -6.218  27.580  0.00  0.00    +0.144 HD
ATOM     25  H   UNL     1       7.406  -4.624  27.038  0.00  0.00    +0.144 HD
ENDBRANCH  16  23
BRANCH  14  27
ATOM     26  C   UNL     1       6.243  -5.836  21.601  0.00  0.00    +0.010 C 
ATOM     27  C   UNL     1       5.235  -5.121  22.495  0.00  0.00    +0.053 C 
ENDBRANCH  14  27
ENDBRANCH   1  15
BRANCH   7  28
ATOM     28  C   UNL     1       6.031   0.522  24.210  0.00  0.00    +0.124 C 
BRANCH  28  29
ATOM     29  C   UNL     1       5.556   1.266  25.465  0.00  0.00    +0.049 C 
BRANCH  29  30
ATOM     30  C   UNL     1       5.061   0.355  26.590  0.00  0.00    +0.161 C 
BRANCH  30  31
ATOM     31  O   UNL     1       5.625   0.669  27.861  0.00  0.00    -0.383 OA
ATOM     32  C   UNL     1       7.044   0.587  27.907  0.00  0.00    +0.193 C 
ENDBRANCH  30  31
ENDBRANCH  29  30
ENDBRANCH  28  29
ENDBRANCH   7  28
TORSDOF 7
ENDMDL
