MODEL 1
REMARK VINA RESULT:      -5.7      0.000      0.000
REMARK  Name = 
REMARK  2 active torsions:
REMARK  status: ('A' for Active; 'I' for Inactive)
REMARK    1  A    between atoms: CA_7  and  C_8
REMARK    2  A    between atoms: C_8  and  O_9
REMARK                            x       y       z     vdW  Elec       q    Type
REMARK                         _______ _______ _______ _____ _____    ______ ____
ROOT
ATOM      1  N   UNL     1       9.693  -5.536  25.608  0.00  0.00    -0.329 N 
ATOM      2  H   UNL     1       8.985  -6.002  26.156  0.00  0.00    +0.145 HD
ATOM      3  H   UNL     1      10.071  -6.107  24.857  0.00  0.00    +0.145 HD
ATOM      4  C   UNL     1       9.488  -4.249  25.242  0.00  0.00    +0.195 A 
ATOM      5  N   UNL     1       8.721  -3.491  26.076  0.00  0.00    -0.293 N 
ATOM      6  H   UNL     1       8.363  -3.881  26.934  0.00  0.00    +0.172 HD
ATOM      7  C   UNL     1       8.436  -2.160  25.861  0.00  0.00    +0.280 A 
ATOM      8  O   UNL     1       7.749  -1.521  26.650  0.00  0.00    -0.265 OA
ATOM      9  C   UNL     1       9.016  -1.580  24.637  0.00  0.00    +0.172 A 
ATOM     10  C   UNL     1       9.767  -2.438  23.842  0.00  0.00    +0.187 A 
ATOM     11  N   UNL     1      10.348  -1.997  22.703  0.00  0.00    -0.232 NA
ATOM     12  C   UNL     1      10.158  -0.686  22.411  0.00  0.00    +0.138 A 
ATOM     13  CA  UNL     1       9.408   0.172  23.214  0.00  0.00    +0.086 A 
ATOM     14  N   UNL     1       8.810  -0.263  24.357  0.00  0.00    -0.239 NA
ATOM     15  N   UNL     1      10.000  -3.785  24.150  0.00  0.00    -0.195 NA
ENDROOT
BRANCH  13  16
ATOM     16  C   UNL     1       9.251   1.625  22.844  0.00  0.00    +0.212 C 
BRANCH  16  17
ATOM     17  O   UNL     1       9.861   1.915  21.587  0.00  0.00    -0.389 OA
ATOM     18  H   UNL     1      10.057   2.877  21.599  0.00  0.00    +0.210 HD
ENDBRANCH  16  17
ENDBRANCH  13  16
TORSDOF 2
ENDMDL
MODEL 2
REMARK VINA RESULT:      -5.7      2.449      4.933
REMARK  Name = 
REMARK  2 active torsions:
REMARK  status: ('A' for Active; 'I' for Inactive)
REMARK    1  A    between atoms: CA_7  and  C_8
REMARK    2  A    between atoms: C_8  and  O_9
REMARK                            x       y       z     vdW  Elec       q    Type
REMARK                         _______ _______ _______ _____ _____    ______ ____
ROOT
ATOM      1  N   UNL     1       9.329   2.271  21.408  0.00  0.00    -0.329 N 
ATOM      2  H   UNL     1      10.098   2.924  21.437  0.00  0.00    +0.145 HD
ATOM      3  H   UNL     1       8.966   2.108  20.472  0.00  0.00    +0.145 HD
ATOM      4  C   UNL     1       9.407   1.143  22.151  0.00  0.00    +0.195 A 
ATOM      5  N   UNL     1      10.144   1.214  23.295  0.00  0.00    -0.293 N 
ATOM      6  H   UNL     1      10.573   2.083  23.572  0.00  0.00    +0.172 HD
ATOM      7  C   UNL     1      10.305   0.164  24.173  0.00  0.00    +0.280 A 
ATOM      8  O   UNL     1      10.970   0.284  25.195  0.00  0.00    -0.265 OA
ATOM      9  C   UNL     1       9.623  -1.086  23.793  0.00  0.00    +0.172 A 
ATOM     10  C   UNL     1       8.911  -1.064  22.599  0.00  0.00    +0.187 A 
ATOM     11  N   UNL     1       8.244  -2.160  22.169  0.00  0.00    -0.232 NA
ATOM     12  C   UNL     1       8.309  -3.247  22.978  0.00  0.00    +0.138 A 
ATOM     13  CA  UNL     1       9.019  -3.263  24.178  0.00  0.00    +0.086 A 
ATOM     14  N   UNL     1       9.704  -2.170  24.615  0.00  0.00    -0.239 NA
ATOM     15  N   UNL     1       8.809   0.062  21.771  0.00  0.00    -0.195 NA
ENDROOT
BRANCH  13  16
ATOM     16  C   UNL     1       9.035  -4.498  25.042  0.00  0.00    +0.212 C 
BRANCH  16  17
ATOM     17  O   UNL     1      10.291  -5.170  24.973  0.00  0.00    -0.389 OA
ATOM     18  H   UNL     1      10.272  -5.691  24.142  0.00  0.00    +0.210 HD
ENDBRANCH  16  17
ENDBRANCH  13  16
TORSDOF 2
ENDMDL
MODEL 3
REMARK VINA RESULT:      -5.6      2.541      3.407
REMARK  Name = 
REMARK  2 active torsions:
REMARK  status: ('A' for Active; 'I' for Inactive)
REMARK    1  A    between atoms: CA_7  and  C_8
REMARK    2  A    between atoms: C_8  and  O_9
REMARK                            x       y       z     vdW  Elec       q    Type
REMARK                         _______ _______ _______ _____ _____    ______ ____
ROOT
ATOM      1  N   UNL     1       6.791  -6.088  27.767  0.00  0.00    -0.329 N 
ATOM      2  H   UNL     1       7.390  -6.457  28.491  0.00  0.00    +0.145 HD
ATOM      3  H   UNL     1       5.920  -5.697  28.116  0.00  0.00    +0.145 HD
ATOM      4  C   UNL     1       7.346  -5.347  26.780  0.00  0.00    +0.195 A 
ATOM      5  N   UNL     1       8.641  -5.628  26.459  0.00  0.00    -0.293 N 
ATOM      6  H   UNL     1       9.130  -6.377  26.924  0.00  0.00    +0.172 HD
ATOM      7  C   UNL     1       9.345  -4.983  25.465  0.00  0.00    +0.280 A 
ATOM      8  O   UNL     1      10.505  -5.283  25.209  0.00  0.00    -0.265 OA
ATOM      9  C   UNL     1       8.602  -3.932  24.747  0.00  0.00    +0.172 A 
ATOM     10  C   UNL     1       7.293  -3.707  25.160  0.00  0.00    +0.187 A 
ATOM     11  N   UNL     1       6.528  -2.770  24.556  0.00  0.00    -0.232 NA
ATOM     12  C   UNL     1       7.114  -2.093  23.537  0.00  0.00    +0.138 A 
ATOM     13  CA  UNL     1       8.424  -2.326  23.122  0.00  0.00    +0.086 A 
ATOM     14  N   UNL     1       9.208  -3.259  23.729  0.00  0.00    -0.239 NA
ATOM     15  N   UNL     1       6.665  -4.421  26.189  0.00  0.00    -0.195 NA
ENDROOT
BRANCH  13  16
ATOM     16  C   UNL     1       9.011  -1.554  21.968  0.00  0.00    +0.212 C 
BRANCH  16  17
ATOM     17  O   UNL     1      10.422  -1.742  21.874  0.00  0.00    -0.389 OA
ATOM     18  H   UNL     1      10.790  -1.449  22.735  0.00  0.00    +0.210 HD
ENDBRANCH  16  17
ENDBRANCH  13  16
TORSDOF 2
ENDMDL
MODEL 4
REMARK VINA RESULT:      -5.6      2.342      5.065
REMARK  Name = 
REMARK  2 active torsions:
REMARK  status: ('A' for Active; 'I' for Inactive)
REMARK    1  A    between atoms: CA_7  and  C_8
REMARK    2  A    between atoms: C_8  and  O_9
REMARK                            x       y       z     vdW  Elec       q    Type
REMARK                         _______ _______ _______ _____ _____    ______ ____
ROOT
ATOM      1  N   UNL     1      10.109  -1.031  21.434  0.00  0.00    -0.329 N 
ATOM      2  H   UNL     1       9.891  -0.065  21.235  0.00  0.00    +0.145 HD
ATOM      3  H   UNL     1      11.106  -1.227  21.465  0.00  0.00    +0.145 HD
ATOM      4  C   UNL     1       9.413  -1.667  22.404  0.00  0.00    +0.195 A 
ATOM      5  N   UNL     1       8.137  -1.241  22.621  0.00  0.00    -0.293 N 
ATOM      6  H   UNL     1       7.740  -0.509  22.052  0.00  0.00    +0.172 HD
ATOM      7  C   UNL     1       7.288  -1.795  23.555  0.00  0.00    +0.280 A 
ATOM      8  O   UNL     1       6.144  -1.381  23.702  0.00  0.00    -0.265 OA
ATOM      9  C   UNL     1       7.854  -2.907  24.340  0.00  0.00    +0.172 A 
ATOM     10  C   UNL     1       9.170  -3.256  24.057  0.00  0.00    +0.187 A 
ATOM     11  N   UNL     1       9.775  -4.269  24.719  0.00  0.00    -0.232 NA
ATOM     12  C   UNL     1       9.016  -4.910  25.643  0.00  0.00    +0.138 A 
ATOM     13  CA  UNL     1       7.695  -4.560  25.918  0.00  0.00    +0.086 A 
ATOM     14  N   UNL     1       7.079  -3.535  25.267  0.00  0.00    -0.239 NA
ATOM     15  N   UNL     1       9.954  -2.625  23.083  0.00  0.00    -0.195 NA
ENDROOT
BRANCH  13  16
ATOM     16  C   UNL     1       6.899  -5.326  26.944  0.00  0.00    +0.212 C 
BRANCH  16  17
ATOM     17  O   UNL     1       7.741  -6.121  27.776  0.00  0.00    -0.389 OA
ATOM     18  H   UNL     1       7.155  -6.503  28.464  0.00  0.00    +0.210 HD
ENDBRANCH  16  17
ENDBRANCH  13  16
TORSDOF 2
ENDMDL
MODEL 5
REMARK VINA RESULT:      -5.6      2.157      5.209
REMARK  Name = 
REMARK  2 active torsions:
REMARK  status: ('A' for Active; 'I' for Inactive)
REMARK    1  A    between atoms: CA_7  and  C_8
REMARK    2  A    between atoms: C_8  and  O_9
REMARK                            x       y       z     vdW  Elec       q    Type
REMARK                         _______ _______ _______ _____ _____    ______ ____
ROOT
ATOM      1  N   UNL     1      10.007   2.218  24.173  0.00  0.00    -0.329 N 
ATOM      2  H   UNL     1      10.045   2.677  23.274  0.00  0.00    +0.145 HD
ATOM      3  H   UNL     1       9.431   2.702  24.856  0.00  0.00    +0.145 HD
ATOM      4  C   UNL     1       9.854   0.874  24.208  0.00  0.00    +0.195 A 
ATOM      5  N   UNL     1      10.353   0.173  23.151  0.00  0.00    -0.293 N 
ATOM      6  H   UNL     1      10.838   0.650  22.406  0.00  0.00    +0.172 HD
ATOM      7  C   UNL     1      10.300  -1.200  23.043  0.00  0.00    +0.280 A 
ATOM      8  O   UNL     1      10.775  -1.782  22.075  0.00  0.00    -0.265 OA
ATOM      9  C   UNL     1       9.645  -1.895  24.165  0.00  0.00    +0.172 A 
ATOM     10  C   UNL     1       9.152  -1.092  25.187  0.00  0.00    +0.187 A 
ATOM     11  N   UNL     1       8.542  -1.638  26.264  0.00  0.00    -0.232 NA
ATOM     12  C   UNL     1       8.463  -2.992  26.277  0.00  0.00    +0.138 A 
ATOM     13  CA  UNL     1       8.964  -3.794  25.252  0.00  0.00    +0.086 A 
ATOM     14  N   UNL     1       9.570  -3.255  24.158  0.00  0.00    -0.239 NA
ATOM     15  N   UNL     1       9.256   0.305  25.202  0.00  0.00    -0.195 NA
ENDROOT
BRANCH  13  16
ATOM     16  C   UNL     1       8.863  -5.296  25.336  0.00  0.00    +0.212 C 
BRANCH  16  17
ATOM     17  O   UNL     1      10.140  -5.896  25.548  0.00  0.00    -0.389 OA
ATOM     18  H   UNL     1      10.361  -6.360  24.712  0.00  0.00    +0.210 HD
ENDBRANCH  16  17
ENDBRANCH  13  16
TORSDOF 2
ENDMDL
MODEL 6
REMARK VINA RESULT:      -5.4      3.781      4.299
REMARK  Name = 
REMARK  2 active torsions:
REMARK  status: ('A' for Active; 'I' for Inactive)
REMARK    1  A    between atoms: CA_7  and  C_8
REMARK    2  A    between atoms: C_8  and  O_9
REMARK                            x       y       z     vdW  Elec       q    Type
REMARK                         _______ _______ _______ _____ _____    ______ ____
ROOT
ATOM      1  N   UNL     1       4.554  -6.915  23.975  0.00  0.00    -0.329 N 
ATOM      2  H   UNL     1       4.081  -7.438  23.253  0.00  0.00    +0.145 HD
ATOM      3  H   UNL     1       4.895  -7.491  24.740  0.00  0.00    +0.145 HD
ATOM      4  C   UNL     1       5.428  -5.948  23.610  0.00  0.00    +0.195 A 
ATOM      5  N   UNL     1       5.189  -5.326  22.421  0.00  0.00    -0.293 N 
ATOM      6  H   UNL     1       4.378  -5.568  21.873  0.00  0.00    +0.172 HD
ATOM      7  C   UNL     1       5.968  -4.308  21.915  0.00  0.00    +0.280 A 
ATOM      8  O   UNL     1       5.702  -3.775  20.844  0.00  0.00    -0.265 OA
ATOM      9  C   UNL     1       7.117  -3.918  22.751  0.00  0.00    +0.172 A 
ATOM     10  C   UNL     1       7.286  -4.623  23.937  0.00  0.00    +0.187 A 
ATOM     11  N   UNL     1       8.306  -4.332  24.777  0.00  0.00    -0.232 NA
ATOM     12  C   UNL     1       9.120  -3.318  24.390  0.00  0.00    +0.138 A 
ATOM     13  CA  UNL     1       8.943  -2.610  23.203  0.00  0.00    +0.086 A 
ATOM     14  N   UNL     1       7.927  -2.901  22.344  0.00  0.00    -0.239 NA
ATOM     15  N   UNL     1       6.434  -5.650  24.364  0.00  0.00    -0.195 NA
ENDROOT
BRANCH  13  16
ATOM     16  C   UNL     1       9.871  -1.479  22.840  0.00  0.00    +0.212 C 
BRANCH  16  17
ATOM     17  O   UNL     1      10.221  -1.509  21.457  0.00  0.00    -0.389 OA
ATOM     18  H   UNL     1      11.199  -1.584  21.429  0.00  0.00    +0.210 HD
ENDBRANCH  16  17
ENDBRANCH  13  16
TORSDOF 2
ENDMDL
MODEL 7
REMARK VINA RESULT:      -5.3      2.178      2.533
REMARK  Name = 
REMARK  2 active torsions:
REMARK  status: ('A' for Active; 'I' for Inactive)
REMARK    1  A    between atoms: CA_7  and  C_8
REMARK    2  A    between atoms: C_8  and  O_9
REMARK                            x       y       z     vdW  Elec       q    Type
REMARK                         _______ _______ _______ _____ _____    ______ ____
ROOT
ATOM      1  N   UNL     1       8.063  -5.698  26.583  0.00  0.00    -0.329 N 
ATOM      2  H   UNL     1       7.955  -6.682  26.385  0.00  0.00    +0.145 HD
ATOM      3  H   UNL     1       8.688  -5.504  27.361  0.00  0.00    +0.145 HD
ATOM      4  C   UNL     1       8.223  -4.841  25.548  0.00  0.00    +0.195 A 
ATOM      5  N   UNL     1       7.646  -5.197  24.365  0.00  0.00    -0.293 N 
ATOM      6  H   UNL     1       7.103  -6.044  24.297  0.00  0.00    +0.172 HD
ATOM      7  C   UNL     1       7.695  -4.427  23.223  0.00  0.00    +0.280 A 
ATOM      8  O   UNL     1       7.149  -4.789  22.187  0.00  0.00    -0.265 OA
ATOM      9  C   UNL     1       8.436  -3.160  23.348  0.00  0.00    +0.172 A 
ATOM     10  C   UNL     1       9.003  -2.895  24.589  0.00  0.00    +0.187 A 
ATOM     11  N   UNL     1       9.695  -1.753  24.805  0.00  0.00    -0.232 NA
ATOM     12  C   UNL     1       9.779  -0.903  23.751  0.00  0.00    +0.138 A 
ATOM     13  CA  UNL     1       9.203  -1.170  22.510  0.00  0.00    +0.086 A 
ATOM     14  N   UNL     1       8.514  -2.321  22.278  0.00  0.00    -0.239 NA
ATOM     15  N   UNL     1       8.897  -3.748  25.695  0.00  0.00    -0.195 NA
ENDROOT
BRANCH  13  16
ATOM     16  C   UNL     1       9.314  -0.173  21.384  0.00  0.00    +0.212 C 
BRANCH  16  17
ATOM     17  O   UNL     1       9.975   1.020  21.803  0.00  0.00    -0.389 OA
ATOM     18  H   UNL     1      10.812   0.729  22.225  0.00  0.00    +0.210 HD
ENDBRANCH  16  17
ENDBRANCH  13  16
TORSDOF 2
ENDMDL
MODEL 8
REMARK VINA RESULT:      -5.2      4.380      5.563
REMARK  Name = 
REMARK  2 active torsions:
REMARK  status: ('A' for Active; 'I' for Inactive)
REMARK    1  A    between atoms: CA_7  and  C_8
REMARK    2  A    between atoms: C_8  and  O_9
REMARK                            x       y       z     vdW  Elec       q    Type
REMARK                         _______ _______ _______ _____ _____    ______ ____
ROOT
ATOM      1  N   UNL     1       5.345  -7.556  28.766  0.00  0.00    -0.329 N 
ATOM      2  H   UNL     1       5.555  -7.203  29.689  0.00  0.00    +0.145 HD
ATOM      3  H   UNL     1       4.411  -7.947  28.681  0.00  0.00    +0.145 HD
ATOM      4  C   UNL     1       5.712  -6.820  27.691  0.00  0.00    +0.195 A 
ATOM      5  N   UNL     1       6.811  -6.027  27.839  0.00  0.00    -0.293 N 
ATOM      6  H   UNL     1       7.329  -6.030  28.704  0.00  0.00    +0.172 HD
ATOM      7  C   UNL     1       7.329  -5.235  26.838  0.00  0.00    +0.280 A 
ATOM      8  O   UNL     1       8.327  -4.548  27.020  0.00  0.00    -0.265 OA
ATOM      9  C   UNL     1       6.603  -5.285  25.556  0.00  0.00    +0.172 A 
ATOM     10  C   UNL     1       5.485  -6.109  25.510  0.00  0.00    +0.187 A 
ATOM     11  N   UNL     1       4.758  -6.228  24.375  0.00  0.00    -0.232 NA
ATOM     12  C   UNL     1       5.200  -5.512  23.311  0.00  0.00    +0.138 A 
ATOM     13  CA  UNL     1       6.326  -4.692  23.360  0.00  0.00    +0.086 A 
ATOM     14  N   UNL     1       7.059  -4.555  24.499  0.00  0.00    -0.239 NA
ATOM     15  N   UNL     1       5.036  -6.879  26.591  0.00  0.00    -0.195 NA
ENDROOT
BRANCH  13  16
ATOM     16  C   UNL     1       6.778  -3.937  22.135  0.00  0.00    +0.212 C 
BRANCH  16  17
ATOM     17  O   UNL     1       5.767  -3.918  21.129  0.00  0.00    -0.389 OA
ATOM     18  H   UNL     1       5.018  -3.411  21.510  0.00  0.00    +0.210 HD
ENDBRANCH  16  17
ENDBRANCH  13  16
TORSDOF 2
ENDMDL
MODEL 9
REMARK VINA RESULT:      -5.2      4.017      5.411
REMARK  Name = 
REMARK  2 active torsions:
REMARK  status: ('A' for Active; 'I' for Inactive)
REMARK    1  A    between atoms: CA_7  and  C_8
REMARK    2  A    between atoms: C_8  and  O_9
REMARK                            x       y       z     vdW  Elec       q    Type
REMARK                         _______ _______ _______ _____ _____    ______ ____
ROOT
ATOM      1  N   UNL     1       4.880  -7.503  28.947  0.00  0.00    -0.329 N 
ATOM      2  H   UNL     1       4.380  -8.363  28.769  0.00  0.00    +0.145 HD
ATOM      3  H   UNL     1       5.481  -7.542  29.765  0.00  0.00    +0.145 HD
ATOM      4  C   UNL     1       5.446  -6.854  27.904  0.00  0.00    +0.195 A 
ATOM      5  N   UNL     1       4.844  -7.005  26.690  0.00  0.00    -0.293 N 
ATOM      6  H   UNL     1       4.002  -7.552  26.603  0.00  0.00    +0.172 HD
ATOM      7  C   UNL     1       5.280  -6.395  25.533  0.00  0.00    +0.280 A 
ATOM      8  O   UNL     1       4.696  -6.556  24.469  0.00  0.00    -0.265 OA
ATOM      9  C   UNL     1       6.476  -5.547  25.681  0.00  0.00    +0.172 A 
ATOM     10  C   UNL     1       7.027  -5.470  26.955  0.00  0.00    +0.187 A 
ATOM     11  N   UNL     1       8.121  -4.710  27.192  0.00  0.00    -0.232 NA
ATOM     12  C   UNL     1       8.616  -4.036  26.124  0.00  0.00    +0.138 A 
ATOM     13  CA  UNL     1       8.057  -4.111  24.850  0.00  0.00    +0.086 A 
ATOM     14  N   UNL     1       6.963  -4.881  24.596  0.00  0.00    -0.239 NA
ATOM     15  N   UNL     1       6.506  -6.135  28.073  0.00  0.00    -0.195 NA
ENDROOT
BRANCH  13  16
ATOM     16  C   UNL     1       8.643  -3.320  23.708  0.00  0.00    +0.212 C 
BRANCH  16  17
ATOM     17  O   UNL     1      10.042  -3.102  23.885  0.00  0.00    -0.389 OA
ATOM     18  H   UNL     1      10.386  -2.842  23.004  0.00  0.00    +0.210 HD
ENDBRANCH  16  17
ENDBRANCH  13  16
TORSDOF 2
ENDMDL
