MODEL 1
REMARK VINA RESULT:      -6.1      0.000      0.000
REMARK  Name = 
REMARK  7 active torsions:
REMARK  status: ('A' for Active; 'I' for Inactive)
REMARK    1  A    between atoms: C_2  and  C_3
REMARK    2  A    between atoms: C_2  and  O_4
REMARK    3  A    between atoms: C_2  and  C_5
REMARK    4  A    between atoms: C_5  and  C_7
REMARK    5  A    between atoms: C_5  and  C_9
REMARK    6  A    between atoms: N_11  and  C_12
REMARK    7  A    between atoms: C_15  and  C_18
REMARK                            x       y       z     vdW  Elec       q    Type
REMARK                         _______ _______ _______ _____ _____    ______ ____
ROOT
ATOM      1  C   UNL     1       7.248  -4.369  23.224  0.00  0.00    +0.237 C 
ATOM      2  N   UNL     1       7.142  -3.404  22.232  0.00  0.00    -0.284 N 
ATOM      3  H   UNL     1       7.081  -3.775  21.286  0.00  0.00    +0.155 HD
ATOM      4  O   UNL     1       7.873  -4.198  24.269  0.00  0.00    -0.274 OA
ENDROOT
BRANCH   2   5
ATOM      5  C   UNL     1       7.753  -2.139  22.386  0.00  0.00    +0.033 A 
ATOM      6  C   UNL     1       9.048  -1.875  21.929  0.00  0.00    +0.024 A 
ATOM      7  C   UNL     1       9.556  -0.574  21.953  0.00  0.00    +0.014 A 
ATOM      8  C   UNL     1       8.765   0.482  22.427  0.00  0.00    +0.055 A 
ATOM      9  C   UNL     1       7.499   0.193  22.959  0.00  0.00    +0.014 A 
ATOM     10  C   UNL     1       7.003  -1.115  22.962  0.00  0.00    +0.024 A 
BRANCH   8  11
ATOM     11  C   UNL     1       9.265   1.902  22.329  0.00  0.00    +0.417 C 
ATOM     12  F   UNL     1       8.394   2.722  21.677  0.00  0.00    -0.166 F 
ATOM     13  F   UNL     1      10.445   1.997  21.657  0.00  0.00    -0.166 F 
ATOM     14  F   UNL     1       9.480   2.485  23.543  0.00  0.00    -0.166 F 
ENDBRANCH   8  11
ENDBRANCH   2   5
BRANCH   1  15
ATOM     15  C   UNL     1       6.554  -5.698  22.905  0.00  0.00    +0.205 C 
BRANCH  15  16
ATOM     16  C   UNL     1       5.302  -5.878  23.755  0.00  0.00    +0.137 C 
ATOM     17  C   UNL     1       4.159  -4.951  23.334  0.00  0.00    +0.039 C 
BRANCH  16  18
ATOM     18  O   UNL     1       4.863  -7.243  23.620  0.00  0.00    -0.390 OA
ATOM     19  H   UNL     1       5.411  -7.809  24.192  0.00  0.00    +0.210 HD
ENDBRANCH  16  18
ENDBRANCH  15  16
BRANCH  15  20
ATOM     20  C   UNL     1       6.259  -5.628  21.415  0.00  0.00    +0.078 C 
ATOM     21  N   UNL     1       6.015  -5.569  20.179  0.00  0.00    -0.196 NA
ENDBRANCH  15  20
ENDBRANCH   1  15
TORSDOF 6
ENDMDL
MODEL 2
REMARK VINA RESULT:      -6.0      1.984      2.367
REMARK  Name = 
REMARK  7 active torsions:
REMARK  status: ('A' for Active; 'I' for Inactive)
REMARK    1  A    between atoms: C_2  and  C_3
REMARK    2  A    between atoms: C_2  and  O_4
REMARK    3  A    between atoms: C_2  and  C_5
REMARK    4  A    between atoms: C_5  and  C_7
REMARK    5  A    between atoms: C_5  and  C_9
REMARK    6  A    between atoms: N_11  and  C_12
REMARK    7  A    between atoms: C_15  and  C_18
REMARK                            x       y       z     vdW  Elec       q    Type
REMARK                         _______ _______ _______ _____ _____    ______ ____
ROOT
ATOM      1  C   UNL     1       8.741  -3.963  24.346  0.00  0.00    +0.237 C 
ATOM      2  N   UNL     1       8.072  -2.815  23.941  0.00  0.00    -0.284 N 
ATOM      3  H   UNL     1       7.237  -2.988  23.384  0.00  0.00    +0.155 HD
ATOM      4  O   UNL     1       9.961  -4.016  24.494  0.00  0.00    -0.274 OA
ENDROOT
BRANCH   2   5
ATOM      5  C   UNL     1       8.778  -1.619  23.685  0.00  0.00    +0.033 A 
ATOM      6  C   UNL     1       9.190  -1.256  22.400  0.00  0.00    +0.024 A 
ATOM      7  C   UNL     1       9.741   0.006  22.161  0.00  0.00    +0.014 A 
ATOM      8  C   UNL     1       9.875   0.924  23.212  0.00  0.00    +0.055 A 
ATOM      9  C   UNL     1       9.535   0.520  24.512  0.00  0.00    +0.014 A 
ATOM     10  C   UNL     1       9.012  -0.755  24.754  0.00  0.00    +0.024 A 
BRANCH   8  11
ATOM     11  C   UNL     1      10.346   2.330  22.930  0.00  0.00    +0.417 C 
ATOM     12  F   UNL     1      10.813   2.481  21.659  0.00  0.00    -0.166 F 
ATOM     13  F   UNL     1      11.362   2.717  23.750  0.00  0.00    -0.166 F 
ATOM     14  F   UNL     1       9.369   3.268  23.078  0.00  0.00    -0.166 F 
ENDBRANCH   8  11
ENDBRANCH   2   5
BRANCH   1  15
ATOM     15  C   UNL     1       7.845  -5.187  24.563  0.00  0.00    +0.205 C 
BRANCH  15  16
ATOM     16  C   UNL     1       7.277  -5.206  25.977  0.00  0.00    +0.137 C 
ATOM     17  C   UNL     1       5.922  -5.913  26.065  0.00  0.00    +0.039 C 
BRANCH  16  18
ATOM     18  O   UNL     1       8.215  -5.895  26.825  0.00  0.00    -0.390 OA
ATOM     19  H   UNL     1       8.983  -5.317  26.981  0.00  0.00    +0.210 HD
ENDBRANCH  16  18
ENDBRANCH  15  16
BRANCH  15  20
ATOM     20  C   UNL     1       6.773  -5.072  23.491  0.00  0.00    +0.078 C 
ATOM     21  N   UNL     1       5.885  -4.976  22.602  0.00  0.00    -0.196 NA
ENDBRANCH  15  20
ENDBRANCH   1  15
TORSDOF 6
ENDMDL
MODEL 3
REMARK VINA RESULT:      -5.9      2.257      2.772
REMARK  Name = 
REMARK  7 active torsions:
REMARK  status: ('A' for Active; 'I' for Inactive)
REMARK    1  A    between atoms: C_2  and  C_3
REMARK    2  A    between atoms: C_2  and  O_4
REMARK    3  A    between atoms: C_2  and  C_5
REMARK    4  A    between atoms: C_5  and  C_7
REMARK    5  A    between atoms: C_5  and  C_9
REMARK    6  A    between atoms: N_11  and  C_12
REMARK    7  A    between atoms: C_15  and  C_18
REMARK                            x       y       z     vdW  Elec       q    Type
REMARK                         _______ _______ _______ _____ _____    ______ ____
ROOT
ATOM      1  C   UNL     1       7.446  -2.774  23.285  0.00  0.00    +0.237 C 
ATOM      2  N   UNL     1       8.803  -2.488  23.356  0.00  0.00    -0.284 N 
ATOM      3  H   UNL     1       9.349  -3.163  23.887  0.00  0.00    +0.155 HD
ATOM      4  O   UNL     1       6.574  -1.908  23.229  0.00  0.00    -0.274 OA
ENDROOT
BRANCH   2   5
ATOM      5  C   UNL     1       9.260  -1.151  23.353  0.00  0.00    +0.033 A 
ATOM      6  C   UNL     1       9.487  -0.443  22.170  0.00  0.00    +0.024 A 
ATOM      7  C   UNL     1       9.782   0.923  22.206  0.00  0.00    +0.014 A 
ATOM      8  C   UNL     1       9.842   1.597  23.434  0.00  0.00    +0.055 A 
ATOM      9  C   UNL     1       9.694   0.859  24.619  0.00  0.00    +0.014 A 
ATOM     10  C   UNL     1       9.428  -0.514  24.582  0.00  0.00    +0.024 A 
BRANCH   8  11
ATOM     11  C   UNL     1      10.029   3.094  23.465  0.00  0.00    +0.417 C 
ATOM     12  F   UNL     1       9.780   3.629  24.693  0.00  0.00    -0.166 F 
ATOM     13  F   UNL     1       9.203   3.743  22.598  0.00  0.00    -0.166 F 
ATOM     14  F   UNL     1      11.293   3.488  23.141  0.00  0.00    -0.166 F 
ENDBRANCH   8  11
ENDBRANCH   2   5
BRANCH   1  15
ATOM     15  C   UNL     1       7.101  -4.267  23.322  0.00  0.00    +0.205 C 
BRANCH  15  16
ATOM     16  C   UNL     1       6.865  -4.808  21.917  0.00  0.00    +0.137 C 
ATOM     17  C   UNL     1       6.650  -6.324  21.891  0.00  0.00    +0.039 C 
BRANCH  16  18
ATOM     18  O   UNL     1       5.694  -4.165  21.381  0.00  0.00    -0.390 OA
ATOM     19  H   UNL     1       5.698  -3.228  21.648  0.00  0.00    +0.210 HD
ENDBRANCH  16  18
ENDBRANCH  15  16
BRANCH  15  20
ATOM     20  C   UNL     1       8.285  -4.916  24.020  0.00  0.00    +0.078 C 
ATOM     21  N   UNL     1       9.266  -5.455  24.600  0.00  0.00    -0.196 NA
ENDBRANCH  15  20
ENDBRANCH   1  15
TORSDOF 6
ENDMDL
MODEL 4
REMARK VINA RESULT:      -5.8      4.642      7.251
REMARK  Name = 
REMARK  7 active torsions:
REMARK  status: ('A' for Active; 'I' for Inactive)
REMARK    1  A    between atoms: C_2  and  C_3
REMARK    2  A    between atoms: C_2  and  O_4
REMARK    3  A    between atoms: C_2  and  C_5
REMARK    4  A    between atoms: C_5  and  C_7
REMARK    5  A    between atoms: C_5  and  C_9
REMARK    6  A    between atoms: N_11  and  C_12
REMARK    7  A    between atoms: C_15  and  C_18
REMARK                            x       y       z     vdW  Elec       q    Type
REMARK                         _______ _______ _______ _____ _____    ______ ____
ROOT
ATOM      1  C   UNL     1       8.717  -0.145  22.995  0.00  0.00    +0.237 C 
ATOM      2  N   UNL     1       7.958  -0.922  23.860  0.00  0.00    -0.284 N 
ATOM      3  H   UNL     1       8.240  -0.863  24.837  0.00  0.00    +0.155 HD
ATOM      4  O   UNL     1       8.950  -0.462  21.830  0.00  0.00    -0.274 OA
ENDROOT
BRANCH   2   5
ATOM      5  C   UNL     1       7.391  -2.141  23.427  0.00  0.00    +0.033 A 
ATOM      6  C   UNL     1       6.165  -2.198  22.759  0.00  0.00    +0.024 A 
ATOM      7  C   UNL     1       5.714  -3.399  22.204  0.00  0.00    +0.014 A 
ATOM      8  C   UNL     1       6.498  -4.557  22.306  0.00  0.00    +0.055 A 
ATOM      9  C   UNL     1       7.687  -4.508  23.049  0.00  0.00    +0.014 A 
ATOM     10  C   UNL     1       8.121  -3.311  23.630  0.00  0.00    +0.024 A 
BRANCH   8  11
ATOM     11  C   UNL     1       6.073  -5.819  21.595  0.00  0.00    +0.417 C 
ATOM     12  F   UNL     1       4.791  -6.177  21.881  0.00  0.00    -0.166 F 
ATOM     13  F   UNL     1       6.845  -6.891  21.925  0.00  0.00    -0.166 F 
ATOM     14  F   UNL     1       6.134  -5.721  20.236  0.00  0.00    -0.166 F 
ENDBRANCH   8  11
ENDBRANCH   2   5
BRANCH   1  15
ATOM     15  C   UNL     1       9.286   1.138  23.613  0.00  0.00    +0.205 C 
BRANCH  15  16
ATOM     16  C   UNL     1       9.159   2.312  22.650  0.00  0.00    +0.137 C 
ATOM     17  C   UNL     1       9.258   3.669  23.351  0.00  0.00    +0.039 C 
BRANCH  16  18
ATOM     18  O   UNL     1      10.220   2.212  21.682  0.00  0.00    -0.390 OA
ATOM     19  H   UNL     1       9.861   2.413  20.799  0.00  0.00    +0.210 HD
ENDBRANCH  16  18
ENDBRANCH  15  16
BRANCH  15  20
ATOM     20  C   UNL     1       8.492   1.329  24.895  0.00  0.00    +0.078 C 
ATOM     21  N   UNL     1       7.833   1.487  25.959  0.00  0.00    -0.196 NA
ENDBRANCH  15  20
ENDBRANCH   1  15
TORSDOF 6
ENDMDL
MODEL 5
REMARK VINA RESULT:      -5.8      5.607      8.662
REMARK  Name = 
REMARK  7 active torsions:
REMARK  status: ('A' for Active; 'I' for Inactive)
REMARK    1  A    between atoms: C_2  and  C_3
REMARK    2  A    between atoms: C_2  and  O_4
REMARK    3  A    between atoms: C_2  and  C_5
REMARK    4  A    between atoms: C_5  and  C_7
REMARK    5  A    between atoms: C_5  and  C_9
REMARK    6  A    between atoms: N_11  and  C_12
REMARK    7  A    between atoms: C_15  and  C_18
REMARK                            x       y       z     vdW  Elec       q    Type
REMARK                         _______ _______ _______ _____ _____    ______ ____
ROOT
ATOM      1  C   UNL     1       9.632   4.425  23.774  0.00  0.00    +0.237 C 
ATOM      2  N   UNL     1      10.674   3.581  23.412  0.00  0.00    -0.284 N 
ATOM      3  H   UNL     1      11.347   3.992  22.769  0.00  0.00    +0.155 HD
ATOM      4  O   UNL     1       8.496   4.027  24.026  0.00  0.00    -0.274 OA
ENDROOT
BRANCH   2   5
ATOM      5  C   UNL     1      10.475   2.184  23.327  0.00  0.00    +0.033 A 
ATOM      6  C   UNL     1      10.534   1.352  24.448  0.00  0.00    +0.024 A 
ATOM      7  C   UNL     1      10.173   0.006  24.352  0.00  0.00    +0.014 A 
ATOM      8  C   UNL     1       9.739  -0.520  23.127  0.00  0.00    +0.055 A 
ATOM      9  C   UNL     1       9.763   0.303  21.991  0.00  0.00    +0.014 A 
ATOM     10  C   UNL     1      10.153   1.644  22.083  0.00  0.00    +0.024 A 
BRANCH   8  11
ATOM     11  C   UNL     1       9.226  -1.937  23.054  0.00  0.00    +0.417 C 
ATOM     12  F   UNL     1      10.159  -2.853  23.435  0.00  0.00    -0.166 F 
ATOM     13  F   UNL     1       8.844  -2.292  21.796  0.00  0.00    -0.166 F 
ATOM     14  F   UNL     1       8.142  -2.162  23.849  0.00  0.00    -0.166 F 
ENDBRANCH   8  11
ENDBRANCH   2   5
BRANCH   1  15
ATOM     15  C   UNL     1       9.992   5.915  23.801  0.00  0.00    +0.205 C 
BRANCH  15  16
ATOM     16  C   UNL     1       9.257   6.635  24.924  0.00  0.00    +0.137 C 
ATOM     17  C   UNL     1       7.860   7.108  24.513  0.00  0.00    +0.039 C 
BRANCH  16  18
ATOM     18  O   UNL     1       9.129   5.723  26.031  0.00  0.00    -0.390 OA
ATOM     19  H   UNL     1       9.933   5.176  26.084  0.00  0.00    +0.210 HD
ENDBRANCH  16  18
ENDBRANCH  15  16
BRANCH  15  20
ATOM     20  C   UNL     1      11.503   5.940  23.964  0.00  0.00    +0.078 C 
ATOM     21  N   UNL     1      12.757   5.962  24.099  0.00  0.00    -0.196 NA
ENDBRANCH  15  20
ENDBRANCH   1  15
TORSDOF 6
ENDMDL
MODEL 6
REMARK VINA RESULT:      -5.7      2.940      3.428
REMARK  Name = 
REMARK  7 active torsions:
REMARK  status: ('A' for Active; 'I' for Inactive)
REMARK    1  A    between atoms: C_2  and  C_3
REMARK    2  A    between atoms: C_2  and  O_4
REMARK    3  A    between atoms: C_2  and  C_5
REMARK    4  A    between atoms: C_5  and  C_7
REMARK    5  A    between atoms: C_5  and  C_9
REMARK    6  A    between atoms: N_11  and  C_12
REMARK    7  A    between atoms: C_15  and  C_18
REMARK                            x       y       z     vdW  Elec       q    Type
REMARK                         _______ _______ _______ _____ _____    ______ ____
ROOT
ATOM      1  C   UNL     1       6.309  -3.785  25.460  0.00  0.00    +0.237 C 
ATOM      2  N   UNL     1       7.639  -3.765  25.859  0.00  0.00    -0.284 N 
ATOM      3  H   UNL     1       7.817  -4.207  26.759  0.00  0.00    +0.155 HD
ATOM      4  O   UNL     1       5.792  -2.895  24.787  0.00  0.00    -0.274 OA
ENDROOT
BRANCH   2   5
ATOM      5  C   UNL     1       8.489  -2.698  25.489  0.00  0.00    +0.033 A 
ATOM      6  C   UNL     1       9.237  -2.715  24.309  0.00  0.00    +0.024 A 
ATOM      7  C   UNL     1       9.937  -1.578  23.897  0.00  0.00    +0.014 A 
ATOM      8  C   UNL     1       9.885  -0.404  24.662  0.00  0.00    +0.055 A 
ATOM      9  C   UNL     1       9.198  -0.424  25.886  0.00  0.00    +0.014 A 
ATOM     10  C   UNL     1       8.523  -1.573  26.312  0.00  0.00    +0.024 A 
BRANCH   8  11
ATOM     11  C   UNL     1      10.532   0.860  24.150  0.00  0.00    +0.417 C 
ATOM     12  F   UNL     1       9.945   1.986  24.643  0.00  0.00    -0.166 F 
ATOM     13  F   UNL     1      10.471   0.967  22.794  0.00  0.00    -0.166 F 
ATOM     14  F   UNL     1      11.852   0.961  24.474  0.00  0.00    -0.166 F 
ENDBRANCH   8  11
ENDBRANCH   2   5
BRANCH   1  15
ATOM     15  C   UNL     1       5.508  -4.993  25.957  0.00  0.00    +0.205 C 
BRANCH  15  16
ATOM     16  C   UNL     1       5.276  -5.995  24.833  0.00  0.00    +0.137 C 
ATOM     17  C   UNL     1       3.836  -5.986  24.315  0.00  0.00    +0.039 C 
BRANCH  16  18
ATOM     18  O   UNL     1       6.160  -5.660  23.747  0.00  0.00    -0.390 OA
ATOM     19  H   UNL     1       5.730  -4.993  23.184  0.00  0.00    +0.210 HD
ENDBRANCH  16  18
ENDBRANCH  15  16
BRANCH  15  20
ATOM     20  C   UNL     1       6.336  -5.558  27.100  0.00  0.00    +0.078 C 
ATOM     21  N   UNL     1       7.023  -6.028  28.047  0.00  0.00    -0.196 NA
ENDBRANCH  15  20
ENDBRANCH   1  15
TORSDOF 6
ENDMDL
MODEL 7
REMARK VINA RESULT:      -5.5      2.662      3.296
REMARK  Name = 
REMARK  7 active torsions:
REMARK  status: ('A' for Active; 'I' for Inactive)
REMARK    1  A    between atoms: C_2  and  C_3
REMARK    2  A    between atoms: C_2  and  O_4
REMARK    3  A    between atoms: C_2  and  C_5
REMARK    4  A    between atoms: C_5  and  C_7
REMARK    5  A    between atoms: C_5  and  C_9
REMARK    6  A    between atoms: N_11  and  C_12
REMARK    7  A    between atoms: C_15  and  C_18
REMARK                            x       y       z     vdW  Elec       q    Type
REMARK                         _______ _______ _______ _____ _____    ______ ____
ROOT
ATOM      1  C   UNL     1       9.155  -3.028  24.110  0.00  0.00    +0.237 C 
ATOM      2  N   UNL     1       8.295  -1.985  24.425  0.00  0.00    -0.284 N 
ATOM      3  H   UNL     1       7.306  -2.225  24.383  0.00  0.00    +0.155 HD
ATOM      4  O   UNL     1      10.242  -2.864  23.559  0.00  0.00    -0.274 OA
ENDROOT
BRANCH   2   5
ATOM      5  C   UNL     1       8.643  -0.647  24.132  0.00  0.00    +0.033 A 
ATOM      6  C   UNL     1       7.974   0.102  23.161  0.00  0.00    +0.024 A 
ATOM      7  C   UNL     1       8.237   1.467  23.012  0.00  0.00    +0.014 A 
ATOM      8  C   UNL     1       9.170   2.097  23.846  0.00  0.00    +0.055 A 
ATOM      9  C   UNL     1       9.896   1.319  24.761  0.00  0.00    +0.014 A 
ATOM     10  C   UNL     1       9.652  -0.053  24.888  0.00  0.00    +0.024 A 
BRANCH   8  11
ATOM     11  C   UNL     1       9.357   3.593  23.774  0.00  0.00    +0.417 C 
ATOM     12  F   UNL     1       8.526   4.182  22.869  0.00  0.00    -0.166 F 
ATOM     13  F   UNL     1      10.621   3.946  23.408  0.00  0.00    -0.166 F 
ATOM     14  F   UNL     1       9.121   4.227  24.957  0.00  0.00    -0.166 F 
ENDBRANCH   8  11
ENDBRANCH   2   5
BRANCH   1  15
ATOM     15  C   UNL     1       8.630  -4.424  24.466  0.00  0.00    +0.205 C 
BRANCH  15  16
ATOM     16  C   UNL     1       9.115  -4.854  25.846  0.00  0.00    +0.137 C 
ATOM     17  C   UNL     1       7.968  -5.228  26.789  0.00  0.00    +0.039 C 
BRANCH  16  18
ATOM     18  O   UNL     1       9.971  -5.999  25.682  0.00  0.00    -0.390 OA
ATOM     19  H   UNL     1      10.136  -6.136  24.732  0.00  0.00    +0.210 HD
ENDBRANCH  16  18
ENDBRANCH  15  16
BRANCH  15  20
ATOM     20  C   UNL     1       7.119  -4.299  24.377  0.00  0.00    +0.078 C 
ATOM     21  N   UNL     1       5.864  -4.195  24.302  0.00  0.00    -0.196 NA
ENDBRANCH  15  20
ENDBRANCH   1  15
TORSDOF 6
ENDMDL
MODEL 8
REMARK VINA RESULT:      -5.5      4.839      7.391
REMARK  Name = 
REMARK  7 active torsions:
REMARK  status: ('A' for Active; 'I' for Inactive)
REMARK    1  A    between atoms: C_2  and  C_3
REMARK    2  A    between atoms: C_2  and  O_4
REMARK    3  A    between atoms: C_2  and  C_5
REMARK    4  A    between atoms: C_5  and  C_7
REMARK    5  A    between atoms: C_5  and  C_9
REMARK    6  A    between atoms: N_11  and  C_12
REMARK    7  A    between atoms: C_15  and  C_18
REMARK                            x       y       z     vdW  Elec       q    Type
REMARK                         _______ _______ _______ _____ _____    ______ ____
ROOT
ATOM      1  C   UNL     1       9.841   0.863  23.952  0.00  0.00    +0.237 C 
ATOM      2  N   UNL     1       8.607   0.231  24.028  0.00  0.00    -0.284 N 
ATOM      3  H   UNL     1       7.998   0.583  24.765  0.00  0.00    +0.155 HD
ATOM      4  O   UNL     1      10.870   0.293  23.593  0.00  0.00    -0.274 OA
ENDROOT
BRANCH   2   5
ATOM      5  C   UNL     1       8.468  -1.130  23.676  0.00  0.00    +0.033 A 
ATOM      6  C   UNL     1       8.971  -2.162  24.474  0.00  0.00    +0.024 A 
ATOM      7  C   UNL     1       8.674  -3.495  24.179  0.00  0.00    +0.014 A 
ATOM      8  C   UNL     1       7.859  -3.807  23.081  0.00  0.00    +0.055 A 
ATOM      9  C   UNL     1       7.429  -2.770  22.240  0.00  0.00    +0.014 A 
ATOM     10  C   UNL     1       7.752  -1.437  22.521  0.00  0.00    +0.024 A 
BRANCH   8  11
ATOM     11  C   UNL     1       7.433  -5.235  22.841  0.00  0.00    +0.417 C 
ATOM     12  F   UNL     1       7.227  -5.506  21.522  0.00  0.00    -0.166 F 
ATOM     13  F   UNL     1       6.269  -5.548  23.474  0.00  0.00    -0.166 F 
ATOM     14  F   UNL     1       8.347  -6.152  23.267  0.00  0.00    -0.166 F 
ENDBRANCH   8  11
ENDBRANCH   2   5
BRANCH   1  15
ATOM     15  C   UNL     1       9.840   2.332  24.388  0.00  0.00    +0.205 C 
BRANCH  15  16
ATOM     16  C   UNL     1      10.118   3.253  23.206  0.00  0.00    +0.137 C 
ATOM     17  C   UNL     1      11.505   3.899  23.269  0.00  0.00    +0.039 C 
BRANCH  16  18
ATOM     18  O   UNL     1      10.025   2.473  22.000  0.00  0.00    -0.390 OA
ATOM     19  H   UNL     1       9.642   3.025  21.295  0.00  0.00    +0.210 HD
ENDBRANCH  16  18
ENDBRANCH  15  16
BRANCH  15  20
ATOM     20  C   UNL     1       8.467   2.548  25.002  0.00  0.00    +0.078 C 
ATOM     21  N   UNL     1       7.327   2.727  25.511  0.00  0.00    -0.196 NA
ENDBRANCH  15  20
ENDBRANCH   1  15
TORSDOF 6
ENDMDL
MODEL 9
REMARK VINA RESULT:      -5.5      5.517      8.264
REMARK  Name = 
REMARK  7 active torsions:
REMARK  status: ('A' for Active; 'I' for Inactive)
REMARK    1  A    between atoms: C_2  and  C_3
REMARK    2  A    between atoms: C_2  and  O_4
REMARK    3  A    between atoms: C_2  and  C_5
REMARK    4  A    between atoms: C_5  and  C_7
REMARK    5  A    between atoms: C_5  and  C_9
REMARK    6  A    between atoms: N_11  and  C_12
REMARK    7  A    between atoms: C_15  and  C_18
REMARK                            x       y       z     vdW  Elec       q    Type
REMARK                         _______ _______ _______ _____ _____    ______ ____
ROOT
ATOM      1  C   UNL     1       7.495   4.127  22.346  0.00  0.00    +0.237 C 
ATOM      2  N   UNL     1       8.755   3.815  22.839  0.00  0.00    -0.284 N 
ATOM      3  H   UNL     1       9.483   4.481  22.586  0.00  0.00    +0.155 HD
ATOM      4  O   UNL     1       6.663   3.277  22.030  0.00  0.00    -0.274 OA
ENDROOT
BRANCH   2   5
ATOM      5  C   UNL     1       9.148   2.470  23.018  0.00  0.00    +0.033 A 
ATOM      6  C   UNL     1       8.963   1.794  24.227  0.00  0.00    +0.024 A 
ATOM      7  C   UNL     1       9.214   0.422  24.318  0.00  0.00    +0.014 A 
ATOM      8  C   UNL     1       9.645  -0.290  23.190  0.00  0.00    +0.055 A 
ATOM      9  C   UNL     1       9.906   0.414  22.004  0.00  0.00    +0.014 A 
ATOM     10  C   UNL     1       9.683   1.793  21.923  0.00  0.00    +0.024 A 
BRANCH   8  11
ATOM     11  C   UNL     1       9.789  -1.791  23.254  0.00  0.00    +0.417 C 
ATOM     12  F   UNL     1      10.981  -2.225  22.760  0.00  0.00    -0.166 F 
ATOM     13  F   UNL     1       8.828  -2.440  22.541  0.00  0.00    -0.166 F 
ATOM     14  F   UNL     1       9.712  -2.288  24.522  0.00  0.00    -0.166 F 
ENDBRANCH   8  11
ENDBRANCH   2   5
BRANCH   1  15
ATOM     15  C   UNL     1       7.220   5.626  22.183  0.00  0.00    +0.205 C 
BRANCH  15  16
ATOM     16  C   UNL     1       5.813   5.978  22.650  0.00  0.00    +0.137 C 
ATOM     17  C   UNL     1       5.795   6.669  24.016  0.00  0.00    +0.039 C 
BRANCH  16  18
ATOM     18  O   UNL     1       5.228   6.863  21.676  0.00  0.00    -0.390 OA
ATOM     19  H   UNL     1       5.213   6.415  20.811  0.00  0.00    +0.210 HD
ENDBRANCH  16  18
ENDBRANCH  15  16
BRANCH  15  20
ATOM     20  C   UNL     1       8.307   6.305  23.001  0.00  0.00    +0.078 C 
ATOM     21  N   UNL     1       9.209   6.867  23.680  0.00  0.00    -0.196 NA
ENDBRANCH  15  20
ENDBRANCH   1  15
TORSDOF 6
ENDMDL
