MODEL 1
REMARK VINA RESULT:      -6.3      0.000      0.000
REMARK  Name = 
REMARK  8 active torsions:
REMARK  status: ('A' for Active; 'I' for Inactive)
REMARK    1  A    between atoms: N_6  and  C_9
REMARK    2  A    between atoms: C_12  and  C_14
REMARK    3  A    between atoms: C_14  and  O_15
REMARK    4  A    between atoms: O_15  and  P_16
REMARK    5  A    between atoms: P_16  and  O_17
REMARK    6  A    between atoms: P_16  and  O_18
REMARK    7  A    between atoms: C_20  and  O_22
REMARK    8  A    between atoms: C_23  and  O_25
REMARK                            x       y       z     vdW  Elec       q    Type
REMARK                         _______ _______ _______ _____ _____    ______ ____
ROOT
ATOM      1  C   UNL     1       9.226  -1.921  23.222  0.00  0.00    +0.255 C 
ATOM      2  C   UNL     1       9.280  -2.716  24.543  0.00  0.00    +0.195 C 
ATOM      3  C   UNL     1       7.830  -2.753  25.036  0.00  0.00    +0.178 C 
ATOM      4  C   UNL     1       7.017  -2.076  23.927  0.00  0.00    +0.178 C 
ATOM      5  O   UNL     1       7.857  -2.024  22.769  0.00  0.00    -0.346 OA
ENDROOT
BRANCH   1  12
ATOM      6  N   UNL     1      10.778   3.385  23.028  0.00  0.00    -0.343 N 
ATOM      7  H   UNL     1      10.602   3.979  23.828  0.00  0.00    +0.144 HD
ATOM      8  H   UNL     1      10.534   3.814  22.139  0.00  0.00    +0.144 HD
ATOM      9  C   UNL     1      10.390   2.076  23.107  0.00  0.00    +0.123 A 
ATOM     10  C   UNL     1      10.362   1.409  24.419  0.00  0.00    +0.061 A 
ATOM     11  C   UNL     1       9.958   0.142  24.419  0.00  0.00    +0.096 A 
ATOM     12  N   UNL     1       9.619  -0.511  23.254  0.00  0.00    -0.270 N 
ATOM     13  C   UNL     1       9.660   0.164  22.021  0.00  0.00    +0.352 A 
ATOM     14  O   UNL     1       9.359  -0.400  20.974  0.00  0.00    -0.244 OA
ATOM     15  N   UNL     1      10.054   1.485  22.008  0.00  0.00    -0.178 NA
ENDBRANCH   1  12
BRANCH   2  16
ATOM     16  O   UNL     1       9.737  -4.065  24.321  0.00  0.00    -0.385 OA
ATOM     17  H   UNL     1      10.264  -4.081  23.503  0.00  0.00    +0.210 HD
ENDBRANCH   2  16
BRANCH   3  18
ATOM     18  O   UNL     1       7.701  -2.025  26.259  0.00  0.00    -0.386 OA
ATOM     19  H   UNL     1       7.043  -1.323  26.099  0.00  0.00    +0.210 HD
ENDBRANCH   3  18
BRANCH   4  20
ATOM     20  C   UNL     1       5.691  -2.788  23.609  0.00  0.00    +0.206 C 
BRANCH  20  21
ATOM     21  O   UNL     1       5.855  -4.200  23.722  0.00  0.00    -0.284 OA
BRANCH  21  22
ATOM     22  P   UNL     1       5.829  -5.064  22.224  0.00  0.00    +0.472 P 
ATOM     23  O   UNL     1       5.804  -5.838  20.883  0.00  0.00    -0.228 OA
BRANCH  22  24
ATOM     24  O   UNL     1       7.454  -4.952  22.305  0.00  0.00    -0.303 OA
ATOM     25  H   UNL     1       7.712  -4.822  23.232  0.00  0.00    +0.222 HD
ENDBRANCH  22  24
BRANCH  22  26
ATOM     26  O   UNL     1       5.547  -3.628  21.502  0.00  0.00    -0.303 OA
ATOM     27  H   UNL     1       6.258  -3.536  20.833  0.00  0.00    +0.222 HD
ENDBRANCH  22  26
ENDBRANCH  21  22
ENDBRANCH  20  21
ENDBRANCH   4  20
TORSDOF 8
ENDMDL
MODEL 2
REMARK VINA RESULT:      -6.3      2.248      2.654
REMARK  Name = 
REMARK  8 active torsions:
REMARK  status: ('A' for Active; 'I' for Inactive)
REMARK    1  A    between atoms: N_6  and  C_9
REMARK    2  A    between atoms: C_12  and  C_14
REMARK    3  A    between atoms: C_14  and  O_15
REMARK    4  A    between atoms: O_15  and  P_16
REMARK    5  A    between atoms: P_16  and  O_17
REMARK    6  A    between atoms: P_16  and  O_18
REMARK    7  A    between atoms: C_20  and  O_22
REMARK    8  A    between atoms: C_23  and  O_25
REMARK                            x       y       z     vdW  Elec       q    Type
REMARK                         _______ _______ _______ _____ _____    ______ ____
ROOT
ATOM      1  C   UNL     1       9.497  -3.683  24.443  0.00  0.00    +0.255 C 
ATOM      2  C   UNL     1       9.307  -4.562  25.697  0.00  0.00    +0.195 C 
ATOM      3  C   UNL     1       7.854  -5.042  25.621  0.00  0.00    +0.178 C 
ATOM      4  C   UNL     1       7.329  -4.504  24.285  0.00  0.00    +0.178 C 
ATOM      5  O   UNL     1       8.471  -4.110  23.519  0.00  0.00    -0.346 OA
ENDROOT
BRANCH   1  12
ATOM      6  N   UNL     1       9.467   1.834  24.849  0.00  0.00    -0.343 N 
ATOM      7  H   UNL     1       8.713   2.287  25.351  0.00  0.00    +0.144 HD
ATOM      8  H   UNL     1       9.691   2.276  23.961  0.00  0.00    +0.144 HD
ATOM      9  C   UNL     1       9.452   0.468  24.771  0.00  0.00    +0.123 A 
ATOM     10  C   UNL     1       8.832  -0.310  25.856  0.00  0.00    +0.061 A 
ATOM     11  C   UNL     1       8.840  -1.631  25.702  0.00  0.00    +0.096 A 
ATOM     12  N   UNL     1       9.425  -2.230  24.607  0.00  0.00    -0.270 N 
ATOM     13  C   UNL     1      10.007  -1.448  23.594  0.00  0.00    +0.352 A 
ATOM     14  O   UNL     1      10.530  -1.963  22.611  0.00  0.00    -0.244 OA
ATOM     15  N   UNL     1       9.986  -0.076  23.728  0.00  0.00    -0.178 NA
ENDBRANCH   1  12
BRANCH   2  16
ATOM     16  O   UNL     1      10.184  -5.705  25.670  0.00  0.00    -0.385 OA
ATOM     17  H   UNL     1      10.141  -6.106  24.784  0.00  0.00    +0.210 HD
ENDBRANCH   2  16
BRANCH   3  18
ATOM     18  O   UNL     1       7.094  -4.502  26.705  0.00  0.00    -0.386 OA
ATOM     19  H   UNL     1       7.594  -3.736  27.043  0.00  0.00    +0.210 HD
ENDBRANCH   3  18
BRANCH   4  20
ATOM     20  C   UNL     1       6.470  -5.515  23.506  0.00  0.00    +0.206 C 
BRANCH  20  21
ATOM     21  O   UNL     1       5.353  -5.919  24.297  0.00  0.00    -0.284 OA
BRANCH  21  22
ATOM     22  P   UNL     1       3.835  -5.935  23.469  0.00  0.00    +0.472 P 
ATOM     23  O   UNL     1       2.475  -5.948  22.727  0.00  0.00    -0.228 OA
BRANCH  22  24
ATOM     24  O   UNL     1       3.834  -7.528  23.817  0.00  0.00    -0.303 OA
ATOM     25  H   UNL     1       4.056  -8.023  23.011  0.00  0.00    +0.222 HD
ENDBRANCH  22  24
BRANCH  22  26
ATOM     26  O   UNL     1       4.691  -6.015  22.082  0.00  0.00    -0.303 OA
ATOM     27  H   UNL     1       4.019  -6.047  21.369  0.00  0.00    +0.222 HD
ENDBRANCH  22  26
ENDBRANCH  21  22
ENDBRANCH  20  21
ENDBRANCH   4  20
TORSDOF 8
ENDMDL
MODEL 3
REMARK VINA RESULT:      -6.2      3.799      6.623
REMARK  Name = 
REMARK  8 active torsions:
REMARK  status: ('A' for Active; 'I' for Inactive)
REMARK    1  A    between atoms: N_6  and  C_9
REMARK    2  A    between atoms: C_12  and  C_14
REMARK    3  A    between atoms: C_14  and  O_15
REMARK    4  A    between atoms: O_15  and  P_16
REMARK    5  A    between atoms: P_16  and  O_17
REMARK    6  A    between atoms: P_16  and  O_18
REMARK    7  A    between atoms: C_20  and  O_22
REMARK    8  A    between atoms: C_23  and  O_25
REMARK                            x       y       z     vdW  Elec       q    Type
REMARK                         _______ _______ _______ _____ _____    ______ ____
ROOT
ATOM      1  C   UNL     1       9.346  -2.549  23.728  0.00  0.00    +0.255 C 
ATOM      2  C   UNL     1       8.798  -1.869  22.456  0.00  0.00    +0.195 C 
ATOM      3  C   UNL     1       8.405  -0.459  22.907  0.00  0.00    +0.178 C 
ATOM      4  C   UNL     1       8.843  -0.374  24.373  0.00  0.00    +0.178 C 
ATOM      5  O   UNL     1       9.738  -1.466  24.602  0.00  0.00    -0.346 OA
ENDROOT
BRANCH   1  12
ATOM      6  N   UNL     1       6.219  -6.214  26.448  0.00  0.00    -0.343 N 
ATOM      7  H   UNL     1       5.375  -5.896  26.906  0.00  0.00    +0.144 HD
ATOM      8  H   UNL     1       6.785  -6.838  27.018  0.00  0.00    +0.144 HD
ATOM      9  C   UNL     1       6.969  -5.287  25.777  0.00  0.00    +0.123 A 
ATOM     10  C   UNL     1       6.305  -4.117  25.180  0.00  0.00    +0.061 A 
ATOM     11  C   UNL     1       7.100  -3.250  24.559  0.00  0.00    +0.096 A 
ATOM     12  N   UNL     1       8.459  -3.458  24.455  0.00  0.00    -0.270 N 
ATOM     13  C   UNL     1       9.052  -4.591  25.040  0.00  0.00    +0.352 A 
ATOM     14  O   UNL     1      10.260  -4.791  24.961  0.00  0.00    -0.244 OA
ATOM     15  N   UNL     1       8.243  -5.486  25.708  0.00  0.00    -0.178 NA
ENDBRANCH   1  12
BRANCH   2  16
ATOM     16  O   UNL     1       9.814  -1.773  21.438  0.00  0.00    -0.385 OA
ATOM     17  H   UNL     1      10.687  -1.828  21.867  0.00  0.00    +0.210 HD
ENDBRANCH   2  16
BRANCH   3  18
ATOM     18  O   UNL     1       6.990  -0.280  22.801  0.00  0.00    -0.386 OA
ATOM     19  H   UNL     1       6.694   0.111  23.644  0.00  0.00    +0.210 HD
ENDBRANCH   3  18
BRANCH   4  20
ATOM     20  C   UNL     1       9.505   0.964  24.744  0.00  0.00    +0.206 C 
BRANCH  20  21
ATOM     21  O   UNL     1       9.220   1.943  23.746  0.00  0.00    -0.284 OA
BRANCH  21  22
ATOM     22  P   UNL     1      10.521   3.026  23.388  0.00  0.00    +0.472 P 
ATOM     23  O   UNL     1      11.686   3.994  23.067  0.00  0.00    -0.228 OA
BRANCH  22  24
ATOM     24  O   UNL     1       9.347   4.149  23.249  0.00  0.00    -0.303 OA
ATOM     25  H   UNL     1       8.707   3.850  22.583  0.00  0.00    +0.222 HD
ENDBRANCH  22  24
BRANCH  22  26
ATOM     26  O   UNL     1      10.458   2.456  21.860  0.00  0.00    -0.303 OA
ATOM     27  H   UNL     1      10.992   3.086  21.331  0.00  0.00    +0.222 HD
ENDBRANCH  22  26
ENDBRANCH  21  22
ENDBRANCH  20  21
ENDBRANCH   4  20
TORSDOF 8
ENDMDL
MODEL 4
REMARK VINA RESULT:      -6.1      1.782      2.455
REMARK  Name = 
REMARK  8 active torsions:
REMARK  status: ('A' for Active; 'I' for Inactive)
REMARK    1  A    between atoms: N_6  and  C_9
REMARK    2  A    between atoms: C_12  and  C_14
REMARK    3  A    between atoms: C_14  and  O_15
REMARK    4  A    between atoms: O_15  and  P_16
REMARK    5  A    between atoms: P_16  and  O_17
REMARK    6  A    between atoms: P_16  and  O_18
REMARK    7  A    between atoms: C_20  and  O_22
REMARK    8  A    between atoms: C_23  and  O_25
REMARK                            x       y       z     vdW  Elec       q    Type
REMARK                         _______ _______ _______ _____ _____    ______ ____
ROOT
ATOM      1  C   UNL     1       9.335  -2.590  24.289  0.00  0.00    +0.255 C 
ATOM      2  C   UNL     1       8.239  -2.573  25.376  0.00  0.00    +0.195 C 
ATOM      3  C   UNL     1       7.049  -3.299  24.739  0.00  0.00    +0.178 C 
ATOM      4  C   UNL     1       7.560  -3.779  23.376  0.00  0.00    +0.178 C 
ATOM      5  O   UNL     1       8.988  -3.684  23.412  0.00  0.00    -0.346 OA
ENDROOT
BRANCH   1  12
ATOM      6  N   UNL     1      10.041   2.168  21.556  0.00  0.00    -0.343 N 
ATOM      7  H   UNL     1      10.335   2.141  20.588  0.00  0.00    +0.144 HD
ATOM      8  H   UNL     1      10.545   2.851  22.117  0.00  0.00    +0.144 HD
ATOM      9  C   UNL     1       9.868   0.976  22.205  0.00  0.00    +0.123 A 
ATOM     10  C   UNL     1       9.464  -0.212  21.435  0.00  0.00    +0.061 A 
ATOM     11  C   UNL     1       9.332  -1.338  22.130  0.00  0.00    +0.096 A 
ATOM     12  N   UNL     1       9.530  -1.376  23.494  0.00  0.00    -0.270 N 
ATOM     13  C   UNL     1       9.914  -0.216  24.190  0.00  0.00    +0.352 A 
ATOM     14  O   UNL     1      10.098  -0.231  25.403  0.00  0.00    -0.244 OA
ATOM     15  N   UNL     1      10.078   0.954  23.479  0.00  0.00    -0.178 NA
ENDBRANCH   1  12
BRANCH   2  16
ATOM     16  O   UNL     1       8.659  -3.296  26.550  0.00  0.00    -0.385 OA
ATOM     17  H   UNL     1       9.632  -3.295  26.581  0.00  0.00    +0.210 HD
ENDBRANCH   2  16
BRANCH   3  18
ATOM     18  O   UNL     1       5.952  -2.399  24.567  0.00  0.00    -0.386 OA
ATOM     19  H   UNL     1       5.157  -2.860  24.892  0.00  0.00    +0.210 HD
ENDBRANCH   3  18
BRANCH   4  20
ATOM     20  C   UNL     1       7.116  -5.208  23.018  0.00  0.00    +0.206 C 
BRANCH  20  21
ATOM     21  O   UNL     1       6.119  -5.654  23.936  0.00  0.00    -0.284 OA
BRANCH  21  22
ATOM     22  P   UNL     1       4.518  -5.751  23.291  0.00  0.00    +0.472 P 
ATOM     23  O   UNL     1       3.084  -5.836  22.713  0.00  0.00    -0.228 OA
BRANCH  22  24
ATOM     24  O   UNL     1       4.567  -7.298  23.806  0.00  0.00    -0.303 OA
ATOM     25  H   UNL     1       4.388  -7.314  24.760  0.00  0.00    +0.222 HD
ENDBRANCH  22  24
BRANCH  22  26
ATOM     26  O   UNL     1       5.213  -5.985  21.833  0.00  0.00    -0.303 OA
ATOM     27  H   UNL     1       4.622  -6.613  21.367  0.00  0.00    +0.222 HD
ENDBRANCH  22  26
ENDBRANCH  21  22
ENDBRANCH  20  21
ENDBRANCH   4  20
TORSDOF 8
ENDMDL
MODEL 5
REMARK VINA RESULT:      -5.9      4.232      6.713
REMARK  Name = 
REMARK  8 active torsions:
REMARK  status: ('A' for Active; 'I' for Inactive)
REMARK    1  A    between atoms: N_6  and  C_9
REMARK    2  A    between atoms: C_12  and  C_14
REMARK    3  A    between atoms: C_14  and  O_15
REMARK    4  A    between atoms: O_15  and  P_16
REMARK    5  A    between atoms: P_16  and  O_17
REMARK    6  A    between atoms: P_16  and  O_18
REMARK    7  A    between atoms: C_20  and  O_22
REMARK    8  A    between atoms: C_23  and  O_25
REMARK                            x       y       z     vdW  Elec       q    Type
REMARK                         _______ _______ _______ _____ _____    ______ ____
ROOT
ATOM      1  C   UNL     1       9.595   0.430  23.407  0.00  0.00    +0.255 C 
ATOM      2  C   UNL     1       8.635   0.832  22.269  0.00  0.00    +0.195 C 
ATOM      3  C   UNL     1       7.605   1.750  22.934  0.00  0.00    +0.178 C 
ATOM      4  C   UNL     1       8.089   1.907  24.380  0.00  0.00    +0.178 C 
ATOM      5  O   UNL     1       9.446   1.455  24.414  0.00  0.00    -0.346 OA
ENDROOT
BRANCH   1  12
ATOM      6  N   UNL     1       8.985  -4.669  25.465  0.00  0.00    -0.343 N 
ATOM      7  H   UNL     1       8.847  -4.785  26.461  0.00  0.00    +0.144 HD
ATOM      8  H   UNL     1       9.662  -5.317  25.068  0.00  0.00    +0.144 HD
ATOM      9  C   UNL     1       9.126  -3.397  24.983  0.00  0.00    +0.123 A 
ATOM     10  C   UNL     1       8.464  -2.283  25.682  0.00  0.00    +0.061 A 
ATOM     11  C   UNL     1       8.660  -1.073  25.166  0.00  0.00    +0.096 A 
ATOM     12  N   UNL     1       9.412  -0.884  24.026  0.00  0.00    -0.270 N 
ATOM     13  C   UNL     1      10.026  -1.977  23.390  0.00  0.00    +0.352 A 
ATOM     14  O   UNL     1      10.702  -1.828  22.376  0.00  0.00    -0.244 OA
ATOM     15  N   UNL     1       9.851  -3.235  23.927  0.00  0.00    -0.178 NA
ENDBRANCH   1  12
BRANCH   2  16
ATOM     16  O   UNL     1       9.326   1.566  21.239  0.00  0.00    -0.385 OA
ATOM     17  H   UNL     1       8.729   1.666  20.477  0.00  0.00    +0.210 HD
ENDBRANCH   2  16
BRANCH   3  18
ATOM     18  O   UNL     1       6.310   1.146  22.908  0.00  0.00    -0.386 OA
ATOM     19  H   UNL     1       6.049   1.003  23.837  0.00  0.00    +0.210 HD
ENDBRANCH   3  18
BRANCH   4  20
ATOM     20  C   UNL     1       7.976   3.344  24.917  0.00  0.00    +0.206 C 
BRANCH  20  21
ATOM     21  O   UNL     1       8.181   4.279  23.859  0.00  0.00    -0.284 OA
BRANCH  21  22
ATOM     22  P   UNL     1       9.655   5.179  23.950  0.00  0.00    +0.472 P 
ATOM     23  O   UNL     1      10.976   5.984  24.033  0.00  0.00    -0.228 OA
BRANCH  22  24
ATOM     24  O   UNL     1       9.029   6.040  22.715  0.00  0.00    -0.303 OA
ATOM     25  H   UNL     1       8.178   6.415  22.996  0.00  0.00    +0.222 HD
ENDBRANCH  22  24
BRANCH  22  26
ATOM     26  O   UNL     1      10.335   3.989  23.063  0.00  0.00    -0.303 OA
ATOM     27  H   UNL     1       9.602   3.369  22.866  0.00  0.00    +0.222 HD
ENDBRANCH  22  26
ENDBRANCH  21  22
ENDBRANCH  20  21
ENDBRANCH   4  20
TORSDOF 8
ENDMDL
MODEL 6
REMARK VINA RESULT:      -5.9      4.185      6.688
REMARK  Name = 
REMARK  8 active torsions:
REMARK  status: ('A' for Active; 'I' for Inactive)
REMARK    1  A    between atoms: N_6  and  C_9
REMARK    2  A    between atoms: C_12  and  C_14
REMARK    3  A    between atoms: C_14  and  O_15
REMARK    4  A    between atoms: O_15  and  P_16
REMARK    5  A    between atoms: P_16  and  O_17
REMARK    6  A    between atoms: P_16  and  O_18
REMARK    7  A    between atoms: C_20  and  O_22
REMARK    8  A    between atoms: C_23  and  O_25
REMARK                            x       y       z     vdW  Elec       q    Type
REMARK                         _______ _______ _______ _____ _____    ______ ____
ROOT
ATOM      1  C   UNL     1       7.361  -5.206  24.380  0.00  0.00    +0.255 C 
ATOM      2  C   UNL     1       6.587  -5.494  23.077  0.00  0.00    +0.195 C 
ATOM      3  C   UNL     1       5.960  -4.151  22.691  0.00  0.00    +0.178 C 
ATOM      4  C   UNL     1       6.493  -3.153  23.725  0.00  0.00    +0.178 C 
ATOM      5  O   UNL     1       7.602  -3.782  24.375  0.00  0.00    -0.346 OA
ENDROOT
BRANCH   1  12
ATOM      6  N   UNL     1       5.287  -6.658  29.299  0.00  0.00    -0.343 N 
ATOM      7  H   UNL     1       4.288  -6.598  29.449  0.00  0.00    +0.144 HD
ATOM      8  H   UNL     1       5.839  -6.279  30.065  0.00  0.00    +0.144 HD
ATOM      9  C   UNL     1       5.771  -6.299  28.071  0.00  0.00    +0.123 A 
ATOM     10  C   UNL     1       4.923  -6.477  26.881  0.00  0.00    +0.061 A 
ATOM     11  C   UNL     1       5.454  -6.090  25.725  0.00  0.00    +0.096 A 
ATOM     12  N   UNL     1       6.734  -5.585  25.647  0.00  0.00    -0.270 N 
ATOM     13  C   UNL     1       7.511  -5.434  26.810  0.00  0.00    +0.352 A 
ATOM     14  O   UNL     1       8.651  -4.984  26.761  0.00  0.00    -0.244 OA
ATOM     15  N   UNL     1       6.965  -5.808  28.019  0.00  0.00    -0.178 NA
ENDBRANCH   1  12
BRANCH   2  16
ATOM     16  O   UNL     1       7.476  -5.920  22.025  0.00  0.00    -0.385 OA
ATOM     17  H   UNL     1       8.114  -6.554  22.398  0.00  0.00    +0.210 HD
ENDBRANCH   2  16
BRANCH   3  18
ATOM     18  O   UNL     1       4.535  -4.227  22.764  0.00  0.00    -0.386 OA
ATOM     19  H   UNL     1       4.277  -5.066  22.339  0.00  0.00    +0.210 HD
ENDBRANCH   3  18
BRANCH   4  20
ATOM     20  C   UNL     1       6.906  -1.799  23.124  0.00  0.00    +0.206 C 
BRANCH  20  21
ATOM     21  O   UNL     1       8.058  -1.963  22.299  0.00  0.00    -0.284 OA
BRANCH  21  22
ATOM     22  P   UNL     1       9.437  -1.031  22.772  0.00  0.00    +0.472 P 
ATOM     23  O   UNL     1      10.670  -0.196  23.196  0.00  0.00    -0.228 OA
BRANCH  22  24
ATOM     24  O   UNL     1      10.051  -1.490  21.332  0.00  0.00    -0.303 OA
ATOM     25  H   UNL     1      10.424  -0.711  20.889  0.00  0.00    +0.222 HD
ENDBRANCH  22  24
BRANCH  22  26
ATOM     26  O   UNL     1       9.911  -2.332  23.635  0.00  0.00    -0.303 OA
ATOM     27  H   UNL     1       9.115  -2.902  23.694  0.00  0.00    +0.222 HD
ENDBRANCH  22  26
ENDBRANCH  21  22
ENDBRANCH  20  21
ENDBRANCH   4  20
TORSDOF 8
ENDMDL
MODEL 7
REMARK VINA RESULT:      -5.9      2.632      3.739
REMARK  Name = 
REMARK  8 active torsions:
REMARK  status: ('A' for Active; 'I' for Inactive)
REMARK    1  A    between atoms: N_6  and  C_9
REMARK    2  A    between atoms: C_12  and  C_14
REMARK    3  A    between atoms: C_14  and  O_15
REMARK    4  A    between atoms: O_15  and  P_16
REMARK    5  A    between atoms: P_16  and  O_17
REMARK    6  A    between atoms: P_16  and  O_18
REMARK    7  A    between atoms: C_20  and  O_22
REMARK    8  A    between atoms: C_23  and  O_25
REMARK                            x       y       z     vdW  Elec       q    Type
REMARK                         _______ _______ _______ _____ _____    ______ ____
ROOT
ATOM      1  C   UNL     1       7.227  -2.614  23.214  0.00  0.00    +0.255 C 
ATOM      2  C   UNL     1       7.909  -3.994  23.107  0.00  0.00    +0.195 C 
ATOM      3  C   UNL     1       8.429  -4.282  24.519  0.00  0.00    +0.178 C 
ATOM      4  C   UNL     1       7.929  -3.112  25.372  0.00  0.00    +0.178 C 
ATOM      5  O   UNL     1       6.910  -2.452  24.615  0.00  0.00    -0.346 OA
ENDROOT
BRANCH   1  12
ATOM      6  N   UNL     1       9.771   1.980  21.474  0.00  0.00    -0.343 N 
ATOM      7  H   UNL     1      10.780   1.986  21.402  0.00  0.00    +0.144 HD
ATOM      8  H   UNL     1       9.387   2.811  21.917  0.00  0.00    +0.144 HD
ATOM      9  C   UNL     1       9.168   0.828  21.900  0.00  0.00    +0.123 A 
ATOM     10  C   UNL     1       9.809  -0.467  21.621  0.00  0.00    +0.061 A 
ATOM     11  C   UNL     1       9.174  -1.542  22.081  0.00  0.00    +0.096 A 
ATOM     12  N   UNL     1       7.972  -1.444  22.749  0.00  0.00    -0.270 N 
ATOM     13  C   UNL     1       7.395  -0.185  22.993  0.00  0.00    +0.352 A 
ATOM     14  O   UNL     1       6.327  -0.078  23.588  0.00  0.00    -0.244 OA
ATOM     15  N   UNL     1       8.053   0.940  22.543  0.00  0.00    -0.178 NA
ENDBRANCH   1  12
BRANCH   2  16
ATOM     16  O   UNL     1       6.962  -5.016  22.735  0.00  0.00    -0.385 OA
ATOM     17  H   UNL     1       6.665  -5.470  23.544  0.00  0.00    +0.210 HD
ENDBRANCH   2  16
BRANCH   3  18
ATOM     18  O   UNL     1       9.858  -4.323  24.523  0.00  0.00    -0.386 OA
ATOM     19  H   UNL     1      10.135  -4.546  23.615  0.00  0.00    +0.210 HD
ENDBRANCH   3  18
BRANCH   4  20
ATOM     20  C   UNL     1       7.397  -3.536  26.752  0.00  0.00    +0.206 C 
BRANCH  20  21
ATOM     21  O   UNL     1       6.390  -4.535  26.601  0.00  0.00    -0.284 OA
BRANCH  21  22
ATOM     22  P   UNL     1       6.337  -5.719  27.862  0.00  0.00    +0.472 P 
ATOM     23  O   UNL     1       6.288  -6.778  28.990  0.00  0.00    -0.228 OA
BRANCH  22  24
ATOM     24  O   UNL     1       7.907  -5.961  27.493  0.00  0.00    -0.303 OA
ATOM     25  H   UNL     1       8.433  -5.246  27.887  0.00  0.00    +0.222 HD
ENDBRANCH  22  24
BRANCH  22  26
ATOM     26  O   UNL     1       5.696  -6.737  26.759  0.00  0.00    -0.303 OA
ATOM     27  H   UNL     1       6.434  -7.326  26.496  0.00  0.00    +0.222 HD
ENDBRANCH  22  26
ENDBRANCH  21  22
ENDBRANCH  20  21
ENDBRANCH   4  20
TORSDOF 8
ENDMDL
MODEL 8
REMARK VINA RESULT:      -5.9      2.910      4.397
REMARK  Name = 
REMARK  8 active torsions:
REMARK  status: ('A' for Active; 'I' for Inactive)
REMARK    1  A    between atoms: N_6  and  C_9
REMARK    2  A    between atoms: C_12  and  C_14
REMARK    3  A    between atoms: C_14  and  O_15
REMARK    4  A    between atoms: O_15  and  P_16
REMARK    5  A    between atoms: P_16  and  O_17
REMARK    6  A    between atoms: P_16  and  O_18
REMARK    7  A    between atoms: C_20  and  O_22
REMARK    8  A    between atoms: C_23  and  O_25
REMARK                            x       y       z     vdW  Elec       q    Type
REMARK                         _______ _______ _______ _____ _____    ______ ____
ROOT
ATOM      1  C   UNL     1       6.404  -2.675  23.347  0.00  0.00    +0.255 C 
ATOM      2  C   UNL     1       6.714  -3.807  22.346  0.00  0.00    +0.195 C 
ATOM      3  C   UNL     1       6.733  -5.083  23.194  0.00  0.00    +0.178 C 
ATOM      4  C   UNL     1       6.331  -4.629  24.602  0.00  0.00    +0.178 C 
ATOM      5  O   UNL     1       5.764  -3.322  24.470  0.00  0.00    -0.346 OA
ENDROOT
BRANCH   1  12
ATOM      6  N   UNL     1      10.433   0.653  25.164  0.00  0.00    -0.343 N 
ATOM      7  H   UNL     1      11.294   0.243  25.503  0.00  0.00    +0.144 HD
ATOM      8  H   UNL     1      10.068   1.392  25.760  0.00  0.00    +0.144 HD
ATOM      9  C   UNL     1       9.457  -0.194  24.714  0.00  0.00    +0.123 A 
ATOM     10  C   UNL     1       9.839  -1.488  24.125  0.00  0.00    +0.061 A 
ATOM     11  C   UNL     1       8.836  -2.265  23.727  0.00  0.00    +0.096 A 
ATOM     12  N   UNL     1       7.521  -1.862  23.831  0.00  0.00    -0.270 N 
ATOM     13  C   UNL     1       7.202  -0.617  24.399  0.00  0.00    +0.352 A 
ATOM     14  O   UNL     1       6.037  -0.243  24.503  0.00  0.00    -0.244 OA
ATOM     15  N   UNL     1       8.230   0.189  24.839  0.00  0.00    -0.178 NA
ENDBRANCH   1  12
BRANCH   2  16
ATOM     16  O   UNL     1       5.680  -3.919  21.348  0.00  0.00    -0.385 OA
ATOM     17  H   UNL     1       6.100  -4.073  20.484  0.00  0.00    +0.210 HD
ENDBRANCH   2  16
BRANCH   3  18
ATOM     18  O   UNL     1       8.045  -5.649  23.212  0.00  0.00    -0.386 OA
ATOM     19  H   UNL     1       8.344  -5.633  24.140  0.00  0.00    +0.210 HD
ENDBRANCH   3  18
BRANCH   4  20
ATOM     20  C   UNL     1       5.348  -5.584  25.302  0.00  0.00    +0.206 C 
BRANCH  20  21
ATOM     21  O   UNL     1       6.048  -6.411  26.230  0.00  0.00    -0.284 OA
BRANCH  21  22
ATOM     22  P   UNL     1       6.013  -5.865  27.871  0.00  0.00    +0.472 P 
ATOM     23  O   UNL     1       5.980  -5.377  29.340  0.00  0.00    -0.228 OA
BRANCH  22  24
ATOM     24  O   UNL     1       7.628  -6.089  27.821  0.00  0.00    -0.303 OA
ATOM     25  H   UNL     1       7.808  -7.038  27.716  0.00  0.00    +0.222 HD
ENDBRANCH  22  24
BRANCH  22  26
ATOM     26  O   UNL     1       5.595  -7.390  28.277  0.00  0.00    -0.303 OA
ATOM     27  H   UNL     1       6.375  -7.752  28.747  0.00  0.00    +0.222 HD
ENDBRANCH  22  26
ENDBRANCH  21  22
ENDBRANCH  20  21
ENDBRANCH   4  20
TORSDOF 8
ENDMDL
MODEL 9
REMARK VINA RESULT:      -5.9      4.437      7.219
REMARK  Name = 
REMARK  8 active torsions:
REMARK  status: ('A' for Active; 'I' for Inactive)
REMARK    1  A    between atoms: N_6  and  C_9
REMARK    2  A    between atoms: C_12  and  C_14
REMARK    3  A    between atoms: C_14  and  O_15
REMARK    4  A    between atoms: O_15  and  P_16
REMARK    5  A    between atoms: P_16  and  O_17
REMARK    6  A    between atoms: P_16  and  O_18
REMARK    7  A    between atoms: C_20  and  O_22
REMARK    8  A    between atoms: C_23  and  O_25
REMARK                            x       y       z     vdW  Elec       q    Type
REMARK                         _______ _______ _______ _____ _____    ______ ____
ROOT
ATOM      1  C   UNL     1       8.276  -4.910  26.141  0.00  0.00    +0.255 C 
ATOM      2  C   UNL     1       9.077  -4.899  24.822  0.00  0.00    +0.195 C 
ATOM      3  C   UNL     1       8.890  -3.485  24.264  0.00  0.00    +0.178 C 
ATOM      4  C   UNL     1       8.089  -2.738  25.336  0.00  0.00    +0.178 C 
ATOM      5  O   UNL     1       8.162  -3.523  26.531  0.00  0.00    -0.346 OA
ENDROOT
BRANCH   1  12
ATOM      6  N   UNL     1       3.329  -7.378  26.358  0.00  0.00    -0.343 N 
ATOM      7  H   UNL     1       2.587  -7.046  25.756  0.00  0.00    +0.144 HD
ATOM      8  H   UNL     1       3.035  -7.543  27.317  0.00  0.00    +0.144 HD
ATOM      9  C   UNL     1       4.544  -6.753  26.278  0.00  0.00    +0.123 A 
ATOM     10  C   UNL     1       4.961  -6.148  25.002  0.00  0.00    +0.061 A 
ATOM     11  C   UNL     1       6.146  -5.544  25.005  0.00  0.00    +0.096 A 
ATOM     12  N   UNL     1       6.945  -5.519  26.129  0.00  0.00    -0.270 N 
ATOM     13  C   UNL     1       6.506  -6.111  27.326  0.00  0.00    +0.352 A 
ATOM     14  O   UNL     1       7.202  -6.095  28.337  0.00  0.00    -0.244 OA
ATOM     15  N   UNL     1       5.270  -6.720  27.345  0.00  0.00    -0.178 NA
ENDBRANCH   1  12
BRANCH   2  16
ATOM     16  O   UNL     1      10.479  -5.131  25.062  0.00  0.00    -0.385 OA
ATOM     17  H   UNL     1      10.908  -4.274  25.234  0.00  0.00    +0.210 HD
ENDBRANCH   2  16
BRANCH   3  18
ATOM     18  O   UNL     1       8.157  -3.526  23.038  0.00  0.00    -0.386 OA
ATOM     19  H   UNL     1       7.508  -4.248  23.124  0.00  0.00    +0.210 HD
ENDBRANCH   3  18
BRANCH   4  20
ATOM     20  C   UNL     1       8.584  -1.304  25.593  0.00  0.00    +0.206 C 
BRANCH  20  21
ATOM     21  O   UNL     1       8.499  -0.537  24.393  0.00  0.00    -0.284 OA
BRANCH  21  22
ATOM     22  P   UNL     1       9.683   0.715  24.238  0.00  0.00    +0.472 P 
ATOM     23  O   UNL     1      10.742   1.836  24.099  0.00  0.00    -0.228 OA
BRANCH  22  24
ATOM     24  O   UNL     1      10.518  -0.390  23.377  0.00  0.00    -0.303 OA
ATOM     25  H   UNL     1      10.003  -1.213  23.342  0.00  0.00    +0.222 HD
ENDBRANCH  22  24
BRANCH  22  26
ATOM     26  O   UNL     1      10.210   0.280  25.719  0.00  0.00    -0.303 OA
ATOM     27  H   UNL     1      10.908  -0.389  25.555  0.00  0.00    +0.222 HD
ENDBRANCH  22  26
ENDBRANCH  21  22
ENDBRANCH  20  21
ENDBRANCH   4  20
TORSDOF 8
ENDMDL
