MODEL 1
REMARK VINA RESULT:      -6.6      0.000      0.000
REMARK  Name = 
REMARK  8 active torsions:
REMARK  status: ('A' for Active; 'I' for Inactive)
REMARK    1  A    between atoms: C_1  and  O_2
REMARK    2  A    between atoms: O_2  and  C_3
REMARK    3  A    between atoms: C_5  and  C_6
REMARK    4  A    between atoms: C_6  and  C_7
REMARK    5  A    between atoms: C_16  and  O_17
REMARK    6  A    between atoms: O_17  and  C_18
REMARK    7  A    between atoms: C_19  and  O_20
REMARK    8  A    between atoms: O_20  and  C_21
REMARK                            x       y       z     vdW  Elec       q    Type
REMARK                         _______ _______ _______ _____ _____    ______ ____
ROOT
ATOM      1  C   UNL     1      10.027  -2.428  23.735  0.00  0.00    +0.075 C 
ENDROOT
BRANCH   1   2
ATOM      2  C   UNL     1       9.891  -0.950  23.543  0.00  0.00    +0.015 A 
ATOM      3  C   UNL     1       9.891  -0.331  22.301  0.00  0.00    +0.125 A 
ATOM      4  N   UNL     1       9.709  -1.041  21.115  0.00  0.00    -0.343 N 
ATOM      5  H   UNL     1      10.363  -1.804  21.004  0.00  0.00    +0.144 HD
ATOM      6  H   UNL     1       9.798  -0.366  20.358  0.00  0.00    +0.144 HD
ATOM      7  N   UNL     1      10.035   0.992  22.144  0.00  0.00    -0.200 NA
ATOM      8  C   UNL     1      10.183   1.728  23.247  0.00  0.00    +0.214 A 
ATOM      9  N   UNL     1      10.481   3.063  23.088  0.00  0.00    -0.327 N 
ATOM     10  H   UNL     1      10.201   3.382  22.172  0.00  0.00    +0.145 HD
ATOM     11  H   UNL     1      10.172   3.589  23.891  0.00  0.00    +0.145 HD
ATOM     12  N   UNL     1      10.081   1.260  24.490  0.00  0.00    -0.223 NA
ATOM     13  C   UNL     1       9.938  -0.073  24.609  0.00  0.00    +0.121 A 
ENDBRANCH   1   2
BRANCH   1  18
ATOM     14  C   UNL     1       6.823  -4.347  22.951  0.00  0.00    +0.165 A 
ATOM     15  C   UNL     1       6.703  -5.175  24.085  0.00  0.00    +0.204 A 
ATOM     16  C   UNL     1       7.569  -4.956  25.175  0.00  0.00    +0.165 A 
ATOM     17  C   UNL     1       8.574  -3.982  25.097  0.00  0.00    +0.053 A 
ATOM     18  C   UNL     1       8.783  -3.261  23.920  0.00  0.00    -0.036 A 
ATOM     19  C   UNL     1       7.886  -3.434  22.860  0.00  0.00    +0.053 A 
BRANCH  14  21
ATOM     20  C   UNL     1       6.171  -5.486  20.961  0.00  0.00    +0.277 C 
ATOM     21  O   UNL     1       5.908  -4.485  21.940  0.00  0.00    -0.491 OA
ENDBRANCH  14  21
BRANCH  15  22
ATOM     22  O   UNL     1       5.737  -6.142  24.244  0.00  0.00    -0.488 OA
ATOM     23  C   UNL     1       4.458  -5.692  24.683  0.00  0.00    +0.277 C 
ENDBRANCH  15  22
BRANCH  16  24
ATOM     24  O   UNL     1       7.515  -5.601  26.386  0.00  0.00    -0.491 OA
ATOM     25  C   UNL     1       6.810  -4.900  27.407  0.00  0.00    +0.277 C 
ENDBRANCH  16  24
ENDBRANCH   1  18
TORSDOF 5
ENDMDL
MODEL 2
REMARK VINA RESULT:      -6.5      1.719      3.121
REMARK  Name = 
REMARK  8 active torsions:
REMARK  status: ('A' for Active; 'I' for Inactive)
REMARK    1  A    between atoms: C_1  and  O_2
REMARK    2  A    between atoms: O_2  and  C_3
REMARK    3  A    between atoms: C_5  and  C_6
REMARK    4  A    between atoms: C_6  and  C_7
REMARK    5  A    between atoms: C_16  and  O_17
REMARK    6  A    between atoms: O_17  and  C_18
REMARK    7  A    between atoms: C_19  and  O_20
REMARK    8  A    between atoms: O_20  and  C_21
REMARK                            x       y       z     vdW  Elec       q    Type
REMARK                         _______ _______ _______ _____ _____    ______ ____
ROOT
ATOM      1  C   UNL     1       9.293  -2.680  24.334  0.00  0.00    +0.075 C 
ENDROOT
BRANCH   1   2
ATOM      2  C   UNL     1       9.669  -1.422  23.616  0.00  0.00    +0.015 A 
ATOM      3  C   UNL     1       9.774  -0.184  24.233  0.00  0.00    +0.125 A 
ATOM      4  N   UNL     1       9.843  -0.046  25.618  0.00  0.00    -0.343 N 
ATOM      5  H   UNL     1       9.073  -0.491  26.101  0.00  0.00    +0.144 HD
ATOM      6  H   UNL     1       9.868   0.954  25.809  0.00  0.00    +0.144 HD
ATOM      7  N   UNL     1       9.849   0.968  23.553  0.00  0.00    -0.200 NA
ATOM      8  C   UNL     1       9.819   0.897  22.221  0.00  0.00    +0.214 A 
ATOM      9  N   UNL     1       9.743   2.080  21.520  0.00  0.00    -0.327 N 
ATOM     10  H   UNL     1      10.075   2.847  22.085  0.00  0.00    +0.145 HD
ATOM     11  H   UNL     1      10.131   1.965  20.596  0.00  0.00    +0.145 HD
ATOM     12  N   UNL     1       9.838  -0.238  21.522  0.00  0.00    -0.223 NA
ATOM     13  C   UNL     1       9.761  -1.374  22.239  0.00  0.00    +0.121 A 
ENDBRANCH   1   2
BRANCH   1  18
ATOM     14  C   UNL     1       5.486  -2.944  24.295  0.00  0.00    +0.165 A 
ATOM     15  C   UNL     1       5.286  -4.032  23.422  0.00  0.00    +0.204 A 
ATOM     16  C   UNL     1       6.406  -4.781  23.010  0.00  0.00    +0.165 A 
ATOM     17  C   UNL     1       7.696  -4.403  23.405  0.00  0.00    +0.053 A 
ATOM     18  C   UNL     1       7.905  -3.242  24.152  0.00  0.00    -0.036 A 
ATOM     19  C   UNL     1       6.791  -2.532  24.614  0.00  0.00    +0.053 A 
BRANCH  14  21
ATOM     20  C   UNL     1       4.027  -2.552  26.139  0.00  0.00    +0.277 C 
ATOM     21  O   UNL     1       4.387  -2.288  24.786  0.00  0.00    -0.491 OA
ENDBRANCH  14  21
BRANCH  15  22
ATOM     22  O   UNL     1       4.053  -4.475  23.000  0.00  0.00    -0.488 OA
ATOM     23  C   UNL     1       3.422  -5.460  23.814  0.00  0.00    +0.277 C 
ENDBRANCH  15  22
BRANCH  16  24
ATOM     24  O   UNL     1       6.372  -5.925  22.251  0.00  0.00    -0.491 OA
ATOM     25  C   UNL     1       6.280  -5.710  20.846  0.00  0.00    +0.277 C 
ENDBRANCH  16  24
ENDBRANCH   1  18
TORSDOF 5
ENDMDL
MODEL 3
REMARK VINA RESULT:      -6.5      0.737      2.747
REMARK  Name = 
REMARK  8 active torsions:
REMARK  status: ('A' for Active; 'I' for Inactive)
REMARK    1  A    between atoms: C_1  and  O_2
REMARK    2  A    between atoms: O_2  and  C_3
REMARK    3  A    between atoms: C_5  and  C_6
REMARK    4  A    between atoms: C_6  and  C_7
REMARK    5  A    between atoms: C_16  and  O_17
REMARK    6  A    between atoms: O_17  and  C_18
REMARK    7  A    between atoms: C_19  and  O_20
REMARK    8  A    between atoms: O_20  and  C_21
REMARK                            x       y       z     vdW  Elec       q    Type
REMARK                         _______ _______ _______ _____ _____    ______ ____
ROOT
ATOM      1  C   UNL     1       9.949  -2.273  23.514  0.00  0.00    +0.075 C 
ENDROOT
BRANCH   1   2
ATOM      2  C   UNL     1       9.870  -0.783  23.386  0.00  0.00    +0.015 A 
ATOM      3  C   UNL     1       9.824  -0.116  22.171  0.00  0.00    +0.125 A 
ATOM      4  N   UNL     1       9.537  -0.768  20.973  0.00  0.00    -0.343 N 
ATOM      5  H   UNL     1      10.148  -1.554  20.792  0.00  0.00    +0.144 HD
ATOM      6  H   UNL     1       9.612  -0.068  20.237  0.00  0.00    +0.144 HD
ATOM      7  N   UNL     1      10.018   1.205  22.055  0.00  0.00    -0.200 NA
ATOM      8  C   UNL     1      10.267   1.889  23.173  0.00  0.00    +0.214 A 
ATOM      9  N   UNL     1      10.616   3.215  23.046  0.00  0.00    -0.327 N 
ATOM     10  H   UNL     1      10.296   3.582  22.162  0.00  0.00    +0.145 HD
ATOM     11  H   UNL     1      10.381   3.721  23.886  0.00  0.00    +0.145 HD
ATOM     12  N   UNL     1      10.219   1.376  24.402  0.00  0.00    -0.223 NA
ATOM     13  C   UNL     1      10.022   0.047  24.480  0.00  0.00    +0.121 A 
ENDBRANCH   1   2
BRANCH   1  18
ATOM     14  C   UNL     1       6.977  -3.883  25.285  0.00  0.00    +0.165 A 
ATOM     15  C   UNL     1       6.095  -4.110  24.209  0.00  0.00    +0.204 A 
ATOM     16  C   UNL     1       6.565  -3.906  22.897  0.00  0.00    +0.165 A 
ATOM     17  C   UNL     1       7.860  -3.418  22.676  0.00  0.00    +0.053 A 
ATOM     18  C   UNL     1       8.682  -3.057  23.745  0.00  0.00    -0.036 A 
ATOM     19  C   UNL     1       8.241  -3.317  25.047  0.00  0.00    +0.053 A 
BRANCH  14  21
ATOM     20  C   UNL     1       7.193  -5.290  27.197  0.00  0.00    +0.277 C 
ATOM     21  O   UNL     1       6.556  -4.190  26.553  0.00  0.00    -0.491 OA
ENDBRANCH  14  21
BRANCH  15  22
ATOM     22  O   UNL     1       4.817  -4.601  24.342  0.00  0.00    -0.488 OA
ATOM     23  C   UNL     1       4.690  -6.017  24.442  0.00  0.00    +0.277 C 
ENDBRANCH  15  22
BRANCH  16  24
ATOM     24  O   UNL     1       5.872  -4.181  21.744  0.00  0.00    -0.491 OA
ATOM     25  C   UNL     1       6.221  -5.409  21.113  0.00  0.00    +0.277 C 
ENDBRANCH  16  24
ENDBRANCH   1  18
TORSDOF 5
ENDMDL
MODEL 4
REMARK VINA RESULT:      -6.5      1.109      1.774
REMARK  Name = 
REMARK  8 active torsions:
REMARK  status: ('A' for Active; 'I' for Inactive)
REMARK    1  A    between atoms: C_1  and  O_2
REMARK    2  A    between atoms: O_2  and  C_3
REMARK    3  A    between atoms: C_5  and  C_6
REMARK    4  A    between atoms: C_6  and  C_7
REMARK    5  A    between atoms: C_16  and  O_17
REMARK    6  A    between atoms: O_17  and  C_18
REMARK    7  A    between atoms: C_19  and  O_20
REMARK    8  A    between atoms: O_20  and  C_21
REMARK                            x       y       z     vdW  Elec       q    Type
REMARK                         _______ _______ _______ _____ _____    ______ ____
ROOT
ATOM      1  C   UNL     1       9.523  -2.734  24.178  0.00  0.00    +0.075 C 
ENDROOT
BRANCH   1   2
ATOM      2  C   UNL     1       9.792  -1.417  23.519  0.00  0.00    +0.015 A 
ATOM      3  C   UNL     1       9.778  -0.202  24.190  0.00  0.00    +0.125 A 
ATOM      4  N   UNL     1       9.818  -0.120  25.581  0.00  0.00    -0.343 N 
ATOM      5  H   UNL     1       9.085  -0.652  26.033  0.00  0.00    +0.144 HD
ATOM      6  H   UNL     1       9.750   0.869  25.814  0.00  0.00    +0.144 HD
ATOM      7  N   UNL     1       9.756   0.981  23.561  0.00  0.00    -0.200 NA
ATOM      8  C   UNL     1       9.748   0.965  22.227  0.00  0.00    +0.214 A 
ATOM      9  N   UNL     1       9.574   2.166  21.576  0.00  0.00    -0.327 N 
ATOM     10  H   UNL     1       9.828   2.935  22.178  0.00  0.00    +0.145 HD
ATOM     11  H   UNL     1       9.982   2.127  20.654  0.00  0.00    +0.145 HD
ATOM     12  N   UNL     1       9.878  -0.131  21.481  0.00  0.00    -0.223 NA
ATOM     13  C   UNL     1       9.896  -1.300  22.147  0.00  0.00    +0.121 A 
ENDBRANCH   1   2
BRANCH   1  18
ATOM     14  C   UNL     1       6.249  -4.314  23.018  0.00  0.00    +0.165 A 
ATOM     15  C   UNL     1       5.669  -4.697  24.244  0.00  0.00    +0.204 A 
ATOM     16  C   UNL     1       6.271  -4.262  25.440  0.00  0.00    +0.165 A 
ATOM     17  C   UNL     1       7.463  -3.526  25.407  0.00  0.00    +0.053 A 
ATOM     18  C   UNL     1       8.113  -3.269  24.198  0.00  0.00    -0.036 A 
ATOM     19  C   UNL     1       7.485  -3.646  23.006  0.00  0.00    +0.053 A 
BRANCH  14  21
ATOM     20  C   UNL     1       6.166  -5.684  21.069  0.00  0.00    +0.277 C 
ATOM     21  O   UNL     1       5.599  -4.641  21.856  0.00  0.00    -0.491 OA
ENDBRANCH  14  21
BRANCH  15  22
ATOM     22  O   UNL     1       4.496  -5.407  24.361  0.00  0.00    -0.488 OA
ATOM     23  C   UNL     1       4.616  -6.826  24.399  0.00  0.00    +0.277 C 
ENDBRANCH  15  22
BRANCH  16  24
ATOM     24  O   UNL     1       5.777  -4.459  26.707  0.00  0.00    -0.491 OA
ATOM     25  C   UNL     1       6.556  -5.326  27.526  0.00  0.00    +0.277 C 
ENDBRANCH  16  24
ENDBRANCH   1  18
TORSDOF 5
ENDMDL
MODEL 5
REMARK VINA RESULT:      -6.4      4.551      7.233
REMARK  Name = 
REMARK  8 active torsions:
REMARK  status: ('A' for Active; 'I' for Inactive)
REMARK    1  A    between atoms: C_1  and  O_2
REMARK    2  A    between atoms: O_2  and  C_3
REMARK    3  A    between atoms: C_5  and  C_6
REMARK    4  A    between atoms: C_6  and  C_7
REMARK    5  A    between atoms: C_16  and  O_17
REMARK    6  A    between atoms: O_17  and  C_18
REMARK    7  A    between atoms: C_19  and  O_20
REMARK    8  A    between atoms: O_20  and  C_21
REMARK                            x       y       z     vdW  Elec       q    Type
REMARK                         _______ _______ _______ _____ _____    ______ ____
ROOT
ATOM      1  C   UNL     1       8.317  -4.562  24.342  0.00  0.00    +0.075 C 
ENDROOT
BRANCH   1   2
ATOM      2  C   UNL     1       7.051  -5.084  24.947  0.00  0.00    +0.015 A 
ATOM      3  C   UNL     1       6.990  -5.718  26.179  0.00  0.00    +0.125 A 
ATOM      4  N   UNL     1       8.034  -5.656  27.101  0.00  0.00    -0.343 N 
ATOM      5  H   UNL     1       8.921  -5.958  26.719  0.00  0.00    +0.144 HD
ATOM      6  H   UNL     1       7.758  -6.235  27.891  0.00  0.00    +0.144 HD
ATOM      7  N   UNL     1       5.920  -6.409  26.594  0.00  0.00    -0.200 NA
ATOM      8  C   UNL     1       4.876  -6.478  25.766  0.00  0.00    +0.214 A 
ATOM      9  N   UNL     1       3.836  -7.309  26.118  0.00  0.00    -0.327 N 
ATOM     10  H   UNL     1       3.841  -7.479  27.112  0.00  0.00    +0.145 HD
ATOM     11  H   UNL     1       2.977  -6.994  25.692  0.00  0.00    +0.145 HD
ATOM     12  N   UNL     1       4.777  -5.815  24.614  0.00  0.00    -0.223 NA
ATOM     13  C   UNL     1       5.872  -5.132  24.230  0.00  0.00    +0.121 A 
ENDBRANCH   1   2
BRANCH   1  18
ATOM     14  C   UNL     1       8.916  -1.116  25.865  0.00  0.00    +0.165 A 
ATOM     15  C   UNL     1       9.653  -0.479  24.846  0.00  0.00    +0.204 A 
ATOM     16  C   UNL     1       9.778  -1.125  23.601  0.00  0.00    +0.165 A 
ATOM     17  C   UNL     1       9.241  -2.404  23.409  0.00  0.00    +0.053 A 
ATOM     18  C   UNL     1       8.636  -3.094  24.461  0.00  0.00    -0.036 A 
ATOM     19  C   UNL     1       8.457  -2.430  25.681  0.00  0.00    +0.053 A 
BRANCH  14  21
ATOM     20  C   UNL     1       7.367  -0.004  27.295  0.00  0.00    +0.277 C 
ATOM     21  O   UNL     1       8.699  -0.438  27.037  0.00  0.00    -0.491 OA
ENDBRANCH  14  21
BRANCH  15  22
ATOM     22  O   UNL     1      10.198   0.780  24.951  0.00  0.00    -0.488 OA
ATOM     23  C   UNL     1       9.356   1.867  24.578  0.00  0.00    +0.277 C 
ENDBRANCH  15  22
BRANCH  16  24
ATOM     24  O   UNL     1      10.369  -0.598  22.478  0.00  0.00    -0.491 OA
ATOM     25  C   UNL     1       9.461  -0.174  21.466  0.00  0.00    +0.277 C 
ENDBRANCH  16  24
ENDBRANCH   1  18
TORSDOF 5
ENDMDL
MODEL 6
REMARK VINA RESULT:      -6.2      1.679      2.563
REMARK  Name = 
REMARK  8 active torsions:
REMARK  status: ('A' for Active; 'I' for Inactive)
REMARK    1  A    between atoms: C_1  and  O_2
REMARK    2  A    between atoms: O_2  and  C_3
REMARK    3  A    between atoms: C_5  and  C_6
REMARK    4  A    between atoms: C_6  and  C_7
REMARK    5  A    between atoms: C_16  and  O_17
REMARK    6  A    between atoms: O_17  and  C_18
REMARK    7  A    between atoms: C_19  and  O_20
REMARK    8  A    between atoms: O_20  and  C_21
REMARK                            x       y       z     vdW  Elec       q    Type
REMARK                         _______ _______ _______ _____ _____    ______ ____
ROOT
ATOM      1  C   UNL     1       7.262  -0.833  24.701  0.00  0.00    +0.075 C 
ENDROOT
BRANCH   1   2
ATOM      2  C   UNL     1       8.305  -0.116  23.902  0.00  0.00    +0.015 A 
ATOM      3  C   UNL     1       9.425   0.484  24.459  0.00  0.00    +0.125 A 
ATOM      4  N   UNL     1       9.844   0.216  25.761  0.00  0.00    -0.343 N 
ATOM      5  H   UNL     1       9.121   0.370  26.451  0.00  0.00    +0.144 HD
ATOM      6  H   UNL     1      10.651   0.813  25.934  0.00  0.00    +0.144 HD
ATOM      7  N   UNL     1      10.208   1.339  23.786  0.00  0.00    -0.200 NA
ATOM      8  C   UNL     1       9.873   1.612  22.523  0.00  0.00    +0.214 A 
ATOM      9  N   UNL     1      10.580   2.601  21.875  0.00  0.00    -0.327 N 
ATOM     10  H   UNL     1      11.477   2.740  22.315  0.00  0.00    +0.145 HD
ATOM     11  H   UNL     1      10.555   2.452  20.878  0.00  0.00    +0.145 HD
ATOM     12  N   UNL     1       8.893   1.008  21.851  0.00  0.00    -0.223 NA
ATOM     13  C   UNL     1       8.129   0.157  22.560  0.00  0.00    +0.121 A 
ENDBRANCH   1   2
BRANCH   1  18
ATOM     14  C   UNL     1       5.450  -3.886  23.304  0.00  0.00    +0.165 A 
ATOM     15  C   UNL     1       6.479  -4.850  23.301  0.00  0.00    +0.204 A 
ATOM     16  C   UNL     1       7.698  -4.537  23.933  0.00  0.00    +0.165 A 
ATOM     17  C   UNL     1       7.903  -3.267  24.488  0.00  0.00    +0.053 A 
ATOM     18  C   UNL     1       6.937  -2.266  24.364  0.00  0.00    -0.036 A 
ATOM     19  C   UNL     1       5.703  -2.594  23.791  0.00  0.00    +0.053 A 
BRANCH  14  21
ATOM     20  C   UNL     1       3.276  -4.780  23.697  0.00  0.00    +0.277 C 
ATOM     21  O   UNL     1       4.228  -4.232  22.789  0.00  0.00    -0.491 OA
ENDBRANCH  14  21
BRANCH  15  22
ATOM     22  O   UNL     1       6.352  -6.121  22.790  0.00  0.00    -0.488 OA
ATOM     23  C   UNL     1       6.564  -6.264  21.388  0.00  0.00    +0.277 C 
ENDBRANCH  15  22
BRANCH  16  24
ATOM     24  O   UNL     1       8.755  -5.396  24.109  0.00  0.00    -0.491 OA
ATOM     25  C   UNL     1       9.511  -5.180  25.297  0.00  0.00    +0.277 C 
ENDBRANCH  16  24
ENDBRANCH   1  18
TORSDOF 5
ENDMDL
MODEL 7
REMARK VINA RESULT:      -6.2      4.565      6.727
REMARK  Name = 
REMARK  8 active torsions:
REMARK  status: ('A' for Active; 'I' for Inactive)
REMARK    1  A    between atoms: C_1  and  O_2
REMARK    2  A    between atoms: O_2  and  C_3
REMARK    3  A    between atoms: C_5  and  C_6
REMARK    4  A    between atoms: C_6  and  C_7
REMARK    5  A    between atoms: C_16  and  O_17
REMARK    6  A    between atoms: O_17  and  C_18
REMARK    7  A    between atoms: C_19  and  O_20
REMARK    8  A    between atoms: O_20  and  C_21
REMARK                            x       y       z     vdW  Elec       q    Type
REMARK                         _______ _______ _______ _____ _____    ______ ____
ROOT
ATOM      1  C   UNL     1       8.394  -4.512  24.334  0.00  0.00    +0.075 C 
ENDROOT
BRANCH   1   2
ATOM      2  C   UNL     1       7.152  -4.999  25.013  0.00  0.00    +0.015 A 
ATOM      3  C   UNL     1       7.151  -5.683  26.220  0.00  0.00    +0.125 A 
ATOM      4  N   UNL     1       8.264  -5.713  27.060  0.00  0.00    -0.343 N 
ATOM      5  H   UNL     1       9.102  -6.040  26.598  0.00  0.00    +0.144 HD
ATOM      6  H   UNL     1       8.018  -6.314  27.844  0.00  0.00    +0.144 HD
ATOM      7  N   UNL     1       6.081  -6.340  26.687  0.00  0.00    -0.200 NA
ATOM      8  C   UNL     1       4.976  -6.322  25.940  0.00  0.00    +0.214 A 
ATOM      9  N   UNL     1       3.924  -7.116  26.337  0.00  0.00    -0.327 N 
ATOM     10  H   UNL     1       3.994  -7.331  27.321  0.00  0.00    +0.145 HD
ATOM     11  H   UNL     1       3.052  -6.742  25.993  0.00  0.00    +0.145 HD
ATOM     12  N   UNL     1       4.825  -5.604  24.828  0.00  0.00    -0.223 NA
ATOM     13  C   UNL     1       5.921  -4.958  24.389  0.00  0.00    +0.121 A 
ENDBRANCH   1   2
BRANCH   1  18
ATOM     14  C   UNL     1       9.757  -1.004  23.702  0.00  0.00    +0.165 A 
ATOM     15  C   UNL     1       9.315  -0.317  24.851  0.00  0.00    +0.204 A 
ATOM     16  C   UNL     1       8.742  -1.059  25.901  0.00  0.00    +0.165 A 
ATOM     17  C   UNL     1       8.551  -2.441  25.772  0.00  0.00    +0.053 A 
ATOM     18  C   UNL     1       8.857  -3.098  24.578  0.00  0.00    -0.036 A 
ATOM     19  C   UNL     1       9.483  -2.374  23.557  0.00  0.00    +0.053 A 
BRANCH  14  21
ATOM     20  C   UNL     1       9.656   0.109  21.597  0.00  0.00    +0.277 C 
ATOM     21  O   UNL     1      10.417  -0.298  22.730  0.00  0.00    -0.491 OA
ENDBRANCH  14  21
BRANCH  15  22
ATOM     22  O   UNL     1       9.478   1.033  25.060  0.00  0.00    -0.488 OA
ATOM     23  C   UNL     1       8.407   1.872  24.635  0.00  0.00    +0.277 C 
ENDBRANCH  15  22
BRANCH  16  24
ATOM     24  O   UNL     1       8.359  -0.560  27.123  0.00  0.00    -0.491 OA
ATOM     25  C   UNL     1       6.962  -0.317  27.259  0.00  0.00    +0.277 C 
ENDBRANCH  16  24
ENDBRANCH   1  18
TORSDOF 5
ENDMDL
MODEL 8
REMARK VINA RESULT:      -6.2      2.069      3.951
REMARK  Name = 
REMARK  8 active torsions:
REMARK  status: ('A' for Active; 'I' for Inactive)
REMARK    1  A    between atoms: C_1  and  O_2
REMARK    2  A    between atoms: O_2  and  C_3
REMARK    3  A    between atoms: C_5  and  C_6
REMARK    4  A    between atoms: C_6  and  C_7
REMARK    5  A    between atoms: C_16  and  O_17
REMARK    6  A    between atoms: O_17  and  C_18
REMARK    7  A    between atoms: C_19  and  O_20
REMARK    8  A    between atoms: O_20  and  C_21
REMARK                            x       y       z     vdW  Elec       q    Type
REMARK                         _______ _______ _______ _____ _____    ______ ____
ROOT
ATOM      1  C   UNL     1       7.046  -2.823  25.583  0.00  0.00    +0.075 C 
ENDROOT
BRANCH   1   2
ATOM      2  C   UNL     1       7.870  -2.120  24.550  0.00  0.00    +0.015 A 
ATOM      3  C   UNL     1       7.362  -1.177  23.669  0.00  0.00    +0.125 A 
ATOM      4  N   UNL     1       6.121  -0.572  23.860  0.00  0.00    -0.343 N 
ATOM      5  H   UNL     1       5.366  -1.236  23.963  0.00  0.00    +0.144 HD
ATOM      6  H   UNL     1       5.969   0.037  23.058  0.00  0.00    +0.144 HD
ATOM      7  N   UNL     1       8.030  -0.751  22.588  0.00  0.00    -0.200 NA
ATOM      8  C   UNL     1       9.238  -1.273  22.369  0.00  0.00    +0.214 A 
ATOM      9  N   UNL     1       9.865  -0.956  21.184  0.00  0.00    -0.327 N 
ATOM     10  H   UNL     1       9.489  -0.100  20.803  0.00  0.00    +0.145 HD
ATOM     11  H   UNL     1      10.866  -1.033  21.286  0.00  0.00    +0.145 HD
ATOM     12  N   UNL     1       9.872  -2.093  23.206  0.00  0.00    -0.223 NA
ATOM     13  C   UNL     1       9.170  -2.500  24.280  0.00  0.00    +0.121 A 
ENDBRANCH   1   2
BRANCH   1  18
ATOM     14  C   UNL     1       5.423  -6.250  26.006  0.00  0.00    +0.165 A 
ATOM     15  C   UNL     1       4.890  -6.472  24.720  0.00  0.00    +0.204 A 
ATOM     16  C   UNL     1       5.234  -5.582  23.684  0.00  0.00    +0.165 A 
ATOM     17  C   UNL     1       6.031  -4.460  23.950  0.00  0.00    +0.053 A 
ATOM     18  C   UNL     1       6.440  -4.162  25.251  0.00  0.00    -0.036 A 
ATOM     19  C   UNL     1       6.150  -5.078  26.269  0.00  0.00    +0.053 A 
BRANCH  14  21
ATOM     20  C   UNL     1       4.527  -6.720  28.164  0.00  0.00    +0.277 C 
ATOM     21  O   UNL     1       5.180  -7.179  26.984  0.00  0.00    -0.491 OA
ENDBRANCH  14  21
BRANCH  15  22
ATOM     22  O   UNL     1       4.113  -7.554  24.376  0.00  0.00    -0.488 OA
ATOM     23  C   UNL     1       2.707  -7.405  24.554  0.00  0.00    +0.277 C 
ENDBRANCH  15  22
BRANCH  16  24
ATOM     24  O   UNL     1       4.888  -5.715  22.362  0.00  0.00    -0.491 OA
ATOM     25  C   UNL     1       5.987  -5.808  21.461  0.00  0.00    +0.277 C 
ENDBRANCH  16  24
ENDBRANCH   1  18
TORSDOF 5
ENDMDL
MODEL 9
REMARK VINA RESULT:      -6.1      1.774      3.211
REMARK  Name = 
REMARK  8 active torsions:
REMARK  status: ('A' for Active; 'I' for Inactive)
REMARK    1  A    between atoms: C_1  and  O_2
REMARK    2  A    between atoms: O_2  and  C_3
REMARK    3  A    between atoms: C_5  and  C_6
REMARK    4  A    between atoms: C_6  and  C_7
REMARK    5  A    between atoms: C_16  and  O_17
REMARK    6  A    between atoms: O_17  and  C_18
REMARK    7  A    between atoms: C_19  and  O_20
REMARK    8  A    between atoms: O_20  and  C_21
REMARK                            x       y       z     vdW  Elec       q    Type
REMARK                         _______ _______ _______ _____ _____    ______ ____
ROOT
ATOM      1  C   UNL     1       7.203  -0.328  24.316  0.00  0.00    +0.075 C 
ENDROOT
BRANCH   1   2
ATOM      2  C   UNL     1       8.353   0.515  23.860  0.00  0.00    +0.015 A 
ATOM      3  C   UNL     1       9.436   0.841  24.664  0.00  0.00    +0.125 A 
ATOM      4  N   UNL     1       9.708   0.169  25.855  0.00  0.00    -0.343 N 
ATOM      5  H   UNL     1       8.926   0.165  26.496  0.00  0.00    +0.144 HD
ATOM      6  H   UNL     1      10.518   0.628  26.267  0.00  0.00    +0.144 HD
ATOM      7  N   UNL     1      10.320   1.797  24.348  0.00  0.00    -0.200 NA
ATOM      8  C   UNL     1      10.128   2.455  23.203  0.00  0.00    +0.214 A 
ATOM      9  N   UNL     1      10.940   3.537  22.945  0.00  0.00    -0.327 N 
ATOM     10  H   UNL     1      11.793   3.474  23.479  0.00  0.00    +0.145 HD
ATOM     11  H   UNL     1      11.010   3.692  21.950  0.00  0.00    +0.145 HD
ATOM     12  N   UNL     1       9.196   2.150  22.301  0.00  0.00    -0.223 NA
ATOM     13  C   UNL     1       8.327   1.185  22.653  0.00  0.00    +0.121 A 
ENDBRANCH   1   2
BRANCH   1  18
ATOM     14  C   UNL     1       8.053  -4.029  23.943  0.00  0.00    +0.165 A 
ATOM     15  C   UNL     1       6.828  -4.557  23.485  0.00  0.00    +0.204 A 
ATOM     16  C   UNL     1       5.802  -3.663  23.125  0.00  0.00    +0.165 A 
ATOM     17  C   UNL     1       5.974  -2.282  23.290  0.00  0.00    +0.053 A 
ATOM     18  C   UNL     1       7.132  -1.769  23.878  0.00  0.00    -0.036 A 
ATOM     19  C   UNL     1       8.177  -2.650  24.178  0.00  0.00    +0.053 A 
BRANCH  14  21
ATOM     20  C   UNL     1       9.585  -4.953  25.518  0.00  0.00    +0.277 C 
ATOM     21  O   UNL     1       9.089  -4.894  24.184  0.00  0.00    -0.491 OA
ENDBRANCH  14  21
BRANCH  15  22
ATOM     22  O   UNL     1       6.585  -5.896  23.283  0.00  0.00    -0.488 OA
ATOM     23  C   UNL     1       6.810  -6.387  21.964  0.00  0.00    +0.277 C 
ENDBRANCH  15  22
BRANCH  16  24
ATOM     24  O   UNL     1       4.595  -4.008  22.566  0.00  0.00    -0.491 OA
ATOM     25  C   UNL     1       3.628  -4.504  23.487  0.00  0.00    +0.277 C 
ENDBRANCH  16  24
ENDBRANCH   1  18
TORSDOF 5
ENDMDL
