MODEL 1
REMARK VINA RESULT:      -6.9      0.000      0.000
REMARK  Name = 
REMARK  16 active torsions:
REMARK  status: ('A' for Active; 'I' for Inactive)
REMARK    1  A    between atoms: C_2  and  N_3
REMARK    2  A    between atoms: C_2  and  C_14
REMARK    3  A    between atoms: C_2  and  P_17
REMARK    4  A    between atoms: C_4  and  O_6
REMARK    5  A    between atoms: O_6  and  C_7
REMARK    6  A    between atoms: C_7  and  C_8
REMARK    7  A    between atoms: C_14  and  C_15
REMARK    8  A    between atoms: C_14  and  C_16
REMARK    9  A    between atoms: P_17  and  O_18
REMARK   10  A    between atoms: P_17  and  O_20
REMARK   11  A    between atoms: O_20  and  C_21
REMARK   12  A    between atoms: C_21  and  C_23
REMARK   13  A    between atoms: C_21  and  C_26
REMARK   14  A    between atoms: C_23  and  O_24
REMARK   15  A    between atoms: C_28  and  C_29
REMARK   16  A    between atoms: C_29  and  N_30
REMARK                            x       y       z     vdW  Elec       q    Type
REMARK                         _______ _______ _______ _____ _____    ______ ____
ROOT
ATOM      1  P   UNL     1       8.247  -2.275  23.200  0.00  0.00    +0.352 P 
ATOM      2  O   UNL     1       9.520  -3.023  23.604  0.00  0.00    -0.257 OA
ENDROOT
BRANCH   1   3
ATOM      3  O   UNL     1       8.645  -1.378  21.891  0.00  0.00    -0.323 OA
ATOM      4  H   UNL     1       9.113  -0.554  22.153  0.00  0.00    +0.220 HD
ENDBRANCH   1   3
BRANCH   1   5
ATOM      5  C   UNL     1       8.760  -0.943  24.345  0.00  0.00    +0.193 C 
BRANCH   5   6
ATOM      6  N   UNL     1       9.231   0.287  23.628  0.00  0.00    -0.267 N 
ATOM      7  H   UNL     1       8.595   0.777  23.008  0.00  0.00    +0.153 HD
ATOM      8  C   UNL     1      10.417   0.926  23.896  0.00  0.00    +0.401 C 
ATOM      9  O   UNL     1      11.229   0.560  24.734  0.00  0.00    -0.226 OA
BRANCH   8  10
ATOM     10  O   UNL     1      10.575   2.000  23.083  0.00  0.00    -0.446 OA
BRANCH  10  11
ATOM     11  C   UNL     1       9.636   3.070  23.291  0.00  0.00    +0.269 C 
BRANCH  11  12
ATOM     12  C   UNL     1      10.371   4.315  23.731  0.00  0.00    -0.010 A 
ATOM     13  C   UNL     1      11.732   4.469  23.435  0.00  0.00    +0.007 A 
ATOM     14  C   UNL     1      12.424   5.614  23.849  0.00  0.00    +0.000 A 
ATOM     15  C   UNL     1      11.760   6.611  24.560  0.00  0.00    +0.000 A 
ATOM     16  C   UNL     1      10.407   6.467  24.859  0.00  0.00    +0.000 A 
ATOM     17  C   UNL     1       9.713   5.326  24.446  0.00  0.00    +0.007 A 
ENDBRANCH  11  12
ENDBRANCH  10  11
ENDBRANCH   8  10
ENDBRANCH   5   6
BRANCH   5  18
ATOM     18  C   UNL     1       7.637  -0.569  25.369  0.00  0.00    +0.015 C 
ATOM     19  C   UNL     1       7.710  -1.418  26.649  0.00  0.00    +0.010 C 
ATOM     20  C   UNL     1       6.238  -0.679  24.772  0.00  0.00    +0.010 C 
ENDBRANCH   5  18
ENDBRANCH   1   5
BRANCH   1  21
ATOM     21  O   UNL     1       7.761  -3.534  22.117  0.00  0.00    -0.287 OA
BRANCH  21  22
ATOM     22  C   UNL     1       7.197  -4.726  22.705  0.00  0.00    +0.266 C 
BRANCH  22  23
ATOM     23  C   UNL     1       6.267  -4.440  23.879  0.00  0.00    -0.007 A 
ATOM     24  C   UNL     1       4.959  -3.979  23.729  0.00  0.00    +0.007 A 
ATOM     25  C   UNL     1       4.144  -3.821  24.851  0.00  0.00    +0.001 A 
ATOM     26  C   UNL     1       4.622  -4.135  26.128  0.00  0.00    +0.005 A 
ATOM     27  C   UNL     1       5.931  -4.589  26.307  0.00  0.00    -0.033 A 
ATOM     28  C   UNL     1       6.751  -4.704  25.181  0.00  0.00    +0.011 A 
BRANCH  27  29
ATOM     29  C   UNL     1       6.439  -5.034  27.655  0.00  0.00    +0.113 C 
BRANCH  29  30
ATOM     30  N   UNL     1       7.607  -5.899  27.551  0.00  0.00    -0.326 NA
ATOM     31  H   UNL     1       7.799  -6.067  26.565  0.00  0.00    +0.119 HD
ATOM     32  H   UNL     1       8.415  -5.394  27.916  0.00  0.00    +0.119 HD
ENDBRANCH  29  30
ENDBRANCH  27  29
ENDBRANCH  22  23
BRANCH  22  33
ATOM     33  C   UNL     1       6.409  -5.612  21.701  0.00  0.00    +0.339 C 
ATOM     34  O   UNL     1       6.067  -5.265  20.579  0.00  0.00    -0.248 OA
BRANCH  33  35
ATOM     35  O   UNL     1       6.131  -6.857  22.167  0.00  0.00    -0.479 OA
ATOM     36  H   UNL     1       6.564  -7.522  21.586  0.00  0.00    +0.295 HD
ENDBRANCH  33  35
ENDBRANCH  22  33
ENDBRANCH  21  22
ENDBRANCH   1  21
TORSDOF 14
ENDMDL
MODEL 2
REMARK VINA RESULT:      -6.9      2.303      8.824
REMARK  Name = 
REMARK  16 active torsions:
REMARK  status: ('A' for Active; 'I' for Inactive)
REMARK    1  A    between atoms: C_2  and  N_3
REMARK    2  A    between atoms: C_2  and  C_14
REMARK    3  A    between atoms: C_2  and  P_17
REMARK    4  A    between atoms: C_4  and  O_6
REMARK    5  A    between atoms: O_6  and  C_7
REMARK    6  A    between atoms: C_7  and  C_8
REMARK    7  A    between atoms: C_14  and  C_15
REMARK    8  A    between atoms: C_14  and  C_16
REMARK    9  A    between atoms: P_17  and  O_18
REMARK   10  A    between atoms: P_17  and  O_20
REMARK   11  A    between atoms: O_20  and  C_21
REMARK   12  A    between atoms: C_21  and  C_23
REMARK   13  A    between atoms: C_21  and  C_26
REMARK   14  A    between atoms: C_23  and  O_24
REMARK   15  A    between atoms: C_28  and  C_29
REMARK   16  A    between atoms: C_29  and  N_30
REMARK                            x       y       z     vdW  Elec       q    Type
REMARK                         _______ _______ _______ _____ _____    ______ ____
ROOT
ATOM      1  P   UNL     1       9.527  -0.613  23.505  0.00  0.00    +0.352 P 
ATOM      2  O   UNL     1      10.579  -1.046  22.479  0.00  0.00    -0.257 OA
ENDROOT
BRANCH   1   3
ATOM      3  O   UNL     1      10.221  -0.807  24.974  0.00  0.00    -0.323 OA
ATOM      4  H   UNL     1      10.997  -0.213  25.083  0.00  0.00    +0.220 HD
ENDBRANCH   1   3
BRANCH   1   5
ATOM      5  C   UNL     1       8.921  -2.340  23.496  0.00  0.00    +0.193 C 
BRANCH   5   6
ATOM      6  N   UNL     1       8.658  -2.869  24.875  0.00  0.00    -0.267 N 
ATOM      7  H   UNL     1       7.962  -2.416  25.458  0.00  0.00    +0.153 HD
ATOM      8  C   UNL     1       9.157  -4.056  25.351  0.00  0.00    +0.401 C 
ATOM      9  O   UNL     1       9.882  -4.810  24.716  0.00  0.00    -0.226 OA
BRANCH   8  10
ATOM     10  O   UNL     1       8.759  -4.263  26.630  0.00  0.00    -0.446 OA
BRANCH  10  11
ATOM     11  C   UNL     1       7.776  -5.298  26.808  0.00  0.00    +0.269 C 
BRANCH  11  12
ATOM     12  C   UNL     1       6.441  -4.830  26.278  0.00  0.00    -0.010 A 
ATOM     13  C   UNL     1       5.797  -5.546  25.261  0.00  0.00    +0.007 A 
ATOM     14  C   UNL     1       4.564  -5.114  24.756  0.00  0.00    +0.000 A 
ATOM     15  C   UNL     1       3.968  -3.962  25.265  0.00  0.00    +0.000 A 
ATOM     16  C   UNL     1       4.600  -3.242  26.278  0.00  0.00    +0.000 A 
ATOM     17  C   UNL     1       5.829  -3.673  26.784  0.00  0.00    +0.007 A 
ENDBRANCH  11  12
ENDBRANCH  10  11
ENDBRANCH   8  10
ENDBRANCH   5   6
BRANCH   5  18
ATOM     18  C   UNL     1       7.651  -2.523  22.601  0.00  0.00    +0.015 C 
ATOM     19  C   UNL     1       6.408  -1.852  23.210  0.00  0.00    +0.010 C 
ATOM     20  C   UNL     1       7.341  -3.989  22.313  0.00  0.00    +0.010 C 
ENDBRANCH   5  18
ENDBRANCH   1   5
BRANCH   1  21
ATOM     21  O   UNL     1      10.100   1.019  23.514  0.00  0.00    -0.287 OA
BRANCH  21  22
ATOM     22  C   UNL     1       9.105   2.065  23.492  0.00  0.00    +0.266 C 
BRANCH  22  23
ATOM     23  C   UNL     1       9.699   3.467  23.537  0.00  0.00    -0.007 A 
ATOM     24  C   UNL     1       8.963   4.604  23.872  0.00  0.00    +0.007 A 
ATOM     25  C   UNL     1       9.600   5.842  23.972  0.00  0.00    +0.001 A 
ATOM     26  C   UNL     1      10.978   5.953  23.756  0.00  0.00    +0.005 A 
ATOM     27  C   UNL     1      11.738   4.832  23.411  0.00  0.00    -0.033 A 
ATOM     28  C   UNL     1      11.081   3.606  23.272  0.00  0.00    +0.011 A 
BRANCH  27  29
ATOM     29  C   UNL     1      13.237   4.901  23.275  0.00  0.00    +0.113 C 
BRANCH  29  30
ATOM     30  N   UNL     1      13.655   5.711  22.137  0.00  0.00    -0.326 NA
ATOM     31  H   UNL     1      14.170   6.517  22.485  0.00  0.00    +0.119 HD
ATOM     32  H   UNL     1      14.317   5.169  21.582  0.00  0.00    +0.119 HD
ENDBRANCH  29  30
ENDBRANCH  27  29
ENDBRANCH  22  23
BRANCH  22  33
ATOM     33  C   UNL     1       8.158   2.007  22.261  0.00  0.00    +0.339 C 
ATOM     34  O   UNL     1       6.937   1.971  22.317  0.00  0.00    -0.248 OA
BRANCH  33  35
ATOM     35  O   UNL     1       8.806   2.016  21.067  0.00  0.00    -0.479 OA
ATOM     36  H   UNL     1       9.708   1.639  21.188  0.00  0.00    +0.295 HD
ENDBRANCH  33  35
ENDBRANCH  22  33
ENDBRANCH  21  22
ENDBRANCH   1  21
TORSDOF 14
ENDMDL
MODEL 3
REMARK VINA RESULT:      -6.9      2.415      8.879
REMARK  Name = 
REMARK  16 active torsions:
REMARK  status: ('A' for Active; 'I' for Inactive)
REMARK    1  A    between atoms: C_2  and  N_3
REMARK    2  A    between atoms: C_2  and  C_14
REMARK    3  A    between atoms: C_2  and  P_17
REMARK    4  A    between atoms: C_4  and  O_6
REMARK    5  A    between atoms: O_6  and  C_7
REMARK    6  A    between atoms: C_7  and  C_8
REMARK    7  A    between atoms: C_14  and  C_15
REMARK    8  A    between atoms: C_14  and  C_16
REMARK    9  A    between atoms: P_17  and  O_18
REMARK   10  A    between atoms: P_17  and  O_20
REMARK   11  A    between atoms: O_20  and  C_21
REMARK   12  A    between atoms: C_21  and  C_23
REMARK   13  A    between atoms: C_21  and  C_26
REMARK   14  A    between atoms: C_23  and  O_24
REMARK   15  A    between atoms: C_28  and  C_29
REMARK   16  A    between atoms: C_29  and  N_30
REMARK                            x       y       z     vdW  Elec       q    Type
REMARK                         _______ _______ _______ _____ _____    ______ ____
ROOT
ATOM      1  P   UNL     1       9.520   0.149  24.258  0.00  0.00    +0.352 P 
ATOM      2  O   UNL     1      10.979   0.130  23.792  0.00  0.00    -0.257 OA
ENDROOT
BRANCH   1   3
ATOM      3  O   UNL     1       9.562  -0.007  25.886  0.00  0.00    -0.323 OA
ATOM      4  H   UNL     1       9.975   0.779  26.309  0.00  0.00    +0.220 HD
ENDBRANCH   1   3
BRANCH   1   5
ATOM      5  C   UNL     1       9.504  -1.666  24.024  0.00  0.00    +0.193 C 
BRANCH   5   6
ATOM      6  N   UNL     1       8.924  -2.396  25.199  0.00  0.00    -0.267 N 
ATOM      7  H   UNL     1       8.195  -1.955  25.749  0.00  0.00    +0.153 HD
ATOM      8  C   UNL     1       9.170  -3.717  25.480  0.00  0.00    +0.401 C 
ATOM      9  O   UNL     1       9.897  -4.445  24.817  0.00  0.00    -0.226 OA
BRANCH   8  10
ATOM     10  O   UNL     1       8.518  -4.095  26.607  0.00  0.00    -0.446 OA
BRANCH  10  11
ATOM     11  C   UNL     1       7.594  -5.186  26.445  0.00  0.00    +0.269 C 
BRANCH  11  12
ATOM     12  C   UNL     1       6.454  -4.760  25.549  0.00  0.00    -0.010 A 
ATOM     13  C   UNL     1       5.546  -3.785  25.983  0.00  0.00    +0.007 A 
ATOM     14  C   UNL     1       4.480  -3.391  25.165  0.00  0.00    +0.000 A 
ATOM     15  C   UNL     1       4.315  -3.970  23.908  0.00  0.00    +0.000 A 
ATOM     16  C   UNL     1       5.213  -4.940  23.467  0.00  0.00    +0.000 A 
ATOM     17  C   UNL     1       6.279  -5.333  24.282  0.00  0.00    +0.007 A 
ENDBRANCH  11  12
ENDBRANCH  10  11
ENDBRANCH   8  10
ENDBRANCH   5   6
BRANCH   5  18
ATOM     18  C   UNL     1       8.765  -2.092  22.711  0.00  0.00    +0.015 C 
ATOM     19  C   UNL     1       9.327  -1.380  21.469  0.00  0.00    +0.010 C 
ATOM     20  C   UNL     1       7.259  -1.863  22.784  0.00  0.00    +0.010 C 
ENDBRANCH   5  18
ENDBRANCH   1   5
BRANCH   1  21
ATOM     21  O   UNL     1       9.536   1.865  24.480  0.00  0.00    -0.287 OA
BRANCH  21  22
ATOM     22  C   UNL     1       8.700   2.649  23.602  0.00  0.00    +0.266 C 
BRANCH  22  23
ATOM     23  C   UNL     1       8.995   4.143  23.659  0.00  0.00    -0.007 A 
ATOM     24  C   UNL     1       8.010   5.126  23.560  0.00  0.00    +0.007 A 
ATOM     25  C   UNL     1       8.352   6.471  23.705  0.00  0.00    +0.001 A 
ATOM     26  C   UNL     1       9.674   6.845  23.966  0.00  0.00    +0.005 A 
ATOM     27  C   UNL     1      10.682   5.882  24.061  0.00  0.00    -0.033 A 
ATOM     28  C   UNL     1      10.335   4.541  23.872  0.00  0.00    +0.011 A 
BRANCH  27  29
ATOM     29  C   UNL     1      12.094   6.246  24.445  0.00  0.00    +0.113 C 
BRANCH  29  30
ATOM     30  N   UNL     1      13.087   5.495  23.686  0.00  0.00    -0.326 NA
ATOM     31  H   UNL     1      13.874   5.290  24.298  0.00  0.00    +0.119 HD
ATOM     32  H   UNL     1      12.682   4.595  23.430  0.00  0.00    +0.119 HD
ENDBRANCH  29  30
ENDBRANCH  27  29
ENDBRANCH  22  23
BRANCH  22  33
ATOM     33  C   UNL     1       8.778   2.222  22.110  0.00  0.00    +0.339 C 
ATOM     34  O   UNL     1       7.818   1.920  21.415  0.00  0.00    -0.248 OA
BRANCH  33  35
ATOM     35  O   UNL     1      10.039   2.222  21.603  0.00  0.00    -0.479 OA
ATOM     36  H   UNL     1      10.573   2.903  22.071  0.00  0.00    +0.295 HD
ENDBRANCH  33  35
ENDBRANCH  22  33
ENDBRANCH  21  22
ENDBRANCH   1  21
TORSDOF 14
ENDMDL
MODEL 4
REMARK VINA RESULT:      -6.8      2.429      3.467
REMARK  Name = 
REMARK  16 active torsions:
REMARK  status: ('A' for Active; 'I' for Inactive)
REMARK    1  A    between atoms: C_2  and  N_3
REMARK    2  A    between atoms: C_2  and  C_14
REMARK    3  A    between atoms: C_2  and  P_17
REMARK    4  A    between atoms: C_4  and  O_6
REMARK    5  A    between atoms: O_6  and  C_7
REMARK    6  A    between atoms: C_7  and  C_8
REMARK    7  A    between atoms: C_14  and  C_15
REMARK    8  A    between atoms: C_14  and  C_16
REMARK    9  A    between atoms: P_17  and  O_18
REMARK   10  A    between atoms: P_17  and  O_20
REMARK   11  A    between atoms: O_20  and  C_21
REMARK   12  A    between atoms: C_21  and  C_23
REMARK   13  A    between atoms: C_21  and  C_26
REMARK   14  A    between atoms: C_23  and  O_24
REMARK   15  A    between atoms: C_28  and  C_29
REMARK   16  A    between atoms: C_29  and  N_30
REMARK                            x       y       z     vdW  Elec       q    Type
REMARK                         _______ _______ _______ _____ _____    ______ ____
ROOT
ATOM      1  P   UNL     1       9.411  -1.780  23.244  0.00  0.00    +0.352 P 
ATOM      2  O   UNL     1      10.661  -1.907  22.368  0.00  0.00    -0.257 OA
ENDROOT
BRANCH   1   3
ATOM      3  O   UNL     1       8.134  -1.990  22.243  0.00  0.00    -0.323 OA
ATOM      4  H   UNL     1       7.738  -2.883  22.352  0.00  0.00    +0.220 HD
ENDBRANCH   1   3
BRANCH   1   5
ATOM      5  C   UNL     1       9.455   0.019  22.909  0.00  0.00    +0.193 C 
BRANCH   5   6
ATOM      6  N   UNL     1       8.128   0.682  23.129  0.00  0.00    -0.267 N 
ATOM      7  H   UNL     1       7.719   0.683  24.057  0.00  0.00    +0.153 HD
ATOM      8  C   UNL     1       7.498   1.469  22.196  0.00  0.00    +0.401 C 
ATOM      9  O   UNL     1       7.937   1.708  21.079  0.00  0.00    -0.226 OA
BRANCH   8  10
ATOM     10  O   UNL     1       6.313   1.920  22.675  0.00  0.00    -0.446 OA
BRANCH  10  11
ATOM     11  C   UNL     1       6.114   3.342  22.581  0.00  0.00    +0.269 C 
BRANCH  11  12
ATOM     12  C   UNL     1       7.057   4.052  23.524  0.00  0.00    -0.010 A 
ATOM     13  C   UNL     1       7.941   5.023  23.036  0.00  0.00    +0.007 A 
ATOM     14  C   UNL     1       8.826   5.679  23.901  0.00  0.00    +0.000 A 
ATOM     15  C   UNL     1       8.832   5.368  25.259  0.00  0.00    +0.000 A 
ATOM     16  C   UNL     1       7.956   4.404  25.755  0.00  0.00    +0.000 A 
ATOM     17  C   UNL     1       7.071   3.749  24.894  0.00  0.00    +0.007 A 
ENDBRANCH  11  12
ENDBRANCH  10  11
ENDBRANCH   8  10
ENDBRANCH   5   6
BRANCH   5  18
ATOM     18  C   UNL     1      10.564   0.753  23.735  0.00  0.00    +0.015 C 
ATOM     19  C   UNL     1      10.538   0.362  25.222  0.00  0.00    +0.010 C 
ATOM     20  C   UNL     1      10.478   2.271  23.613  0.00  0.00    +0.010 C 
ENDBRANCH   5  18
ENDBRANCH   1   5
BRANCH   1  21
ATOM     21  O   UNL     1       9.368  -3.480  23.560  0.00  0.00    -0.287 OA
BRANCH  21  22
ATOM     22  C   UNL     1       8.539  -3.924  24.656  0.00  0.00    +0.266 C 
BRANCH  22  23
ATOM     23  C   UNL     1       7.331  -4.738  24.210  0.00  0.00    -0.007 A 
ATOM     24  C   UNL     1       7.169  -5.227  22.914  0.00  0.00    +0.007 A 
ATOM     25  C   UNL     1       6.073  -6.035  22.606  0.00  0.00    +0.001 A 
ATOM     26  C   UNL     1       5.140  -6.374  23.591  0.00  0.00    +0.005 A 
ATOM     27  C   UNL     1       5.273  -5.891  24.896  0.00  0.00    -0.033 A 
ATOM     28  C   UNL     1       6.351  -5.048  25.182  0.00  0.00    +0.011 A 
BRANCH  27  29
ATOM     29  C   UNL     1       4.344  -6.323  26.001  0.00  0.00    +0.113 C 
BRANCH  29  30
ATOM     30  N   UNL     1       5.014  -7.147  27.000  0.00  0.00    -0.326 NA
ATOM     31  H   UNL     1       6.006  -6.920  26.993  0.00  0.00    +0.119 HD
ATOM     32  H   UNL     1       4.667  -6.880  27.921  0.00  0.00    +0.119 HD
ENDBRANCH  29  30
ENDBRANCH  27  29
ENDBRANCH  22  23
BRANCH  22  33
ATOM     33  C   UNL     1       9.297  -4.770  25.716  0.00  0.00    +0.339 C 
ATOM     34  O   UNL     1       9.231  -4.602  26.926  0.00  0.00    -0.248 OA
BRANCH  33  35
ATOM     35  O   UNL     1      10.058  -5.763  25.186  0.00  0.00    -0.479 OA
ATOM     36  H   UNL     1      11.009  -5.546  25.319  0.00  0.00    +0.295 HD
ENDBRANCH  33  35
ENDBRANCH  22  33
ENDBRANCH  21  22
ENDBRANCH   1  21
TORSDOF 14
ENDMDL
MODEL 5
REMARK VINA RESULT:      -6.7      1.071      1.710
REMARK  Name = 
REMARK  16 active torsions:
REMARK  status: ('A' for Active; 'I' for Inactive)
REMARK    1  A    between atoms: C_2  and  N_3
REMARK    2  A    between atoms: C_2  and  C_14
REMARK    3  A    between atoms: C_2  and  P_17
REMARK    4  A    between atoms: C_4  and  O_6
REMARK    5  A    between atoms: O_6  and  C_7
REMARK    6  A    between atoms: C_7  and  C_8
REMARK    7  A    between atoms: C_14  and  C_15
REMARK    8  A    between atoms: C_14  and  C_16
REMARK    9  A    between atoms: P_17  and  O_18
REMARK   10  A    between atoms: P_17  and  O_20
REMARK   11  A    between atoms: O_20  and  C_21
REMARK   12  A    between atoms: C_21  and  C_23
REMARK   13  A    between atoms: C_21  and  C_26
REMARK   14  A    between atoms: C_23  and  O_24
REMARK   15  A    between atoms: C_28  and  C_29
REMARK   16  A    between atoms: C_29  and  N_30
REMARK                            x       y       z     vdW  Elec       q    Type
REMARK                         _______ _______ _______ _____ _____    ______ ____
ROOT
ATOM      1  P   UNL     1       8.346  -2.349  23.134  0.00  0.00    +0.352 P 
ATOM      2  O   UNL     1       9.517  -3.258  23.519  0.00  0.00    -0.257 OA
ENDROOT
BRANCH   1   3
ATOM      3  O   UNL     1       8.838  -1.509  21.819  0.00  0.00    -0.323 OA
ATOM      4  H   UNL     1       8.475  -0.595  21.824  0.00  0.00    +0.220 HD
ENDBRANCH   1   3
BRANCH   1   5
ATOM      5  C   UNL     1       9.047  -1.097  24.271  0.00  0.00    +0.193 C 
BRANCH   5   6
ATOM      6  N   UNL     1       9.325   0.211  23.591  0.00  0.00    -0.267 N 
ATOM      7  H   UNL     1       8.628   0.608  22.971  0.00  0.00    +0.153 HD
ATOM      8  C   UNL     1      10.389   1.023  23.895  0.00  0.00    +0.401 C 
ATOM      9  O   UNL     1      11.237   0.771  24.741  0.00  0.00    -0.226 OA
BRANCH   8  10
ATOM     10  O   UNL     1      10.385   2.129  23.111  0.00  0.00    -0.446 OA
BRANCH  10  11
ATOM     11  C   UNL     1      10.365   3.382  23.817  0.00  0.00    +0.269 C 
BRANCH  11  12
ATOM     12  C   UNL     1       9.195   4.214  23.346  0.00  0.00    -0.010 A 
ATOM     13  C   UNL     1       9.204   5.604  23.523  0.00  0.00    +0.007 A 
ATOM     14  C   UNL     1       8.119   6.382  23.101  0.00  0.00    +0.000 A 
ATOM     15  C   UNL     1       7.019   5.776  22.498  0.00  0.00    +0.000 A 
ATOM     16  C   UNL     1       7.000   4.394  22.316  0.00  0.00    +0.000 A 
ATOM     17  C   UNL     1       8.083   3.615  22.736  0.00  0.00    +0.007 A 
ENDBRANCH  11  12
ENDBRANCH  10  11
ENDBRANCH   8  10
ENDBRANCH   5   6
BRANCH   5  18
ATOM     18  C   UNL     1       8.148  -0.865  25.531  0.00  0.00    +0.015 C 
ATOM     19  C   UNL     1       8.250  -2.021  26.540  0.00  0.00    +0.010 C 
ATOM     20  C   UNL     1       6.683  -0.637  25.174  0.00  0.00    +0.010 C 
ENDBRANCH   5  18
ENDBRANCH   1   5
BRANCH   1  21
ATOM     21  O   UNL     1       7.684  -3.532  22.060  0.00  0.00    -0.287 OA
BRANCH  21  22
ATOM     22  C   UNL     1       7.114  -4.717  22.657  0.00  0.00    +0.266 C 
BRANCH  22  23
ATOM     23  C   UNL     1       6.225  -4.422  23.858  0.00  0.00    -0.007 A 
ATOM     24  C   UNL     1       5.032  -3.704  23.774  0.00  0.00    +0.007 A 
ATOM     25  C   UNL     1       4.232  -3.547  24.908  0.00  0.00    +0.001 A 
ATOM     26  C   UNL     1       4.607  -4.118  26.128  0.00  0.00    +0.005 A 
ATOM     27  C   UNL     1       5.802  -4.834  26.243  0.00  0.00    -0.033 A 
ATOM     28  C   UNL     1       6.615  -4.948  25.111  0.00  0.00    +0.011 A 
BRANCH  27  29
ATOM     29  C   UNL     1       6.180  -5.548  27.515  0.00  0.00    +0.113 C 
BRANCH  29  30
ATOM     30  N   UNL     1       7.613  -5.802  27.605  0.00  0.00    -0.326 NA
ATOM     31  H   UNL     1       7.768  -6.806  27.545  0.00  0.00    +0.119 HD
ATOM     32  H   UNL     1       8.063  -5.394  26.786  0.00  0.00    +0.119 HD
ENDBRANCH  29  30
ENDBRANCH  27  29
ENDBRANCH  22  23
BRANCH  22  33
ATOM     33  C   UNL     1       6.282  -5.581  21.670  0.00  0.00    +0.339 C 
ATOM     34  O   UNL     1       5.955  -5.240  20.542  0.00  0.00    -0.248 OA
BRANCH  33  35
ATOM     35  O   UNL     1       5.941  -6.801  22.161  0.00  0.00    -0.479 OA
ATOM     36  H   UNL     1       5.119  -7.109  21.715  0.00  0.00    +0.295 HD
ENDBRANCH  33  35
ENDBRANCH  22  33
ENDBRANCH  21  22
ENDBRANCH   1  21
TORSDOF 14
ENDMDL
MODEL 6
REMARK VINA RESULT:      -6.7      2.521      8.930
REMARK  Name = 
REMARK  16 active torsions:
REMARK  status: ('A' for Active; 'I' for Inactive)
REMARK    1  A    between atoms: C_2  and  N_3
REMARK    2  A    between atoms: C_2  and  C_14
REMARK    3  A    between atoms: C_2  and  P_17
REMARK    4  A    between atoms: C_4  and  O_6
REMARK    5  A    between atoms: O_6  and  C_7
REMARK    6  A    between atoms: C_7  and  C_8
REMARK    7  A    between atoms: C_14  and  C_15
REMARK    8  A    between atoms: C_14  and  C_16
REMARK    9  A    between atoms: P_17  and  O_18
REMARK   10  A    between atoms: P_17  and  O_20
REMARK   11  A    between atoms: O_20  and  C_21
REMARK   12  A    between atoms: C_21  and  C_23
REMARK   13  A    between atoms: C_21  and  C_26
REMARK   14  A    between atoms: C_23  and  O_24
REMARK   15  A    between atoms: C_28  and  C_29
REMARK   16  A    between atoms: C_29  and  N_30
REMARK                            x       y       z     vdW  Elec       q    Type
REMARK                         _______ _______ _______ _____ _____    ______ ____
ROOT
ATOM      1  P   UNL     1       9.040   0.290  24.791  0.00  0.00    +0.352 P 
ATOM      2  O   UNL     1      10.509  -0.144  24.803  0.00  0.00    -0.257 OA
ENDROOT
BRANCH   1   3
ATOM      3  O   UNL     1       8.672   0.684  26.335  0.00  0.00    -0.323 OA
ATOM      4  H   UNL     1       7.714   0.884  26.433  0.00  0.00    +0.220 HD
ENDBRANCH   1   3
BRANCH   1   5
ATOM      5  C   UNL     1       8.601  -1.464  25.069  0.00  0.00    +0.193 C 
BRANCH   5   6
ATOM      6  N   UNL     1       7.134  -1.728  24.895  0.00  0.00    -0.267 N 
ATOM      7  H   UNL     1       6.698  -1.545  23.997  0.00  0.00    +0.153 HD
ATOM      8  C   UNL     1       6.359  -2.393  25.813  0.00  0.00    +0.401 C 
ATOM      9  O   UNL     1       6.767  -2.831  26.880  0.00  0.00    -0.226 OA
BRANCH   8  10
ATOM     10  O   UNL     1       5.075  -2.471  25.386  0.00  0.00    -0.446 OA
BRANCH  10  11
ATOM     11  C   UNL     1       4.619  -3.793  25.048  0.00  0.00    +0.269 C 
BRANCH  11  12
ATOM     12  C   UNL     1       5.340  -4.280  23.812  0.00  0.00    -0.010 A 
ATOM     13  C   UNL     1       5.232  -3.570  22.609  0.00  0.00    +0.007 A 
ATOM     14  C   UNL     1       5.887  -4.020  21.456  0.00  0.00    +0.000 A 
ATOM     15  C   UNL     1       6.654  -5.182  21.499  0.00  0.00    +0.000 A 
ATOM     16  C   UNL     1       6.768  -5.896  22.690  0.00  0.00    +0.000 A 
ATOM     17  C   UNL     1       6.116  -5.448  23.843  0.00  0.00    +0.007 A 
ENDBRANCH  11  12
ENDBRANCH  10  11
ENDBRANCH   8  10
ENDBRANCH   5   6
BRANCH   5  18
ATOM     18  C   UNL     1       9.431  -2.438  24.168  0.00  0.00    +0.015 C 
ATOM     19  C   UNL     1       8.946  -2.438  22.709  0.00  0.00    +0.010 C 
ATOM     20  C   UNL     1       9.434  -3.869  24.698  0.00  0.00    +0.010 C 
ENDBRANCH   5  18
ENDBRANCH   1   5
BRANCH   1  21
ATOM     21  O   UNL     1       9.455   1.949  24.528  0.00  0.00    -0.287 OA
BRANCH  21  22
ATOM     22  C   UNL     1       8.643   2.690  23.591  0.00  0.00    +0.266 C 
BRANCH  22  23
ATOM     23  C   UNL     1       8.900   4.191  23.623  0.00  0.00    -0.007 A 
ATOM     24  C   UNL     1       7.901   5.146  23.430  0.00  0.00    +0.007 A 
ATOM     25  C   UNL     1       8.202   6.503  23.557  0.00  0.00    +0.001 A 
ATOM     26  C   UNL     1       9.495   6.918  23.892  0.00  0.00    +0.005 A 
ATOM     27  C   UNL     1      10.516   5.983  24.081  0.00  0.00    -0.033 A 
ATOM     28  C   UNL     1      10.213   4.629  23.910  0.00  0.00    +0.011 A 
BRANCH  27  29
ATOM     29  C   UNL     1      11.891   6.393  24.545  0.00  0.00    +0.113 C 
BRANCH  29  30
ATOM     30  N   UNL     1      12.947   5.621  23.902  0.00  0.00    -0.326 NA
ATOM     31  H   UNL     1      13.807   5.744  24.432  0.00  0.00    +0.119 HD
ATOM     32  H   UNL     1      12.709   4.631  23.970  0.00  0.00    +0.119 HD
ENDBRANCH  29  30
ENDBRANCH  27  29
ENDBRANCH  22  23
BRANCH  22  33
ATOM     33  C   UNL     1       8.802   2.227  22.117  0.00  0.00    +0.339 C 
ATOM     34  O   UNL     1       7.878   1.944  21.367  0.00  0.00    -0.248 OA
BRANCH  33  35
ATOM     35  O   UNL     1      10.092   2.172  21.693  0.00  0.00    -0.479 OA
ATOM     36  H   UNL     1      10.170   2.655  20.839  0.00  0.00    +0.295 HD
ENDBRANCH  33  35
ENDBRANCH  22  33
ENDBRANCH  21  22
ENDBRANCH   1  21
TORSDOF 14
ENDMDL
MODEL 7
REMARK VINA RESULT:      -6.6      2.294      3.135
REMARK  Name = 
REMARK  16 active torsions:
REMARK  status: ('A' for Active; 'I' for Inactive)
REMARK    1  A    between atoms: C_2  and  N_3
REMARK    2  A    between atoms: C_2  and  C_14
REMARK    3  A    between atoms: C_2  and  P_17
REMARK    4  A    between atoms: C_4  and  O_6
REMARK    5  A    between atoms: O_6  and  C_7
REMARK    6  A    between atoms: C_7  and  C_8
REMARK    7  A    between atoms: C_14  and  C_15
REMARK    8  A    between atoms: C_14  and  C_16
REMARK    9  A    between atoms: P_17  and  O_18
REMARK   10  A    between atoms: P_17  and  O_20
REMARK   11  A    between atoms: O_20  and  C_21
REMARK   12  A    between atoms: C_21  and  C_23
REMARK   13  A    between atoms: C_21  and  C_26
REMARK   14  A    between atoms: C_23  and  O_24
REMARK   15  A    between atoms: C_28  and  C_29
REMARK   16  A    between atoms: C_29  and  N_30
REMARK                            x       y       z     vdW  Elec       q    Type
REMARK                         _______ _______ _______ _____ _____    ______ ____
ROOT
ATOM      1  P   UNL     1       8.569  -1.971  23.511  0.00  0.00    +0.352 P 
ATOM      2  O   UNL     1      10.006  -2.350  23.142  0.00  0.00    -0.257 OA
ENDROOT
BRANCH   1   3
ATOM      3  O   UNL     1       7.751  -1.869  22.098  0.00  0.00    -0.323 OA
ATOM      4  H   UNL     1       8.152  -1.197  21.502  0.00  0.00    +0.220 HD
ENDBRANCH   1   3
BRANCH   1   5
ATOM      5  C   UNL     1       9.088  -0.220  23.408  0.00  0.00    +0.193 C 
BRANCH   5   6
ATOM      6  N   UNL     1       8.027   0.665  22.821  0.00  0.00    -0.267 N 
ATOM      7  H   UNL     1       7.094   0.654  23.218  0.00  0.00    +0.153 HD
ATOM      8  C   UNL     1       8.273   1.648  21.895  0.00  0.00    +0.401 C 
ATOM      9  O   UNL     1       9.376   1.906  21.431  0.00  0.00    -0.226 OA
BRANCH   8  10
ATOM     10  O   UNL     1       7.122   2.272  21.545  0.00  0.00    -0.446 OA
BRANCH  10  11
ATOM     11  C   UNL     1       6.444   2.955  22.614  0.00  0.00    +0.269 C 
BRANCH  11  12
ATOM     12  C   UNL     1       7.210   4.204  22.987  0.00  0.00    -0.010 A 
ATOM     13  C   UNL     1       7.914   4.260  24.197  0.00  0.00    +0.007 A 
ATOM     14  C   UNL     1       8.617   5.417  24.558  0.00  0.00    +0.000 A 
ATOM     15  C   UNL     1       8.621   6.522  23.711  0.00  0.00    +0.000 A 
ATOM     16  C   UNL     1       7.924   6.476  22.505  0.00  0.00    +0.000 A 
ATOM     17  C   UNL     1       7.223   5.323  22.142  0.00  0.00    +0.007 A 
ENDBRANCH  11  12
ENDBRANCH  10  11
ENDBRANCH   8  10
ENDBRANCH   5   6
BRANCH   5  18
ATOM     18  C   UNL     1       9.553   0.348  24.790  0.00  0.00    +0.015 C 
ATOM     19  C   UNL     1      11.069   0.602  24.835  0.00  0.00    +0.010 C 
ATOM     20  C   UNL     1       9.160  -0.552  25.957  0.00  0.00    +0.010 C 
ENDBRANCH   5  18
ENDBRANCH   1   5
BRANCH   1  21
ATOM     21  O   UNL     1       8.078  -3.628  23.608  0.00  0.00    -0.287 OA
BRANCH  21  22
ATOM     22  C   UNL     1       7.809  -4.158  24.924  0.00  0.00    +0.266 C 
BRANCH  22  23
ATOM     23  C   UNL     1       6.594  -5.076  24.970  0.00  0.00    -0.007 A 
ATOM     24  C   UNL     1       6.013  -5.640  23.834  0.00  0.00    +0.007 A 
ATOM     25  C   UNL     1       4.953  -6.538  23.968  0.00  0.00    +0.001 A 
ATOM     26  C   UNL     1       4.474  -6.892  25.233  0.00  0.00    +0.005 A 
ATOM     27  C   UNL     1       5.032  -6.335  26.387  0.00  0.00    -0.033 A 
ATOM     28  C   UNL     1       6.065  -5.405  26.240  0.00  0.00    +0.011 A 
BRANCH  27  29
ATOM     29  C   UNL     1       4.609  -6.775  27.765  0.00  0.00    +0.113 C 
BRANCH  29  30
ATOM     30  N   UNL     1       5.657  -7.514  28.459  0.00  0.00    -0.326 NA
ATOM     31  H   UNL     1       5.371  -7.650  29.426  0.00  0.00    +0.119 HD
ATOM     32  H   UNL     1       5.720  -8.445  28.046  0.00  0.00    +0.119 HD
ENDBRANCH  29  30
ENDBRANCH  27  29
ENDBRANCH  22  23
BRANCH  22  33
ATOM     33  C   UNL     1       9.000  -4.940  25.543  0.00  0.00    +0.339 C 
ATOM     34  O   UNL     1       9.413  -4.800  26.686  0.00  0.00    -0.248 OA
BRANCH  33  35
ATOM     35  O   UNL     1       9.566  -5.841  24.698  0.00  0.00    -0.479 OA
ATOM     36  H   UNL     1       8.911  -6.088  24.006  0.00  0.00    +0.295 HD
ENDBRANCH  33  35
ENDBRANCH  22  33
ENDBRANCH  21  22
ENDBRANCH   1  21
TORSDOF 14
ENDMDL
MODEL 8
REMARK VINA RESULT:      -6.5      2.585      3.817
REMARK  Name = 
REMARK  16 active torsions:
REMARK  status: ('A' for Active; 'I' for Inactive)
REMARK    1  A    between atoms: C_2  and  N_3
REMARK    2  A    between atoms: C_2  and  C_14
REMARK    3  A    between atoms: C_2  and  P_17
REMARK    4  A    between atoms: C_4  and  O_6
REMARK    5  A    between atoms: O_6  and  C_7
REMARK    6  A    between atoms: C_7  and  C_8
REMARK    7  A    between atoms: C_14  and  C_15
REMARK    8  A    between atoms: C_14  and  C_16
REMARK    9  A    between atoms: P_17  and  O_18
REMARK   10  A    between atoms: P_17  and  O_20
REMARK   11  A    between atoms: O_20  and  C_21
REMARK   12  A    between atoms: C_21  and  C_23
REMARK   13  A    between atoms: C_21  and  C_26
REMARK   14  A    between atoms: C_23  and  O_24
REMARK   15  A    between atoms: C_28  and  C_29
REMARK   16  A    between atoms: C_29  and  N_30
REMARK                            x       y       z     vdW  Elec       q    Type
REMARK                         _______ _______ _______ _____ _____    ______ ____
ROOT
ATOM      1  P   UNL     1       9.132  -1.844  23.510  0.00  0.00    +0.352 P 
ATOM      2  O   UNL     1       8.618  -2.191  22.109  0.00  0.00    -0.257 OA
ENDROOT
BRANCH   1   3
ATOM      3  O   UNL     1       7.813  -1.795  24.477  0.00  0.00    -0.323 OA
ATOM      4  H   UNL     1       7.488  -0.874  24.590  0.00  0.00    +0.220 HD
ENDBRANCH   1   3
BRANCH   1   5
ATOM      5  C   UNL     1       8.940  -0.081  23.057  0.00  0.00    +0.193 C 
BRANCH   5   6
ATOM      6  N   UNL     1       8.025   0.659  23.988  0.00  0.00    -0.267 N 
ATOM      7  H   UNL     1       8.258   0.718  24.973  0.00  0.00    +0.153 HD
ATOM      8  C   UNL     1       6.976   1.442  23.573  0.00  0.00    +0.401 C 
ATOM      9  O   UNL     1       6.658   1.615  22.404  0.00  0.00    -0.226 OA
BRANCH   8  10
ATOM     10  O   UNL     1       6.327   1.974  24.638  0.00  0.00    -0.446 OA
BRANCH  10  11
ATOM     11  C   UNL     1       7.138   2.773  25.516  0.00  0.00    +0.269 C 
BRANCH  11  12
ATOM     12  C   UNL     1       7.626   4.001  24.782  0.00  0.00    -0.010 A 
ATOM     13  C   UNL     1       6.706   4.898  24.223  0.00  0.00    +0.007 A 
ATOM     14  C   UNL     1       7.148   6.032  23.531  0.00  0.00    +0.000 A 
ATOM     15  C   UNL     1       8.512   6.278  23.394  0.00  0.00    +0.000 A 
ATOM     16  C   UNL     1       9.436   5.392  23.947  0.00  0.00    +0.000 A 
ATOM     17  C   UNL     1       8.997   4.260  24.639  0.00  0.00    +0.007 A 
ENDBRANCH  11  12
ENDBRANCH  10  11
ENDBRANCH   8  10
ENDBRANCH   5   6
BRANCH   5  18
ATOM     18  C   UNL     1      10.313   0.662  22.953  0.00  0.00    +0.015 C 
ATOM     19  C   UNL     1      10.886   1.024  24.333  0.00  0.00    +0.010 C 
ATOM     20  C   UNL     1      10.236   1.921  22.094  0.00  0.00    +0.010 C 
ENDBRANCH   5  18
ENDBRANCH   1   5
BRANCH   1  21
ATOM     21  O   UNL     1       9.313  -3.510  23.938  0.00  0.00    -0.287 OA
BRANCH  21  22
ATOM     22  C   UNL     1       8.274  -4.096  24.751  0.00  0.00    +0.266 C 
BRANCH  22  23
ATOM     23  C   UNL     1       7.282  -4.934  23.953  0.00  0.00    -0.007 A 
ATOM     24  C   UNL     1       7.502  -5.341  22.637  0.00  0.00    +0.007 A 
ATOM     25  C   UNL     1       6.581  -6.177  22.004  0.00  0.00    +0.001 A 
ATOM     26  C   UNL     1       5.444  -6.627  22.682  0.00  0.00    +0.005 A 
ATOM     27  C   UNL     1       5.194  -6.228  23.998  0.00  0.00    -0.033 A 
ATOM     28  C   UNL     1       6.101  -5.357  24.608  0.00  0.00    +0.011 A 
BRANCH  27  29
ATOM     29  C   UNL     1       4.034  -6.779  24.788  0.00  0.00    +0.113 C 
BRANCH  29  30
ATOM     30  N   UNL     1       3.319  -7.825  24.068  0.00  0.00    -0.326 NA
ATOM     31  H   UNL     1       2.653  -8.258  24.704  0.00  0.00    +0.119 HD
ATOM     32  H   UNL     1       2.766  -7.387  23.331  0.00  0.00    +0.119 HD
ENDBRANCH  29  30
ENDBRANCH  27  29
ENDBRANCH  22  23
BRANCH  22  33
ATOM     33  C   UNL     1       8.806  -4.989  25.906  0.00  0.00    +0.339 C 
ATOM     34  O   UNL     1       8.469  -4.894  27.078  0.00  0.00    -0.248 OA
BRANCH  33  35
ATOM     35  O   UNL     1       9.695  -5.935  25.505  0.00  0.00    -0.479 OA
ATOM     36  H   UNL     1       9.245  -6.809  25.477  0.00  0.00    +0.295 HD
ENDBRANCH  33  35
ENDBRANCH  22  33
ENDBRANCH  21  22
ENDBRANCH   1  21
TORSDOF 14
ENDMDL
MODEL 9
REMARK VINA RESULT:      -6.4      1.939      2.520
REMARK  Name = 
REMARK  16 active torsions:
REMARK  status: ('A' for Active; 'I' for Inactive)
REMARK    1  A    between atoms: C_2  and  N_3
REMARK    2  A    between atoms: C_2  and  C_14
REMARK    3  A    between atoms: C_2  and  P_17
REMARK    4  A    between atoms: C_4  and  O_6
REMARK    5  A    between atoms: O_6  and  C_7
REMARK    6  A    between atoms: C_7  and  C_8
REMARK    7  A    between atoms: C_14  and  C_15
REMARK    8  A    between atoms: C_14  and  C_16
REMARK    9  A    between atoms: P_17  and  O_18
REMARK   10  A    between atoms: P_17  and  O_20
REMARK   11  A    between atoms: O_20  and  C_21
REMARK   12  A    between atoms: C_21  and  C_23
REMARK   13  A    between atoms: C_21  and  C_26
REMARK   14  A    between atoms: C_23  and  O_24
REMARK   15  A    between atoms: C_28  and  C_29
REMARK   16  A    between atoms: C_29  and  N_30
REMARK                            x       y       z     vdW  Elec       q    Type
REMARK                         _______ _______ _______ _____ _____    ______ ____
ROOT
ATOM      1  P   UNL     1       7.167  -2.022  23.443  0.00  0.00    +0.352 P 
ATOM      2  O   UNL     1       7.840  -2.441  22.132  0.00  0.00    -0.257 OA
ENDROOT
BRANCH   1   3
ATOM      3  O   UNL     1       6.016  -0.934  23.033  0.00  0.00    -0.323 OA
ATOM      4  H   UNL     1       6.348  -0.013  23.123  0.00  0.00    +0.220 HD
ENDBRANCH   1   3
BRANCH   1   5
ATOM      5  C   UNL     1       8.438  -0.714  23.586  0.00  0.00    +0.193 C 
BRANCH   5   6
ATOM      6  N   UNL     1       8.031   0.565  22.917  0.00  0.00    -0.267 N 
ATOM      7  H   UNL     1       7.451   1.228  23.420  0.00  0.00    +0.153 HD
ATOM      8  C   UNL     1       8.548   1.006  21.724  0.00  0.00    +0.401 C 
ATOM      9  O   UNL     1       9.385   0.405  21.064  0.00  0.00    -0.226 OA
BRANCH   8  10
ATOM     10  O   UNL     1       7.983   2.185  21.365  0.00  0.00    -0.446 OA
BRANCH  10  11
ATOM     11  C   UNL     1       7.183   2.816  22.381  0.00  0.00    +0.269 C 
BRANCH  11  12
ATOM     12  C   UNL     1       7.818   4.124  22.791  0.00  0.00    -0.010 A 
ATOM     13  C   UNL     1       7.342   5.333  22.265  0.00  0.00    +0.007 A 
ATOM     14  C   UNL     1       7.933   6.549  22.631  0.00  0.00    +0.000 A 
ATOM     15  C   UNL     1       9.001   6.565  23.524  0.00  0.00    +0.000 A 
ATOM     16  C   UNL     1       9.482   5.369  24.053  0.00  0.00    +0.000 A 
ATOM     17  C   UNL     1       8.894   4.153  23.691  0.00  0.00    +0.007 A 
ENDBRANCH  11  12
ENDBRANCH  10  11
ENDBRANCH   8  10
ENDBRANCH   5   6
BRANCH   5  18
ATOM     18  C   UNL     1       8.844  -0.435  25.072  0.00  0.00    +0.015 C 
ATOM     19  C   UNL     1      10.262   0.146  25.189  0.00  0.00    +0.010 C 
ATOM     20  C   UNL     1       8.734  -1.676  25.953  0.00  0.00    +0.010 C 
ENDBRANCH   5  18
ENDBRANCH   1   5
BRANCH   1  21
ATOM     21  O   UNL     1       5.964  -3.259  23.307  0.00  0.00    -0.287 OA
BRANCH  21  22
ATOM     22  C   UNL     1       6.413  -4.627  23.415  0.00  0.00    +0.266 C 
BRANCH  22  23
ATOM     23  C   UNL     1       5.572  -5.467  24.368  0.00  0.00    -0.007 A 
ATOM     24  C   UNL     1       4.533  -6.298  23.947  0.00  0.00    +0.007 A 
ATOM     25  C   UNL     1       3.864  -7.099  24.874  0.00  0.00    +0.001 A 
ATOM     26  C   UNL     1       4.236  -7.090  26.222  0.00  0.00    +0.005 A 
ATOM     27  C   UNL     1       5.267  -6.261  26.672  0.00  0.00    -0.033 A 
ATOM     28  C   UNL     1       5.901  -5.432  25.742  0.00  0.00    +0.011 A 
BRANCH  27  29
ATOM     29  C   UNL     1       5.758  -6.307  28.096  0.00  0.00    +0.113 C 
BRANCH  29  30
ATOM     30  N   UNL     1       7.210  -6.215  28.186  0.00  0.00    -0.326 NA
ATOM     31  H   UNL     1       7.510  -5.359  27.726  0.00  0.00    +0.119 HD
ATOM     32  H   UNL     1       7.465  -6.115  29.168  0.00  0.00    +0.119 HD
ENDBRANCH  29  30
ENDBRANCH  27  29
ENDBRANCH  22  23
BRANCH  22  33
ATOM     33  C   UNL     1       6.463  -5.382  22.058  0.00  0.00    +0.339 C 
ATOM     34  O   UNL     1       7.032  -6.448  21.868  0.00  0.00    -0.248 OA
BRANCH  33  35
ATOM     35  O   UNL     1       5.787  -4.759  21.057  0.00  0.00    -0.479 OA
ATOM     36  H   UNL     1       6.224  -4.963  20.199  0.00  0.00    +0.295 HD
ENDBRANCH  33  35
ENDBRANCH  22  33
ENDBRANCH  21  22
ENDBRANCH   1  21
TORSDOF 14
ENDMDL
