MODEL 1
REMARK VINA RESULT:      -5.0      0.000      0.000
REMARK  Name = 
REMARK  8 active torsions:
REMARK  status: ('A' for Active; 'I' for Inactive)
REMARK    1  A    between atoms: O_1  and  C_2
REMARK    2  A    between atoms: C_5  and  C_7
REMARK    3  A    between atoms: C_7  and  O_8
REMARK    4  A    between atoms: O_8  and  P_9
REMARK    5  A    between atoms: P_9  and  O_10
REMARK    6  A    between atoms: P_9  and  O_11
REMARK    7  A    between atoms: C_13  and  O_15
REMARK    8  A    between atoms: C_16  and  O_18
REMARK                            x       y       z     vdW  Elec       q    Type
REMARK                         _______ _______ _______ _____ _____    ______ ____
ROOT
ATOM      1  C   UNL     1       9.010  -5.138  25.303  0.00  0.00    +0.279 C 
ATOM      2  C   UNL     1       7.713  -5.237  26.116  0.00  0.00    +0.201 C 
ATOM      3  C   UNL     1       6.611  -4.908  25.112  0.00  0.00    +0.179 C 
ATOM      4  C   UNL     1       7.351  -4.494  23.838  0.00  0.00    +0.179 C 
ATOM      5  O   UNL     1       8.646  -5.125  23.929  0.00  0.00    -0.341 OA
ENDROOT
BRANCH   1   6
ATOM      6  O   UNL     1       9.846  -6.254  25.542  0.00  0.00    -0.365 OA
ATOM      7  H   UNL     1      10.672  -5.879  25.892  0.00  0.00    +0.213 HD
ENDBRANCH   1   6
BRANCH   2   8
ATOM      8  O   UNL     1       7.709  -4.287  27.187  0.00  0.00    -0.384 OA
ATOM      9  H   UNL     1       7.869  -4.798  28.003  0.00  0.00    +0.210 HD
ENDBRANCH   2   8
BRANCH   3  10
ATOM     10  O   UNL     1       5.821  -6.081  24.878  0.00  0.00    -0.386 OA
ATOM     11  H   UNL     1       5.079  -6.074  25.513  0.00  0.00    +0.210 HD
ENDBRANCH   3  10
BRANCH   4  12
ATOM     12  C   UNL     1       7.519  -2.973  23.738  0.00  0.00    +0.206 C 
BRANCH  12  13
ATOM     13  O   UNL     1       8.371  -2.675  22.633  0.00  0.00    -0.284 OA
BRANCH  13  14
ATOM     14  P   UNL     1       9.555  -1.458  22.959  0.00  0.00    +0.472 P 
ATOM     15  O   UNL     1      10.616  -0.369  23.252  0.00  0.00    -0.228 OA
BRANCH  14  16
ATOM     16  O   UNL     1      10.020  -1.600  21.398  0.00  0.00    -0.303 OA
ATOM     17  H   UNL     1      10.997  -1.633  21.429  0.00  0.00    +0.222 HD
ENDBRANCH  14  16
BRANCH  14  18
ATOM     18  O   UNL     1      10.471  -2.697  23.512  0.00  0.00    -0.303 OA
ATOM     19  H   UNL     1      10.196  -3.545  23.124  0.00  0.00    +0.222 HD
ENDBRANCH  14  18
ENDBRANCH  13  14
ENDBRANCH  12  13
ENDBRANCH   4  12
TORSDOF 8
ENDMDL
MODEL 2
REMARK VINA RESULT:      -5.0      2.681      5.577
REMARK  Name = 
REMARK  8 active torsions:
REMARK  status: ('A' for Active; 'I' for Inactive)
REMARK    1  A    between atoms: O_1  and  C_2
REMARK    2  A    between atoms: C_5  and  C_7
REMARK    3  A    between atoms: C_7  and  O_8
REMARK    4  A    between atoms: O_8  and  P_9
REMARK    5  A    between atoms: P_9  and  O_10
REMARK    6  A    between atoms: P_9  and  O_11
REMARK    7  A    between atoms: C_13  and  O_15
REMARK    8  A    between atoms: C_16  and  O_18
REMARK                            x       y       z     vdW  Elec       q    Type
REMARK                         _______ _______ _______ _____ _____    ______ ____
ROOT
ATOM      1  C   UNL     1       9.101   0.055  22.264  0.00  0.00    +0.279 C 
ATOM      2  C   UNL     1       8.725   0.631  23.635  0.00  0.00    +0.201 C 
ATOM      3  C   UNL     1       9.483  -0.240  24.633  0.00  0.00    +0.179 C 
ATOM      4  C   UNL     1      10.116  -1.347  23.786  0.00  0.00    +0.179 C 
ATOM      5  O   UNL     1      10.225  -0.793  22.458  0.00  0.00    -0.341 OA
ENDROOT
BRANCH   1   6
ATOM      6  O   UNL     1       9.456   1.083  21.361  0.00  0.00    -0.365 OA
ATOM      7  H   UNL     1       9.863   1.773  21.912  0.00  0.00    +0.213 HD
ENDBRANCH   1   6
BRANCH   2   8
ATOM      8  O   UNL     1       7.314   0.532  23.861  0.00  0.00    -0.384 OA
ATOM      9  H   UNL     1       6.900   1.206  23.289  0.00  0.00    +0.210 HD
ENDBRANCH   2   8
BRANCH   3  10
ATOM     10  O   UNL     1      10.496   0.548  25.273  0.00  0.00    -0.386 OA
ATOM     11  H   UNL     1      11.175  -0.062  25.618  0.00  0.00    +0.210 HD
ENDBRANCH   3  10
BRANCH   4  12
ATOM     12  C   UNL     1       9.253  -2.613  23.754  0.00  0.00    +0.206 C 
BRANCH  12  13
ATOM     13  O   UNL     1       9.976  -3.680  24.364  0.00  0.00    -0.284 OA
BRANCH  13  14
ATOM     14  P   UNL     1       9.003  -4.744  25.318  0.00  0.00    +0.472 P 
ATOM     15  O   UNL     1       8.130  -5.697  26.172  0.00  0.00    -0.228 OA
BRANCH  14  16
ATOM     16  O   UNL     1      10.363  -5.601  25.615  0.00  0.00    -0.303 OA
ATOM     17  H   UNL     1      10.110  -6.533  25.468  0.00  0.00    +0.222 HD
ENDBRANCH  14  16
BRANCH  14  18
ATOM     18  O   UNL     1       8.659  -5.478  23.896  0.00  0.00    -0.303 OA
ATOM     19  H   UNL     1       7.751  -5.286  23.606  0.00  0.00    +0.222 HD
ENDBRANCH  14  18
ENDBRANCH  13  14
ENDBRANCH  12  13
ENDBRANCH   4  12
TORSDOF 8
ENDMDL
MODEL 3
REMARK VINA RESULT:      -5.0      3.263      5.724
REMARK  Name = 
REMARK  8 active torsions:
REMARK  status: ('A' for Active; 'I' for Inactive)
REMARK    1  A    between atoms: O_1  and  C_2
REMARK    2  A    between atoms: C_5  and  C_7
REMARK    3  A    between atoms: C_7  and  O_8
REMARK    4  A    between atoms: O_8  and  P_9
REMARK    5  A    between atoms: P_9  and  O_10
REMARK    6  A    between atoms: P_9  and  O_11
REMARK    7  A    between atoms: C_13  and  O_15
REMARK    8  A    between atoms: C_16  and  O_18
REMARK                            x       y       z     vdW  Elec       q    Type
REMARK                         _______ _______ _______ _____ _____    ______ ____
ROOT
ATOM      1  C   UNL     1       9.970   1.219  22.412  0.00  0.00    +0.279 C 
ATOM      2  C   UNL     1       8.886   0.465  21.630  0.00  0.00    +0.201 C 
ATOM      3  C   UNL     1       7.793   0.197  22.661  0.00  0.00    +0.179 C 
ATOM      4  C   UNL     1       8.382   0.672  23.991  0.00  0.00    +0.179 C 
ATOM      5  O   UNL     1       9.386   1.646  23.636  0.00  0.00    -0.341 OA
ENDROOT
BRANCH   1   6
ATOM      6  O   UNL     1      10.415   2.355  21.698  0.00  0.00    -0.365 OA
ATOM      7  H   UNL     1      10.637   2.025  20.811  0.00  0.00    +0.213 HD
ENDBRANCH   1   6
BRANCH   2   8
ATOM      8  O   UNL     1       9.395  -0.769  21.113  0.00  0.00    -0.384 OA
ATOM      9  H   UNL     1       9.773  -0.561  20.238  0.00  0.00    +0.210 HD
ENDBRANCH   2   8
BRANCH   3  10
ATOM     10  O   UNL     1       6.628   0.962  22.324  0.00  0.00    -0.386 OA
ATOM     11  H   UNL     1       6.487   1.620  23.031  0.00  0.00    +0.210 HD
ENDBRANCH   3  10
BRANCH   4  12
ATOM     12  C   UNL     1       9.026  -0.476  24.779  0.00  0.00    +0.206 C 
BRANCH  12  13
ATOM     13  O   UNL     1       8.278  -1.668  24.550  0.00  0.00    -0.284 OA
BRANCH  13  14
ATOM     14  P   UNL     1       9.228  -3.113  24.550  0.00  0.00    +0.472 P 
ATOM     15  O   UNL     1      10.080  -4.407  24.551  0.00  0.00    -0.228 OA
BRANCH  14  16
ATOM     16  O   UNL     1      10.228  -2.366  23.493  0.00  0.00    -0.303 OA
ATOM     17  H   UNL     1      10.881  -3.047  23.240  0.00  0.00    +0.222 HD
ENDBRANCH  14  16
BRANCH  14  18
ATOM     18  O   UNL     1       8.169  -3.643  23.421  0.00  0.00    -0.303 OA
ATOM     19  H   UNL     1       8.565  -3.642  22.533  0.00  0.00    +0.222 HD
ENDBRANCH  14  18
ENDBRANCH  13  14
ENDBRANCH  12  13
ENDBRANCH   4  12
TORSDOF 8
ENDMDL
MODEL 4
REMARK VINA RESULT:      -4.9      2.242      4.833
REMARK  Name = 
REMARK  8 active torsions:
REMARK  status: ('A' for Active; 'I' for Inactive)
REMARK    1  A    between atoms: O_1  and  C_2
REMARK    2  A    between atoms: C_5  and  C_7
REMARK    3  A    between atoms: C_7  and  O_8
REMARK    4  A    between atoms: O_8  and  P_9
REMARK    5  A    between atoms: P_9  and  O_10
REMARK    6  A    between atoms: P_9  and  O_11
REMARK    7  A    between atoms: C_13  and  O_15
REMARK    8  A    between atoms: C_16  and  O_18
REMARK                            x       y       z     vdW  Elec       q    Type
REMARK                         _______ _______ _______ _____ _____    ______ ____
ROOT
ATOM      1  C   UNL     1       7.052  -1.256  23.450  0.00  0.00    +0.279 C 
ATOM      2  C   UNL     1       8.568  -1.096  23.617  0.00  0.00    +0.201 C 
ATOM      3  C   UNL     1       9.163  -2.229  22.785  0.00  0.00    +0.179 C 
ATOM      4  C   UNL     1       7.958  -3.052  22.324  0.00  0.00    +0.179 C 
ATOM      5  O   UNL     1       6.841  -2.140  22.356  0.00  0.00    -0.341 OA
ENDROOT
BRANCH   1   6
ATOM      6  O   UNL     1       6.439  -0.016  23.159  0.00  0.00    -0.365 OA
ATOM      7  H   UNL     1       7.132   0.513  22.730  0.00  0.00    +0.213 HD
ENDBRANCH   1   6
BRANCH   2   8
ATOM      8  O   UNL     1       8.948  -1.237  24.990  0.00  0.00    -0.384 OA
ATOM      9  H   UNL     1       8.322  -1.876  25.381  0.00  0.00    +0.210 HD
ENDBRANCH   2   8
BRANCH   3  10
ATOM     10  O   UNL     1       9.855  -1.674  21.658  0.00  0.00    -0.386 OA
ATOM     11  H   UNL     1      10.809  -1.842  21.780  0.00  0.00    +0.210 HD
ENDBRANCH   3  10
BRANCH   4  12
ATOM     12  C   UNL     1       7.686  -4.243  23.250  0.00  0.00    +0.206 C 
BRANCH  12  13
ATOM     13  O   UNL     1       8.777  -4.380  24.158  0.00  0.00    -0.284 OA
BRANCH  13  14
ATOM     14  P   UNL     1       8.351  -5.088  25.677  0.00  0.00    +0.472 P 
ATOM     15  O   UNL     1       7.970  -5.723  27.038  0.00  0.00    -0.228 OA
BRANCH  14  16
ATOM     16  O   UNL     1       8.835  -3.692  26.378  0.00  0.00    -0.303 OA
ATOM     17  H   UNL     1       8.964  -3.916  27.320  0.00  0.00    +0.222 HD
ENDBRANCH  14  16
BRANCH  14  18
ATOM     18  O   UNL     1       9.841  -5.763  25.621  0.00  0.00    -0.303 OA
ATOM     19  H   UNL     1      10.503  -5.139  25.277  0.00  0.00    +0.222 HD
ENDBRANCH  14  18
ENDBRANCH  13  14
ENDBRANCH  12  13
ENDBRANCH   4  12
TORSDOF 8
ENDMDL
MODEL 5
REMARK VINA RESULT:      -4.7      3.484      5.919
REMARK  Name = 
REMARK  8 active torsions:
REMARK  status: ('A' for Active; 'I' for Inactive)
REMARK    1  A    between atoms: O_1  and  C_2
REMARK    2  A    between atoms: C_5  and  C_7
REMARK    3  A    between atoms: C_7  and  O_8
REMARK    4  A    between atoms: O_8  and  P_9
REMARK    5  A    between atoms: P_9  and  O_10
REMARK    6  A    between atoms: P_9  and  O_11
REMARK    7  A    between atoms: C_13  and  O_15
REMARK    8  A    between atoms: C_16  and  O_18
REMARK                            x       y       z     vdW  Elec       q    Type
REMARK                         _______ _______ _______ _____ _____    ______ ____
ROOT
ATOM      1  C   UNL     1       9.680   1.149  22.296  0.00  0.00    +0.279 C 
ATOM      2  C   UNL     1       8.399   1.584  23.018  0.00  0.00    +0.201 C 
ATOM      3  C   UNL     1       8.536   0.998  24.421  0.00  0.00    +0.179 C 
ATOM      4  C   UNL     1       9.804   0.142  24.366  0.00  0.00    +0.179 C 
ATOM      5  O   UNL     1      10.590   0.696  23.291  0.00  0.00    -0.341 OA
ENDROOT
BRANCH   1   6
ATOM      6  O   UNL     1      10.266   2.233  21.603  0.00  0.00    -0.365 OA
ATOM      7  H   UNL     1       9.525   2.824  21.386  0.00  0.00    +0.213 HD
ENDBRANCH   1   6
BRANCH   2   8
ATOM      8  O   UNL     1       7.241   1.049  22.369  0.00  0.00    -0.384 OA
ATOM      9  H   UNL     1       6.543   1.005  23.050  0.00  0.00    +0.210 HD
ENDBRANCH   2   8
BRANCH   3  10
ATOM     10  O   UNL     1       8.690   2.066  25.366  0.00  0.00    -0.386 OA
ATOM     11  H   UNL     1       8.966   1.675  26.217  0.00  0.00    +0.210 HD
ENDBRANCH   3  10
BRANCH   4  12
ATOM     12  C   UNL     1       9.492  -1.332  24.078  0.00  0.00    +0.206 C 
BRANCH  12  13
ATOM     13  O   UNL     1       8.083  -1.532  24.174  0.00  0.00    -0.284 OA
BRANCH  13  14
ATOM     14  P   UNL     1       7.442  -2.635  23.008  0.00  0.00    +0.472 P 
ATOM     15  O   UNL     1       6.868  -3.624  21.962  0.00  0.00    -0.228 OA
BRANCH  14  16
ATOM     16  O   UNL     1       8.388  -1.894  21.898  0.00  0.00    -0.303 OA
ATOM     17  H   UNL     1       8.536  -2.566  21.205  0.00  0.00    +0.222 HD
ENDBRANCH  14  16
BRANCH  14  18
ATOM     18  O   UNL     1       6.201  -1.575  22.893  0.00  0.00    -0.303 OA
ATOM     19  H   UNL     1       6.462  -0.772  22.411  0.00  0.00    +0.222 HD
ENDBRANCH  14  18
ENDBRANCH  13  14
ENDBRANCH  12  13
ENDBRANCH   4  12
TORSDOF 8
ENDMDL
MODEL 6
REMARK VINA RESULT:      -4.7      3.123      5.154
REMARK  Name = 
REMARK  8 active torsions:
REMARK  status: ('A' for Active; 'I' for Inactive)
REMARK    1  A    between atoms: O_1  and  C_2
REMARK    2  A    between atoms: C_5  and  C_7
REMARK    3  A    between atoms: C_7  and  O_8
REMARK    4  A    between atoms: O_8  and  P_9
REMARK    5  A    between atoms: P_9  and  O_10
REMARK    6  A    between atoms: P_9  and  O_11
REMARK    7  A    between atoms: C_13  and  O_15
REMARK    8  A    between atoms: C_16  and  O_18
REMARK                            x       y       z     vdW  Elec       q    Type
REMARK                         _______ _______ _______ _____ _____    ______ ____
ROOT
ATOM      1  C   UNL     1       9.506  -0.779  24.415  0.00  0.00    +0.279 C 
ATOM      2  C   UNL     1      10.061  -1.764  23.378  0.00  0.00    +0.201 C 
ATOM      3  C   UNL     1       9.111  -1.639  22.190  0.00  0.00    +0.179 C 
ATOM      4  C   UNL     1       7.994  -0.713  22.677  0.00  0.00    +0.179 C 
ATOM      5  O   UNL     1       8.581   0.064  23.741  0.00  0.00    -0.341 OA
ENDROOT
BRANCH   1   6
ATOM      6  O   UNL     1      10.538   0.020  24.960  0.00  0.00    -0.365 OA
ATOM      7  H   UNL     1      11.364  -0.419  24.696  0.00  0.00    +0.213 HD
ENDBRANCH   1   6
BRANCH   2   8
ATOM      8  O   UNL     1      10.046  -3.102  23.887  0.00  0.00    -0.384 OA
ATOM      9  H   UNL     1       9.406  -3.594  23.338  0.00  0.00    +0.210 HD
ENDBRANCH   2   8
BRANCH   3  10
ATOM     10  O   UNL     1       9.810  -1.048  21.087  0.00  0.00    -0.386 OA
ATOM     11  H   UNL     1       9.592  -1.560  20.285  0.00  0.00    +0.210 HD
ENDBRANCH   3  10
BRANCH   4  12
ATOM     12  C   UNL     1       6.787  -1.496  23.208  0.00  0.00    +0.206 C 
BRANCH  12  13
ATOM     13  O   UNL     1       6.949  -2.874  22.875  0.00  0.00    -0.284 OA
BRANCH  13  14
ATOM     14  P   UNL     1       5.467  -3.760  22.787  0.00  0.00    +0.472 P 
ATOM     15  O   UNL     1       4.139  -4.555  22.708  0.00  0.00    -0.228 OA
BRANCH  14  16
ATOM     16  O   UNL     1       6.344  -5.109  23.083  0.00  0.00    -0.303 OA
ATOM     17  H   UNL     1       7.255  -4.880  22.812  0.00  0.00    +0.222 HD
ENDBRANCH  14  16
BRANCH  14  18
ATOM     18  O   UNL     1       5.723  -3.755  21.171  0.00  0.00    -0.303 OA
ATOM     19  H   UNL     1       6.203  -4.550  20.883  0.00  0.00    +0.222 HD
ENDBRANCH  14  18
ENDBRANCH  13  14
ENDBRANCH  12  13
ENDBRANCH   4  12
TORSDOF 8
ENDMDL
MODEL 7
REMARK VINA RESULT:      -4.7      3.132      3.954
REMARK  Name = 
REMARK  8 active torsions:
REMARK  status: ('A' for Active; 'I' for Inactive)
REMARK    1  A    between atoms: O_1  and  C_2
REMARK    2  A    between atoms: C_5  and  C_7
REMARK    3  A    between atoms: C_7  and  O_8
REMARK    4  A    between atoms: O_8  and  P_9
REMARK    5  A    between atoms: P_9  and  O_10
REMARK    6  A    between atoms: P_9  and  O_11
REMARK    7  A    between atoms: C_13  and  O_15
REMARK    8  A    between atoms: C_16  and  O_18
REMARK                            x       y       z     vdW  Elec       q    Type
REMARK                         _______ _______ _______ _____ _____    ______ ____
ROOT
ATOM      1  C   UNL     1       9.766  -2.064  23.790  0.00  0.00    +0.279 C 
ATOM      2  C   UNL     1       8.768  -1.523  24.822  0.00  0.00    +0.201 C 
ATOM      3  C   UNL     1       7.675  -0.865  23.984  0.00  0.00    +0.179 C 
ATOM      4  C   UNL     1       8.190  -0.933  22.544  0.00  0.00    +0.179 C 
ATOM      5  O   UNL     1       9.117  -2.038  22.525  0.00  0.00    -0.341 OA
ENDROOT
BRANCH   1   6
ATOM      6  O   UNL     1      10.132  -3.397  24.087  0.00  0.00    -0.365 OA
ATOM      7  H   UNL     1      11.078  -3.355  24.308  0.00  0.00    +0.213 HD
ENDBRANCH   1   6
BRANCH   2   8
ATOM      8  O   UNL     1       9.389  -0.557  25.675  0.00  0.00    -0.384 OA
ATOM      9  H   UNL     1       8.757  -0.387  26.400  0.00  0.00    +0.210 HD
ENDBRANCH   2   8
BRANCH   3  10
ATOM     10  O   UNL     1       6.459  -1.613  24.120  0.00  0.00    -0.386 OA
ATOM     11  H   UNL     1       5.884  -1.137  24.749  0.00  0.00    +0.210 HD
ENDBRANCH   3  10
BRANCH   4  12
ATOM     12  C   UNL     1       8.906   0.357  22.127  0.00  0.00    +0.206 C 
BRANCH  12  13
ATOM     13  O   UNL     1       8.696   1.347  23.131  0.00  0.00    -0.284 OA
BRANCH  13  14
ATOM     14  P   UNL     1       9.976   2.501  23.268  0.00  0.00    +0.472 P 
ATOM     15  O   UNL     1      11.123   3.535  23.390  0.00  0.00    -0.228 OA
BRANCH  14  16
ATOM     16  O   UNL     1      10.302   2.214  21.691  0.00  0.00    -0.303 OA
ATOM     17  H   UNL     1      11.265   2.048  21.660  0.00  0.00    +0.222 HD
ENDBRANCH  14  16
BRANCH  14  18
ATOM     18  O   UNL     1      10.856   1.248  23.844  0.00  0.00    -0.303 OA
ATOM     19  H   UNL     1      11.206   0.697  23.123  0.00  0.00    +0.222 HD
ENDBRANCH  14  18
ENDBRANCH  13  14
ENDBRANCH  12  13
ENDBRANCH   4  12
TORSDOF 8
ENDMDL
MODEL 8
REMARK VINA RESULT:      -4.7      4.362      6.694
REMARK  Name = 
REMARK  8 active torsions:
REMARK  status: ('A' for Active; 'I' for Inactive)
REMARK    1  A    between atoms: O_1  and  C_2
REMARK    2  A    between atoms: C_5  and  C_7
REMARK    3  A    between atoms: C_7  and  O_8
REMARK    4  A    between atoms: O_8  and  P_9
REMARK    5  A    between atoms: P_9  and  O_10
REMARK    6  A    between atoms: P_9  and  O_11
REMARK    7  A    between atoms: C_13  and  O_15
REMARK    8  A    between atoms: C_16  and  O_18
REMARK                            x       y       z     vdW  Elec       q    Type
REMARK                         _______ _______ _______ _____ _____    ______ ____
ROOT
ATOM      1  C   UNL     1       7.933   2.328  23.282  0.00  0.00    +0.279 C 
ATOM      2  C   UNL     1       9.134   2.563  24.207  0.00  0.00    +0.201 C 
ATOM      3  C   UNL     1      10.350   2.406  23.297  0.00  0.00    +0.179 C 
ATOM      4  C   UNL     1       9.778   1.941  21.956  0.00  0.00    +0.179 C 
ATOM      5  O   UNL     1       8.411   2.402  21.945  0.00  0.00    -0.341 OA
ENDROOT
BRANCH   1   6
ATOM      6  O   UNL     1       6.945   3.322  23.468  0.00  0.00    -0.365 OA
ATOM      7  H   UNL     1       6.242   2.886  23.980  0.00  0.00    +0.213 HD
ENDBRANCH   1   6
BRANCH   2   8
ATOM      8  O   UNL     1       9.169   1.590  25.256  0.00  0.00    -0.384 OA
ATOM      9  H   UNL     1       9.303   0.727  24.821  0.00  0.00    +0.210 HD
ENDBRANCH   2   8
BRANCH   3  10
ATOM     10  O   UNL     1      11.001   3.675  23.155  0.00  0.00    -0.386 OA
ATOM     11  H   UNL     1      11.906   3.588  23.511  0.00  0.00    +0.210 HD
ENDBRANCH   3  10
BRANCH   4  12
ATOM     12  C   UNL     1       9.815   0.415  21.812  0.00  0.00    +0.206 C 
BRANCH  12  13
ATOM     13  O   UNL     1      10.514  -0.137  22.926  0.00  0.00    -0.284 OA
BRANCH  13  14
ATOM     14  P   UNL     1      10.038  -1.748  23.335  0.00  0.00    +0.472 P 
ATOM     15  O   UNL     1       9.611  -3.191  23.702  0.00  0.00    -0.228 OA
BRANCH  14  16
ATOM     16  O   UNL     1       9.700  -1.970  21.750  0.00  0.00    -0.303 OA
ATOM     17  H   UNL     1      10.562  -1.889  21.296  0.00  0.00    +0.222 HD
ENDBRANCH  14  16
BRANCH  14  18
ATOM     18  O   UNL     1       8.595  -1.075  23.713  0.00  0.00    -0.303 OA
ATOM     19  H   UNL     1       7.860  -1.691  23.548  0.00  0.00    +0.222 HD
ENDBRANCH  14  18
ENDBRANCH  13  14
ENDBRANCH  12  13
ENDBRANCH   4  12
TORSDOF 8
ENDMDL
MODEL 9
REMARK VINA RESULT:      -4.6      2.312      5.209
REMARK  Name = 
REMARK  8 active torsions:
REMARK  status: ('A' for Active; 'I' for Inactive)
REMARK    1  A    between atoms: O_1  and  C_2
REMARK    2  A    between atoms: C_5  and  C_7
REMARK    3  A    between atoms: C_7  and  O_8
REMARK    4  A    between atoms: O_8  and  P_9
REMARK    5  A    between atoms: P_9  and  O_10
REMARK    6  A    between atoms: P_9  and  O_11
REMARK    7  A    between atoms: C_13  and  O_15
REMARK    8  A    between atoms: C_16  and  O_18
REMARK                            x       y       z     vdW  Elec       q    Type
REMARK                         _______ _______ _______ _____ _____    ______ ____
ROOT
ATOM      1  C   UNL     1      10.202  -0.769  23.501  0.00  0.00    +0.279 C 
ATOM      2  C   UNL     1       9.200  -0.363  22.414  0.00  0.00    +0.201 C 
ATOM      3  C   UNL     1       7.912  -1.089  22.794  0.00  0.00    +0.179 C 
ATOM      4  C   UNL     1       8.299  -1.979  23.977  0.00  0.00    +0.179 C 
ATOM      5  O   UNL     1       9.457  -1.350  24.564  0.00  0.00    -0.341 OA
ENDROOT
BRANCH   1   6
ATOM      6  O   UNL     1      10.900   0.357  23.996  0.00  0.00    -0.365 OA
ATOM      7  H   UNL     1      10.238   0.864  24.495  0.00  0.00    +0.213 HD
ENDBRANCH   1   6
BRANCH   2   8
ATOM      8  O   UNL     1       9.647  -0.789  21.122  0.00  0.00    -0.384 OA
ATOM      9  H   UNL     1      10.604  -0.964  21.210  0.00  0.00    +0.210 HD
ENDBRANCH   2   8
BRANCH   3  10
ATOM     10  O   UNL     1       6.926  -0.125  23.189  0.00  0.00    -0.386 OA
ATOM     11  H   UNL     1       7.048   0.054  24.141  0.00  0.00    +0.210 HD
ENDBRANCH   3  10
BRANCH   4  12
ATOM     12  C   UNL     1       8.648  -3.405  23.535  0.00  0.00    +0.206 C 
BRANCH  12  13
ATOM     13  O   UNL     1       9.421  -4.029  24.559  0.00  0.00    -0.284 OA
BRANCH  13  14
ATOM     14  P   UNL     1       8.505  -5.036  25.625  0.00  0.00    +0.472 P 
ATOM     15  O   UNL     1       7.685  -5.938  26.580  0.00  0.00    -0.228 OA
BRANCH  14  16
ATOM     16  O   UNL     1       9.084  -4.129  26.857  0.00  0.00    -0.303 OA
ATOM     17  H   UNL     1       8.329  -4.025  27.468  0.00  0.00    +0.222 HD
ENDBRANCH  14  16
BRANCH  14  18
ATOM     18  O   UNL     1       9.791  -6.044  25.551  0.00  0.00    -0.303 OA
ATOM     19  H   UNL     1       9.646  -6.761  24.910  0.00  0.00    +0.222 HD
ENDBRANCH  14  18
ENDBRANCH  13  14
ENDBRANCH  12  13
ENDBRANCH   4  12
TORSDOF 8
ENDMDL
