MODEL 1
REMARK VINA RESULT:      -6.6      0.000      0.000
REMARK  Name = 
REMARK  7 active torsions:
REMARK  status: ('A' for Active; 'I' for Inactive)
REMARK    1  A    between atoms: C_1  and  N_2
REMARK    2  A    between atoms: C_6  and  C_12
REMARK    3  A    between atoms: C_10  and  N_11
REMARK    4  A    between atoms: C_15  and  C_17
REMARK    5  A    between atoms: C_17  and  O_18
REMARK    6  A    between atoms: C_19  and  O_21
REMARK    7  A    between atoms: C_22  and  O_24
REMARK                            x       y       z     vdW  Elec       q    Type
REMARK                         _______ _______ _______ _____ _____    ______ ____
ROOT
ATOM      1  C   UNL     1      10.161   2.022  22.159  0.00  0.00    +0.151 C 
ATOM      2  N   UNL     1       9.869   0.786  22.871  0.00  0.00    -0.322 N 
ATOM      3  C   UNL     1       9.443   0.791  24.214  0.00  0.00    +0.127 A 
ATOM      4  C   UNL     1       9.223  -0.421  24.761  0.00  0.00    +0.151 A 
ATOM      5  C   UNL     1       9.385  -1.630  24.002  0.00  0.00    +0.121 A 
ATOM      6  C   UNL     1       9.069  -2.595  24.867  0.00  0.00    +0.122 A 
ATOM      7  N   UNL     1       8.741  -2.042  26.097  0.00  0.00    -0.149 NA
ATOM      8  N   UNL     1       9.770  -1.633  22.692  0.00  0.00    -0.234 NA
ATOM      9  N   UNL     1       8.828  -0.777  26.029  0.00  0.00    -0.144 NA
ATOM     10  C   UNL     1       9.987  -0.441  22.216  0.00  0.00    +0.201 A 
ENDROOT
BRANCH   6  11
ATOM     11  C   UNL     1       8.992  -4.069  24.605  0.00  0.00    +0.202 C 
ATOM     12  C   UNL     1       9.174  -4.951  25.849  0.00  0.00    +0.180 C 
ATOM     13  C   UNL     1       7.761  -5.389  26.240  0.00  0.00    +0.177 C 
ATOM     14  C   UNL     1       6.859  -4.726  25.199  0.00  0.00    +0.175 C 
ATOM     15  O   UNL     1       7.693  -4.428  24.069  0.00  0.00    -0.360 OA
BRANCH  12  16
ATOM     16  O   UNL     1       9.947  -6.122  25.514  0.00  0.00    -0.386 OA
ATOM     17  H   UNL     1      10.174  -6.579  26.344  0.00  0.00    +0.210 HD
ENDBRANCH  12  16
BRANCH  13  18
ATOM     18  O   UNL     1       7.428  -4.958  27.558  0.00  0.00    -0.386 OA
ATOM     19  H   UNL     1       7.121  -4.036  27.477  0.00  0.00    +0.210 HD
ENDBRANCH  13  18
BRANCH  14  20
ATOM     20  C   UNL     1       5.674  -5.592  24.786  0.00  0.00    +0.190 C 
BRANCH  20  21
ATOM     21  O   UNL     1       5.288  -6.454  25.853  0.00  0.00    -0.392 OA
ATOM     22  H   UNL     1       4.473  -6.081  26.236  0.00  0.00    +0.210 HD
ENDBRANCH  20  21
ENDBRANCH  14  20
ENDBRANCH   6  11
BRANCH   3  23
ATOM     23  N   UNL     1       9.257   1.958  24.937  0.00  0.00    -0.343 N 
ATOM     24  H   UNL     1       9.521   1.868  25.911  0.00  0.00    +0.144 HD
ATOM     25  H   UNL     1       8.310   2.322  24.829  0.00  0.00    +0.144 HD
ENDBRANCH   3  23
TORSDOF 6
ENDMDL
MODEL 2
REMARK VINA RESULT:      -6.4      2.156      3.032
REMARK  Name = 
REMARK  7 active torsions:
REMARK  status: ('A' for Active; 'I' for Inactive)
REMARK    1  A    between atoms: C_1  and  N_2
REMARK    2  A    between atoms: C_6  and  C_12
REMARK    3  A    between atoms: C_10  and  N_11
REMARK    4  A    between atoms: C_15  and  C_17
REMARK    5  A    between atoms: C_17  and  O_18
REMARK    6  A    between atoms: C_19  and  O_21
REMARK    7  A    between atoms: C_22  and  O_24
REMARK                            x       y       z     vdW  Elec       q    Type
REMARK                         _______ _______ _______ _____ _____    ______ ____
ROOT
ATOM      1  C   UNL     1       7.825   3.397  22.587  0.00  0.00    +0.151 C 
ATOM      2  N   UNL     1       7.872   1.942  22.642  0.00  0.00    -0.322 N 
ATOM      3  C   UNL     1       8.993   1.222  22.186  0.00  0.00    +0.127 A 
ATOM      4  C   UNL     1       8.902  -0.119  22.277  0.00  0.00    +0.151 A 
ATOM      5  C   UNL     1       7.744  -0.759  22.836  0.00  0.00    +0.121 A 
ATOM      6  C   UNL     1       8.033  -2.059  22.767  0.00  0.00    +0.122 A 
ATOM      7  N   UNL     1       9.283  -2.239  22.191  0.00  0.00    -0.149 NA
ATOM      8  N   UNL     1       6.669  -0.059  23.307  0.00  0.00    -0.234 NA
ATOM      9  N   UNL     1       9.786  -1.108  21.911  0.00  0.00    -0.144 NA
ATOM     10  C   UNL     1       6.799   1.230  23.179  0.00  0.00    +0.201 A 
ENDROOT
BRANCH   6  11
ATOM     11  C   UNL     1       7.212  -3.207  23.275  0.00  0.00    +0.202 C 
ATOM     12  C   UNL     1       7.884  -4.581  23.143  0.00  0.00    +0.180 C 
ATOM     13  C   UNL     1       8.409  -4.906  24.543  0.00  0.00    +0.177 C 
ATOM     14  C   UNL     1       8.010  -3.695  25.386  0.00  0.00    +0.175 C 
ATOM     15  O   UNL     1       6.932  -3.052  24.690  0.00  0.00    -0.360 OA
BRANCH  12  16
ATOM     16  O   UNL     1       6.904  -5.574  22.773  0.00  0.00    -0.386 OA
ATOM     17  H   UNL     1       6.806  -5.550  21.804  0.00  0.00    +0.210 HD
ENDBRANCH  12  16
BRANCH  13  18
ATOM     18  O   UNL     1       9.824  -5.088  24.540  0.00  0.00    -0.386 OA
ATOM     19  H   UNL     1       9.981  -6.018  24.787  0.00  0.00    +0.210 HD
ENDBRANCH  13  18
BRANCH  14  20
ATOM     20  C   UNL     1       7.598  -4.058  26.808  0.00  0.00    +0.190 C 
BRANCH  20  21
ATOM     21  O   UNL     1       8.289  -5.222  27.249  0.00  0.00    -0.392 OA
ATOM     22  H   UNL     1       7.616  -5.909  27.404  0.00  0.00    +0.210 HD
ENDBRANCH  20  21
ENDBRANCH  14  20
ENDBRANCH   6  11
BRANCH   3  23
ATOM     23  N   UNL     1      10.124   1.839  21.674  0.00  0.00    -0.343 N 
ATOM     24  H   UNL     1      10.096   2.848  21.753  0.00  0.00    +0.144 HD
ATOM     25  H   UNL     1      10.321   1.534  20.721  0.00  0.00    +0.144 HD
ENDBRANCH   3  23
TORSDOF 6
ENDMDL
MODEL 3
REMARK VINA RESULT:      -6.3      2.025      3.293
REMARK  Name = 
REMARK  7 active torsions:
REMARK  status: ('A' for Active; 'I' for Inactive)
REMARK    1  A    between atoms: C_1  and  N_2
REMARK    2  A    between atoms: C_6  and  C_12
REMARK    3  A    between atoms: C_10  and  N_11
REMARK    4  A    between atoms: C_15  and  C_17
REMARK    5  A    between atoms: C_17  and  O_18
REMARK    6  A    between atoms: C_19  and  O_21
REMARK    7  A    between atoms: C_22  and  O_24
REMARK                            x       y       z     vdW  Elec       q    Type
REMARK                         _______ _______ _______ _____ _____    ______ ____
ROOT
ATOM      1  C   UNL     1       9.402   3.466  24.095  0.00  0.00    +0.151 C 
ATOM      2  N   UNL     1       9.157   2.046  23.878  0.00  0.00    -0.322 N 
ATOM      3  C   UNL     1       9.496   1.416  22.666  0.00  0.00    +0.127 A 
ATOM      4  C   UNL     1       9.200   0.103  22.588  0.00  0.00    +0.151 A 
ATOM      5  C   UNL     1       8.609  -0.602  23.691  0.00  0.00    +0.121 A 
ATOM      6  C   UNL     1       8.486  -1.852  23.242  0.00  0.00    +0.122 A 
ATOM      7  N   UNL     1       8.954  -1.938  21.939  0.00  0.00    -0.149 NA
ATOM      8  N   UNL     1       8.308   0.003  24.878  0.00  0.00    -0.234 NA
ATOM      9  N   UNL     1       9.372  -0.799  21.564  0.00  0.00    -0.144 NA
ATOM     10  C   UNL     1       8.595   1.273  24.896  0.00  0.00    +0.201 A 
ENDROOT
BRANCH   6  11
ATOM     11  C   UNL     1       7.991  -3.050  23.996  0.00  0.00    +0.202 C 
ATOM     12  C   UNL     1       6.466  -3.111  24.171  0.00  0.00    +0.180 C 
ATOM     13  C   UNL     1       5.983  -4.115  23.123  0.00  0.00    +0.177 C 
ATOM     14  C   UNL     1       7.259  -4.562  22.411  0.00  0.00    +0.175 C 
ATOM     15  O   UNL     1       8.346  -4.275  23.305  0.00  0.00    -0.360 OA
BRANCH  12  16
ATOM     16  O   UNL     1       6.141  -3.615  25.483  0.00  0.00    -0.386 OA
ATOM     17  H   UNL     1       6.960  -3.629  26.010  0.00  0.00    +0.210 HD
ENDBRANCH  12  16
BRANCH  13  18
ATOM     18  O   UNL     1       5.067  -3.515  22.209  0.00  0.00    -0.386 OA
ATOM     19  H   UNL     1       4.185  -3.580  22.622  0.00  0.00    +0.210 HD
ENDBRANCH  13  18
BRANCH  14  20
ATOM     20  C   UNL     1       7.251  -6.036  22.023  0.00  0.00    +0.190 C 
BRANCH  20  21
ATOM     21  O   UNL     1       5.916  -6.500  21.846  0.00  0.00    -0.392 OA
ATOM     22  H   UNL     1       5.758  -6.549  20.886  0.00  0.00    +0.210 HD
ENDBRANCH  20  21
ENDBRANCH  14  20
ENDBRANCH   6  11
BRANCH   3  23
ATOM     23  N   UNL     1      10.094   2.088  21.612  0.00  0.00    -0.343 N 
ATOM     24  H   UNL     1      10.630   1.479  21.005  0.00  0.00    +0.144 HD
ATOM     25  H   UNL     1      10.641   2.886  21.935  0.00  0.00    +0.144 HD
ENDBRANCH   3  23
TORSDOF 6
ENDMDL
MODEL 4
REMARK VINA RESULT:      -6.2      3.547      6.389
REMARK  Name = 
REMARK  7 active torsions:
REMARK  status: ('A' for Active; 'I' for Inactive)
REMARK    1  A    between atoms: C_1  and  N_2
REMARK    2  A    between atoms: C_6  and  C_12
REMARK    3  A    between atoms: C_10  and  N_11
REMARK    4  A    between atoms: C_15  and  C_17
REMARK    5  A    between atoms: C_17  and  O_18
REMARK    6  A    between atoms: C_19  and  O_21
REMARK    7  A    between atoms: C_22  and  O_24
REMARK                            x       y       z     vdW  Elec       q    Type
REMARK                         _______ _______ _______ _____ _____    ______ ____
ROOT
ATOM      1  C   UNL     1       7.312  -5.572  27.342  0.00  0.00    +0.151 C 
ATOM      2  N   UNL     1       7.658  -4.542  26.372  0.00  0.00    -0.322 N 
ATOM      3  C   UNL     1       8.872  -4.577  25.660  0.00  0.00    +0.127 A 
ATOM      4  C   UNL     1       9.077  -3.555  24.805  0.00  0.00    +0.151 A 
ATOM      5  C   UNL     1       8.097  -2.522  24.618  0.00  0.00    +0.121 A 
ATOM      6  C   UNL     1       8.648  -1.721  23.706  0.00  0.00    +0.122 A 
ATOM      7  N   UNL     1       9.899  -2.201  23.343  0.00  0.00    -0.149 NA
ATOM      8  N   UNL     1       6.906  -2.505  25.287  0.00  0.00    -0.234 NA
ATOM      9  N   UNL     1      10.143  -3.270  23.983  0.00  0.00    -0.144 NA
ATOM     10  C   UNL     1       6.764  -3.501  26.112  0.00  0.00    +0.201 A 
ENDROOT
BRANCH   6  11
ATOM     11  C   UNL     1       8.041  -0.506  23.069  0.00  0.00    +0.202 C 
ATOM     12  C   UNL     1       7.240   0.387  24.028  0.00  0.00    +0.180 C 
ATOM     13  C   UNL     1       8.169   1.559  24.352  0.00  0.00    +0.177 C 
ATOM     14  C   UNL     1       9.443   1.260  23.563  0.00  0.00    +0.175 C 
ATOM     15  O   UNL     1       9.070   0.353  22.515  0.00  0.00    -0.360 OA
BRANCH  12  16
ATOM     16  O   UNL     1       6.065   0.895  23.363  0.00  0.00    -0.386 OA
ATOM     17  H   UNL     1       5.381   0.202  23.394  0.00  0.00    +0.210 HD
ENDBRANCH  12  16
BRANCH  13  18
ATOM     18  O   UNL     1       8.436   1.640  25.751  0.00  0.00    -0.386 OA
ATOM     19  H   UNL     1       8.007   2.458  26.065  0.00  0.00    +0.210 HD
ENDBRANCH  13  18
BRANCH  14  20
ATOM     20  C   UNL     1      10.106   2.508  22.990  0.00  0.00    +0.190 C 
BRANCH  20  21
ATOM     21  O   UNL     1      10.302   2.371  21.586  0.00  0.00    -0.392 OA
ATOM     22  H   UNL     1       9.578   1.809  21.253  0.00  0.00    +0.210 HD
ENDBRANCH  20  21
ENDBRANCH  14  20
ENDBRANCH   6  11
BRANCH   3  23
ATOM     23  N   UNL     1       9.805  -5.589  25.817  0.00  0.00    -0.343 N 
ATOM     24  H   UNL     1      10.666  -5.418  25.312  0.00  0.00    +0.144 HD
ATOM     25  H   UNL     1       9.409  -6.504  25.601  0.00  0.00    +0.144 HD
ENDBRANCH   3  23
TORSDOF 6
ENDMDL
MODEL 5
REMARK VINA RESULT:      -6.0      1.757      3.291
REMARK  Name = 
REMARK  7 active torsions:
REMARK  status: ('A' for Active; 'I' for Inactive)
REMARK    1  A    between atoms: C_1  and  N_2
REMARK    2  A    between atoms: C_6  and  C_12
REMARK    3  A    between atoms: C_10  and  N_11
REMARK    4  A    between atoms: C_15  and  C_17
REMARK    5  A    between atoms: C_17  and  O_18
REMARK    6  A    between atoms: C_19  and  O_21
REMARK    7  A    between atoms: C_22  and  O_24
REMARK                            x       y       z     vdW  Elec       q    Type
REMARK                         _______ _______ _______ _____ _____    ______ ____
ROOT
ATOM      1  C   UNL     1       9.785   3.917  23.775  0.00  0.00    +0.151 C 
ATOM      2  N   UNL     1       9.285   2.549  23.799  0.00  0.00    -0.322 N 
ATOM      3  C   UNL     1       9.421   1.694  22.688  0.00  0.00    +0.127 A 
ATOM      4  C   UNL     1       8.900   0.460  22.835  0.00  0.00    +0.151 A 
ATOM      5  C   UNL     1       8.277   0.046  24.061  0.00  0.00    +0.121 A 
ATOM      6  C   UNL     1       7.909  -1.213  23.823  0.00  0.00    +0.122 A 
ATOM      7  N   UNL     1       8.260  -1.576  22.530  0.00  0.00    -0.149 NA
ATOM      8  N   UNL     1       8.171   0.866  25.148  0.00  0.00    -0.234 NA
ATOM      9  N   UNL     1       8.839  -0.601  21.960  0.00  0.00    -0.144 NA
ATOM     10  C   UNL     1       8.673   2.051  24.950  0.00  0.00    +0.201 A 
ENDROOT
BRANCH   6  11
ATOM     11  C   UNL     1       7.271  -2.176  24.780  0.00  0.00    +0.202 C 
ATOM     12  C   UNL     1       6.661  -3.423  24.122  0.00  0.00    +0.180 C 
ATOM     13  C   UNL     1       7.680  -4.540  24.359  0.00  0.00    +0.177 C 
ATOM     14  C   UNL     1       8.810  -3.862  25.133  0.00  0.00    +0.175 C 
ATOM     15  O   UNL     1       8.246  -2.682  25.727  0.00  0.00    -0.360 OA
BRANCH  12  16
ATOM     16  O   UNL     1       5.426  -3.773  24.780  0.00  0.00    -0.386 OA
ATOM     17  H   UNL     1       5.624  -4.458  25.443  0.00  0.00    +0.210 HD
ENDBRANCH  12  16
BRANCH  13  18
ATOM     18  O   UNL     1       8.153  -5.084  23.129  0.00  0.00    -0.386 OA
ATOM     19  H   UNL     1       8.507  -5.969  23.339  0.00  0.00    +0.210 HD
ENDBRANCH  13  18
BRANCH  14  20
ATOM     20  C   UNL     1       9.438  -4.757  26.195  0.00  0.00    +0.190 C 
BRANCH  20  21
ATOM     21  O   UNL     1       9.832  -6.004  25.630  0.00  0.00    -0.392 OA
ATOM     22  H   UNL     1      10.768  -5.916  25.376  0.00  0.00    +0.210 HD
ENDBRANCH  20  21
ENDBRANCH  14  20
ENDBRANCH   6  11
BRANCH   3  23
ATOM     23  N   UNL     1      10.048   2.082  21.515  0.00  0.00    -0.343 N 
ATOM     24  H   UNL     1      10.927   2.559  21.673  0.00  0.00    +0.144 HD
ATOM     25  H   UNL     1       9.423   2.618  20.913  0.00  0.00    +0.144 HD
ENDBRANCH   3  23
TORSDOF 6
ENDMDL
MODEL 6
REMARK VINA RESULT:      -6.0      3.564      6.478
REMARK  Name = 
REMARK  7 active torsions:
REMARK  status: ('A' for Active; 'I' for Inactive)
REMARK    1  A    between atoms: C_1  and  N_2
REMARK    2  A    between atoms: C_6  and  C_12
REMARK    3  A    between atoms: C_10  and  N_11
REMARK    4  A    between atoms: C_15  and  C_17
REMARK    5  A    between atoms: C_17  and  O_18
REMARK    6  A    between atoms: C_19  and  O_21
REMARK    7  A    between atoms: C_22  and  O_24
REMARK                            x       y       z     vdW  Elec       q    Type
REMARK                         _______ _______ _______ _____ _____    ______ ____
ROOT
ATOM      1  C   UNL     1       7.256  -4.959  26.921  0.00  0.00    +0.151 C 
ATOM      2  N   UNL     1       7.815  -3.813  26.218  0.00  0.00    -0.322 N 
ATOM      3  C   UNL     1       8.672  -3.971  25.112  0.00  0.00    +0.127 A 
ATOM      4  C   UNL     1       9.134  -2.830  24.563  0.00  0.00    +0.151 A 
ATOM      5  C   UNL     1       8.744  -1.542  25.065  0.00  0.00    +0.121 A 
ATOM      6  C   UNL     1       9.383  -0.683  24.270  0.00  0.00    +0.122 A 
ATOM      7  N   UNL     1      10.140  -1.373  23.334  0.00  0.00    -0.149 NA
ATOM      8  N   UNL     1       7.889  -1.388  26.119  0.00  0.00    -0.234 NA
ATOM      9  N   UNL     1       9.989  -2.622  23.507  0.00  0.00    -0.144 NA
ATOM     10  C   UNL     1       7.486  -2.518  26.625  0.00  0.00    +0.201 A 
ENDROOT
BRANCH   6  11
ATOM     11  C   UNL     1       9.294   0.815  24.281  0.00  0.00    +0.202 C 
ATOM     12  C   UNL     1       9.958   1.504  23.081  0.00  0.00    +0.180 C 
ATOM     13  C   UNL     1       8.806   1.878  22.146  0.00  0.00    +0.177 C 
ATOM     14  C   UNL     1       7.556   1.375  22.867  0.00  0.00    +0.175 C 
ATOM     15  O   UNL     1       7.910   1.247  24.253  0.00  0.00    -0.360 OA
BRANCH  12  16
ATOM     16  O   UNL     1      10.619   2.713  23.511  0.00  0.00    -0.386 OA
ATOM     17  H   UNL     1       9.934   3.382  23.687  0.00  0.00    +0.210 HD
ENDBRANCH  12  16
BRANCH  13  18
ATOM     18  O   UNL     1       8.948   1.259  20.869  0.00  0.00    -0.386 OA
ATOM     19  H   UNL     1       9.827   0.835  20.867  0.00  0.00    +0.210 HD
ENDBRANCH  13  18
BRANCH  14  20
ATOM     20  C   UNL     1       6.350   2.291  22.698  0.00  0.00    +0.190 C 
BRANCH  20  21
ATOM     21  O   UNL     1       6.618   3.298  21.726  0.00  0.00    -0.392 OA
ATOM     22  H   UNL     1       7.483   3.086  21.330  0.00  0.00    +0.210 HD
ENDBRANCH  20  21
ENDBRANCH  14  20
ENDBRANCH   6  11
BRANCH   3  23
ATOM     23  N   UNL     1       9.025  -5.212  24.608  0.00  0.00    -0.343 N 
ATOM     24  H   UNL     1       8.244  -5.716  24.206  0.00  0.00    +0.144 HD
ATOM     25  H   UNL     1       9.527  -5.771  25.299  0.00  0.00    +0.144 HD
ENDBRANCH   3  23
TORSDOF 6
ENDMDL
MODEL 7
REMARK VINA RESULT:      -5.9      3.537      6.493
REMARK  Name = 
REMARK  7 active torsions:
REMARK  status: ('A' for Active; 'I' for Inactive)
REMARK    1  A    between atoms: C_1  and  N_2
REMARK    2  A    between atoms: C_6  and  C_12
REMARK    3  A    between atoms: C_10  and  N_11
REMARK    4  A    between atoms: C_15  and  C_17
REMARK    5  A    between atoms: C_17  and  O_18
REMARK    6  A    between atoms: C_19  and  O_21
REMARK    7  A    between atoms: C_22  and  O_24
REMARK                            x       y       z     vdW  Elec       q    Type
REMARK                         _______ _______ _______ _____ _____    ______ ____
ROOT
ATOM      1  C   UNL     1       4.156  -6.877  25.636  0.00  0.00    +0.151 C 
ATOM      2  N   UNL     1       4.999  -5.936  24.910  0.00  0.00    -0.322 N 
ATOM      3  C   UNL     1       4.524  -5.239  23.782  0.00  0.00    +0.127 A 
ATOM      4  C   UNL     1       5.410  -4.412  23.192  0.00  0.00    +0.151 A 
ATOM      5  C   UNL     1       6.738  -4.238  23.709  0.00  0.00    +0.121 A 
ATOM      6  C   UNL     1       7.291  -3.352  22.880  0.00  0.00    +0.122 A 
ATOM      7  N   UNL     1       6.384  -2.994  21.892  0.00  0.00    -0.149 NA
ATOM      8  N   UNL     1       7.189  -4.892  24.821  0.00  0.00    -0.234 NA
ATOM      9  N   UNL     1       5.290  -3.610  22.080  0.00  0.00    -0.144 NA
ATOM     10  C   UNL     1       6.303  -5.691  25.343  0.00  0.00    +0.201 A 
ENDROOT
BRANCH   6  11
ATOM     11  C   UNL     1       8.656  -2.738  22.975  0.00  0.00    +0.202 C 
ATOM     12  C   UNL     1       8.869  -1.512  22.074  0.00  0.00    +0.180 C 
ATOM     13  C   UNL     1       8.739  -0.304  23.004  0.00  0.00    +0.177 C 
ATOM     14  C   UNL     1       8.454  -0.913  24.376  0.00  0.00    +0.175 C 
ATOM     15  O   UNL     1       8.917  -2.271  24.323  0.00  0.00    -0.360 OA
BRANCH  12  16
ATOM     16  O   UNL     1      10.203  -1.533  21.523  0.00  0.00    -0.386 OA
ATOM     17  H   UNL     1      10.199  -0.996  20.710  0.00  0.00    +0.210 HD
ENDBRANCH  12  16
BRANCH  13  18
ATOM     18  O   UNL     1       7.680   0.558  22.593  0.00  0.00    -0.386 OA
ATOM     19  H   UNL     1       6.997   0.503  23.287  0.00  0.00    +0.210 HD
ENDBRANCH  13  18
BRANCH  14  20
ATOM     20  C   UNL     1       9.117  -0.159  25.523  0.00  0.00    +0.190 C 
BRANCH  20  21
ATOM     21  O   UNL     1       9.350   1.199  25.160  0.00  0.00    -0.392 OA
ATOM     22  H   UNL     1       9.890   1.187  24.349  0.00  0.00    +0.210 HD
ENDBRANCH  20  21
ENDBRANCH  14  20
ENDBRANCH   6  11
BRANCH   3  23
ATOM     23  N   UNL     1       3.233  -5.382  23.300  0.00  0.00    -0.343 N 
ATOM     24  H   UNL     1       2.532  -4.986  23.914  0.00  0.00    +0.144 HD
ATOM     25  H   UNL     1       3.027  -6.351  23.057  0.00  0.00    +0.144 HD
ENDBRANCH   3  23
TORSDOF 6
ENDMDL
MODEL 8
REMARK VINA RESULT:      -5.9      1.194      2.155
REMARK  Name = 
REMARK  7 active torsions:
REMARK  status: ('A' for Active; 'I' for Inactive)
REMARK    1  A    between atoms: C_1  and  N_2
REMARK    2  A    between atoms: C_6  and  C_12
REMARK    3  A    between atoms: C_10  and  N_11
REMARK    4  A    between atoms: C_15  and  C_17
REMARK    5  A    between atoms: C_17  and  O_18
REMARK    6  A    between atoms: C_19  and  O_21
REMARK    7  A    between atoms: C_22  and  O_24
REMARK                            x       y       z     vdW  Elec       q    Type
REMARK                         _______ _______ _______ _____ _____    ______ ____
ROOT
ATOM      1  C   UNL     1       8.631   2.696  24.886  0.00  0.00    +0.151 C 
ATOM      2  N   UNL     1       8.880   1.275  24.684  0.00  0.00    -0.322 N 
ATOM      3  C   UNL     1       9.626   0.805  23.586  0.00  0.00    +0.127 A 
ATOM      4  C   UNL     1       9.768  -0.533  23.507  0.00  0.00    +0.151 A 
ATOM      5  C   UNL     1       9.218  -1.409  24.503  0.00  0.00    +0.121 A 
ATOM      6  C   UNL     1       9.574  -2.626  24.090  0.00  0.00    +0.122 A 
ATOM      7  N   UNL     1      10.292  -2.536  22.906  0.00  0.00    -0.149 NA
ATOM      8  N   UNL     1       8.520  -0.951  25.584  0.00  0.00    -0.234 NA
ATOM      9  N   UNL     1      10.405  -1.316  22.572  0.00  0.00    -0.144 NA
ATOM     10  C   UNL     1       8.395   0.345  25.605  0.00  0.00    +0.201 A 
ENDROOT
BRANCH   6  11
ATOM     11  C   UNL     1       9.333  -3.934  24.783  0.00  0.00    +0.202 C 
ATOM     12  C   UNL     1       8.790  -3.809  26.214  0.00  0.00    +0.180 C 
ATOM     13  C   UNL     1       7.290  -4.093  26.099  0.00  0.00    +0.177 C 
ATOM     14  C   UNL     1       7.070  -4.357  24.610  0.00  0.00    +0.175 C 
ATOM     15  O   UNL     1       8.348  -4.721  24.067  0.00  0.00    -0.360 OA
BRANCH  12  16
ATOM     16  O   UNL     1       9.390  -4.815  27.058  0.00  0.00    -0.386 OA
ATOM     17  H   UNL     1       8.984  -4.745  27.941  0.00  0.00    +0.210 HD
ENDBRANCH  12  16
BRANCH  13  18
ATOM     18  O   UNL     1       6.514  -2.984  26.546  0.00  0.00    -0.386 OA
ATOM     19  H   UNL     1       5.842  -2.823  25.857  0.00  0.00    +0.210 HD
ENDBRANCH  13  18
BRANCH  14  20
ATOM     20  C   UNL     1       6.034  -5.441  24.335  0.00  0.00    +0.190 C 
BRANCH  20  21
ATOM     21  O   UNL     1       5.301  -5.746  25.518  0.00  0.00    -0.392 OA
ATOM     22  H   UNL     1       5.587  -5.110  26.199  0.00  0.00    +0.210 HD
ENDBRANCH  20  21
ENDBRANCH  14  20
ENDBRANCH   6  11
BRANCH   3  23
ATOM     23  N   UNL     1      10.183   1.651  22.641  0.00  0.00    -0.343 N 
ATOM     24  H   UNL     1       9.502   2.254  22.196  0.00  0.00    +0.144 HD
ATOM     25  H   UNL     1      10.744   1.138  21.960  0.00  0.00    +0.144 HD
ENDBRANCH   3  23
TORSDOF 6
ENDMDL
MODEL 9
REMARK VINA RESULT:      -5.8      3.791      6.619
REMARK  Name = 
REMARK  7 active torsions:
REMARK  status: ('A' for Active; 'I' for Inactive)
REMARK    1  A    between atoms: C_1  and  N_2
REMARK    2  A    between atoms: C_6  and  C_12
REMARK    3  A    between atoms: C_10  and  N_11
REMARK    4  A    between atoms: C_15  and  C_17
REMARK    5  A    between atoms: C_17  and  O_18
REMARK    6  A    between atoms: C_19  and  O_21
REMARK    7  A    between atoms: C_22  and  O_24
REMARK                            x       y       z     vdW  Elec       q    Type
REMARK                         _______ _______ _______ _____ _____    ______ ____
ROOT
ATOM      1  C   UNL     1       2.830  -5.353  23.867  0.00  0.00    +0.151 C 
ATOM      2  N   UNL     1       4.057  -4.572  23.789  0.00  0.00    -0.322 N 
ATOM      3  C   UNL     1       5.141  -4.979  22.987  0.00  0.00    +0.127 A 
ATOM      4  C   UNL     1       6.223  -4.175  23.018  0.00  0.00    +0.151 A 
ATOM      5  C   UNL     1       6.244  -2.969  23.797  0.00  0.00    +0.121 A 
ATOM      6  C   UNL     1       7.452  -2.457  23.561  0.00  0.00    +0.122 A 
ATOM      7  N   UNL     1       8.161  -3.285  22.701  0.00  0.00    -0.149 NA
ATOM      8  N   UNL     1       5.181  -2.560  24.551  0.00  0.00    -0.234 NA
ATOM      9  N   UNL     1       7.440  -4.282  22.386  0.00  0.00    -0.144 NA
ATOM     10  C   UNL     1       4.169  -3.377  24.502  0.00  0.00    +0.201 A 
ENDROOT
BRANCH   6  11
ATOM     11  C   UNL     1       8.007  -1.155  24.058  0.00  0.00    +0.202 C 
ATOM     12  C   UNL     1       9.529  -1.011  23.911  0.00  0.00    +0.180 C 
ATOM     13  C   UNL     1       9.730  -0.125  22.680  0.00  0.00    +0.177 C 
ATOM     14  C   UNL     1       8.312   0.177  22.197  0.00  0.00    +0.175 C 
ATOM     15  O   UNL     1       7.444  -0.041  23.319  0.00  0.00    -0.360 OA
BRANCH  12  16
ATOM     16  O   UNL     1      10.073  -0.335  25.064  0.00  0.00    -0.386 OA
ATOM     17  H   UNL     1      10.818  -0.865  25.398  0.00  0.00    +0.210 HD
ENDBRANCH  12  16
BRANCH  13  18
ATOM     18  O   UNL     1      10.485  -0.796  21.673  0.00  0.00    -0.386 OA
ATOM     19  H   UNL     1      11.181  -1.296  22.140  0.00  0.00    +0.210 HD
ENDBRANCH  13  18
BRANCH  14  20
ATOM     20  C   UNL     1       8.148   1.591  21.650  0.00  0.00    +0.190 C 
BRANCH  20  21
ATOM     21  O   UNL     1       9.420   2.189  21.418  0.00  0.00    -0.392 OA
ATOM     22  H   UNL     1       9.921   2.121  22.251  0.00  0.00    +0.210 HD
ENDBRANCH  20  21
ENDBRANCH  14  20
ENDBRANCH   6  11
BRANCH   3  23
ATOM     23  N   UNL     1       5.112  -6.127  22.211  0.00  0.00    -0.343 N 
ATOM     24  H   UNL     1       4.349  -6.138  21.546  0.00  0.00    +0.144 HD
ATOM     25  H   UNL     1       5.134  -6.970  22.785  0.00  0.00    +0.144 HD
ENDBRANCH   3  23
TORSDOF 6
ENDMDL
