MODEL 1
REMARK VINA RESULT:      -7.4      0.000      0.000
REMARK  Name = 
REMARK  6 active torsions:
REMARK  status: ('A' for Active; 'I' for Inactive)
REMARK    1  A    between atoms: C_2  and  O_3
REMARK    2  A    between atoms: C_2  and  C_7
REMARK    3  A    between atoms: C_2  and  C_23
REMARK    4  A    between atoms: O_3  and  C_4
REMARK    5  A    between atoms: C_4  and  C_5
REMARK    6  A    between atoms: N_9  and  C_10
REMARK                            x       y       z     vdW  Elec       q    Type
REMARK                         _______ _______ _______ _____ _____    ______ ____
ROOT
ATOM      1  C   UNL     1       8.730  -2.541  23.640  0.00  0.00    +0.263 C 
ATOM      2  N   UNL     1       8.783  -1.581  24.649  0.00  0.00    -0.282 N 
ATOM      3  H   UNL     1       8.324  -1.842  25.512  0.00  0.00    +0.155 HD
ATOM      4  O   UNL     1       8.781  -2.269  22.441  0.00  0.00    -0.271 OA
ENDROOT
BRANCH   2   5
ATOM      5  C   UNL     1       9.028  -0.218  24.420  0.00  0.00    +0.045 A 
ATOM      6  C   UNL     1       8.023   0.765  24.333  0.00  0.00    +0.060 A 
ATOM      7  C   UNL     1       6.585   0.437  24.253  0.00  0.00    +0.250 C 
ATOM      8  C   UNL     1       5.616   1.574  24.529  0.00  0.00    +0.291 C 
ATOM      9  N   UNL     1       6.049   2.796  24.091  0.00  0.00    -0.246 N 
ATOM     10  H   UNL     1       5.394   3.560  24.192  0.00  0.00    +0.158 HD
ATOM     11  C   UNL     1       7.365   3.167  24.006  0.00  0.00    +0.251 C 
ATOM     12  O   UNL     1       7.686   4.342  23.870  0.00  0.00    -0.270 OA
ATOM     13  O   UNL     1       4.556   1.399  25.106  0.00  0.00    -0.266 OA
ATOM     14  O   UNL     1       6.166  -0.640  23.847  0.00  0.00    -0.282 OA
ATOM     15  C   UNL     1       8.388   2.104  24.145  0.00  0.00    +0.050 A 
ATOM     16  C   UNL     1       9.740   2.463  24.042  0.00  0.00    +0.014 A 
ATOM     17  C   UNL     1      10.727   1.483  24.088  0.00  0.00    +0.003 A 
ATOM     18  C   UNL     1      10.370   0.147  24.253  0.00  0.00    +0.024 A 
ENDBRANCH   2   5
BRANCH   1  19
ATOM     19  C   UNL     1       8.474  -3.970  24.174  0.00  0.00    +0.292 C 
BRANCH  19  20
ATOM     20  C   UNL     1       7.348  -4.645  23.403  0.00  0.00    +0.003 A 
ATOM     21  C   UNL     1       6.001  -4.440  23.747  0.00  0.00    +0.027 A 
ATOM     22  C   UNL     1       4.979  -5.043  23.013  0.00  0.00    +0.041 A 
ATOM     23 CL   UNL     1       3.340  -4.749  23.448  0.00  0.00    -0.084 Cl
ATOM     24  C   UNL     1       5.276  -5.866  21.933  0.00  0.00    +0.020 A 
ATOM     25  C   UNL     1       6.608  -6.088  21.584  0.00  0.00    +0.002 A 
ATOM     26  C   UNL     1       7.638  -5.478  22.309  0.00  0.00    +0.008 A 
ENDBRANCH  19  20
BRANCH  19  27
ATOM     27  O   UNL     1       8.129  -3.804  25.567  0.00  0.00    -0.447 OA
BRANCH  27  28
ATOM     28  C   UNL     1       8.590  -4.743  26.426  0.00  0.00    +0.305 C 
ATOM     29  O   UNL     1       7.997  -5.163  27.408  0.00  0.00    -0.251 OA
ATOM     30  C   UNL     1       9.948  -5.209  25.991  0.00  0.00    +0.136 C 
ENDBRANCH  27  28
ENDBRANCH  19  27
ENDBRANCH   1  19
TORSDOF 5
ENDMDL
MODEL 2
REMARK VINA RESULT:      -7.3      2.102      3.139
REMARK  Name = 
REMARK  6 active torsions:
REMARK  status: ('A' for Active; 'I' for Inactive)
REMARK    1  A    between atoms: C_2  and  O_3
REMARK    2  A    between atoms: C_2  and  C_7
REMARK    3  A    between atoms: C_2  and  C_23
REMARK    4  A    between atoms: O_3  and  C_4
REMARK    5  A    between atoms: C_4  and  C_5
REMARK    6  A    between atoms: N_9  and  C_10
REMARK                            x       y       z     vdW  Elec       q    Type
REMARK                         _______ _______ _______ _____ _____    ______ ____
ROOT
ATOM      1  C   UNL     1       8.042  -1.908  22.954  0.00  0.00    +0.263 C 
ATOM      2  N   UNL     1       8.067  -0.948  23.965  0.00  0.00    -0.282 N 
ATOM      3  H   UNL     1       7.232  -0.904  24.534  0.00  0.00    +0.155 HD
ATOM      4  O   UNL     1       8.687  -1.813  21.911  0.00  0.00    -0.271 OA
ENDROOT
BRANCH   2   5
ATOM      5  C   UNL     1       8.924   0.164  23.964  0.00  0.00    +0.045 A 
ATOM      6  C   UNL     1       8.503   1.490  23.737  0.00  0.00    +0.060 A 
ATOM      7  C   UNL     1       7.149   1.829  23.255  0.00  0.00    +0.250 C 
ATOM      8  C   UNL     1       6.723   3.280  23.403  0.00  0.00    +0.291 C 
ATOM      9  N   UNL     1       7.739   4.181  23.234  0.00  0.00    -0.246 N 
ATOM     10  H   UNL     1       7.473   5.156  23.252  0.00  0.00    +0.158 HD
ATOM     11  C   UNL     1       9.053   3.932  23.533  0.00  0.00    +0.251 C 
ATOM     12  O   UNL     1       9.868   4.843  23.619  0.00  0.00    -0.270 OA
ATOM     13  O   UNL     1       5.575   3.597  23.666  0.00  0.00    -0.266 OA
ATOM     14  O   UNL     1       6.443   1.045  22.634  0.00  0.00    -0.282 OA
ATOM     15  C   UNL     1       9.440   2.528  23.805  0.00  0.00    +0.050 A 
ATOM     16  C   UNL     1      10.785   2.252  24.093  0.00  0.00    +0.014 A 
ATOM     17  C   UNL     1      11.203   0.936  24.276  0.00  0.00    +0.003 A 
ATOM     18  C   UNL     1      10.280  -0.103  24.190  0.00  0.00    +0.024 A 
ENDBRANCH   2   5
BRANCH   1  19
ATOM     19  C   UNL     1       7.024  -3.042  23.221  0.00  0.00    +0.292 C 
BRANCH  19  20
ATOM     20  C   UNL     1       7.387  -3.815  24.481  0.00  0.00    +0.003 A 
ATOM     21  C   UNL     1       6.531  -3.841  25.595  0.00  0.00    +0.027 A 
ATOM     22  C   UNL     1       6.865  -4.577  26.732  0.00  0.00    +0.041 A 
ATOM     23 CL   UNL     1       5.781  -4.606  28.068  0.00  0.00    -0.084 Cl
ATOM     24  C   UNL     1       8.058  -5.290  26.787  0.00  0.00    +0.020 A 
ATOM     25  C   UNL     1       8.924  -5.266  25.694  0.00  0.00    +0.002 A 
ATOM     26  C   UNL     1       8.590  -4.539  24.546  0.00  0.00    +0.008 A 
ENDBRANCH  19  20
BRANCH  19  27
ATOM     27  O   UNL     1       7.077  -3.891  22.053  0.00  0.00    -0.447 OA
BRANCH  27  28
ATOM     28  C   UNL     1       5.998  -4.672  21.815  0.00  0.00    +0.305 C 
ATOM     29  O   UNL     1       4.841  -4.389  22.082  0.00  0.00    -0.251 OA
ATOM     30  C   UNL     1       6.430  -5.951  21.160  0.00  0.00    +0.136 C 
ENDBRANCH  27  28
ENDBRANCH  19  27
ENDBRANCH   1  19
TORSDOF 5
ENDMDL
MODEL 3
REMARK VINA RESULT:      -7.2      1.473      1.923
REMARK  Name = 
REMARK  6 active torsions:
REMARK  status: ('A' for Active; 'I' for Inactive)
REMARK    1  A    between atoms: C_2  and  O_3
REMARK    2  A    between atoms: C_2  and  C_7
REMARK    3  A    between atoms: C_2  and  C_23
REMARK    4  A    between atoms: O_3  and  C_4
REMARK    5  A    between atoms: C_4  and  C_5
REMARK    6  A    between atoms: N_9  and  C_10
REMARK                            x       y       z     vdW  Elec       q    Type
REMARK                         _______ _______ _______ _____ _____    ______ ____
ROOT
ATOM      1  C   UNL     1       8.840  -1.279  25.165  0.00  0.00    +0.263 C 
ATOM      2  N   UNL     1       9.108  -0.656  23.947  0.00  0.00    -0.282 N 
ATOM      3  H   UNL     1       9.501  -1.258  23.235  0.00  0.00    +0.155 HD
ATOM      4  O   UNL     1       8.830  -0.687  26.243  0.00  0.00    -0.271 OA
ENDROOT
BRANCH   2   5
ATOM      5  C   UNL     1       9.268   0.731  23.798  0.00  0.00    +0.045 A 
ATOM      6  C   UNL     1       8.201   1.644  23.677  0.00  0.00    +0.060 A 
ATOM      7  C   UNL     1       6.802   1.219  23.472  0.00  0.00    +0.250 C 
ATOM      8  C   UNL     1       5.734   2.270  23.723  0.00  0.00    +0.291 C 
ATOM      9  N   UNL     1       6.106   3.540  23.373  0.00  0.00    -0.246 N 
ATOM     10  H   UNL     1       5.391   4.249  23.457  0.00  0.00    +0.158 HD
ATOM     11  C   UNL     1       7.393   4.006  23.408  0.00  0.00    +0.251 C 
ATOM     12  O   UNL     1       7.635   5.207  23.349  0.00  0.00    -0.270 OA
ATOM     13  O   UNL     1       4.650   1.992  24.208  0.00  0.00    -0.266 OA
ATOM     14  O   UNL     1       6.494   0.137  22.988  0.00  0.00    -0.282 OA
ATOM     15  C   UNL     1       8.479   3.012  23.578  0.00  0.00    +0.050 A 
ATOM     16  C   UNL     1       9.804   3.470  23.595  0.00  0.00    +0.014 A 
ATOM     17  C   UNL     1      10.856   2.561  23.673  0.00  0.00    +0.003 A 
ATOM     18  C   UNL     1      10.587   1.197  23.752  0.00  0.00    +0.024 A 
ENDBRANCH   2   5
BRANCH   1  19
ATOM     19  C   UNL     1       8.684  -2.814  25.039  0.00  0.00    +0.292 C 
BRANCH  19  20
ATOM     20  C   UNL     1       7.399  -3.171  24.304  0.00  0.00    +0.003 A 
ATOM     21  C   UNL     1       7.414  -3.980  23.156  0.00  0.00    +0.027 A 
ATOM     22  C   UNL     1       6.225  -4.322  22.510  0.00  0.00    +0.041 A 
ATOM     23 CL   UNL     1       6.280  -5.336  21.121  0.00  0.00    -0.084 Cl
ATOM     24  C   UNL     1       5.004  -3.859  22.986  0.00  0.00    +0.020 A 
ATOM     25  C   UNL     1       4.972  -3.046  24.119  0.00  0.00    +0.002 A 
ATOM     26  C   UNL     1       6.159  -2.708  24.778  0.00  0.00    +0.008 A 
ENDBRANCH  19  20
BRANCH  19  27
ATOM     27  O   UNL     1       8.667  -3.312  26.395  0.00  0.00    -0.447 OA
BRANCH  27  28
ATOM     28  C   UNL     1       8.732  -4.655  26.553  0.00  0.00    +0.305 C 
ATOM     29  O   UNL     1       7.979  -5.328  27.240  0.00  0.00    -0.251 OA
ATOM     30  C   UNL     1       9.868  -5.209  25.746  0.00  0.00    +0.136 C 
ENDBRANCH  27  28
ENDBRANCH  19  27
ENDBRANCH   1  19
TORSDOF 5
ENDMDL
MODEL 4
REMARK VINA RESULT:      -7.2      1.728      2.598
REMARK  Name = 
REMARK  6 active torsions:
REMARK  status: ('A' for Active; 'I' for Inactive)
REMARK    1  A    between atoms: C_2  and  O_3
REMARK    2  A    between atoms: C_2  and  C_7
REMARK    3  A    between atoms: C_2  and  C_23
REMARK    4  A    between atoms: O_3  and  C_4
REMARK    5  A    between atoms: C_4  and  C_5
REMARK    6  A    between atoms: N_9  and  C_10
REMARK                            x       y       z     vdW  Elec       q    Type
REMARK                         _______ _______ _______ _____ _____    ______ ____
ROOT
ATOM      1  C   UNL     1       7.264  -1.973  24.878  0.00  0.00    +0.263 C 
ATOM      2  N   UNL     1       8.063  -1.174  25.694  0.00  0.00    -0.282 N 
ATOM      3  H   UNL     1       8.505  -1.656  26.466  0.00  0.00    +0.155 HD
ATOM      4  O   UNL     1       6.311  -1.544  24.230  0.00  0.00    -0.271 OA
ENDROOT
BRANCH   2   5
ATOM      5  C   UNL     1       7.951   0.224  25.769  0.00  0.00    +0.045 A 
ATOM      6  C   UNL     1       8.571   1.119  24.875  0.00  0.00    +0.060 A 
ATOM      7  C   UNL     1       9.588   0.694  23.891  0.00  0.00    +0.250 C 
ATOM      8  C   UNL     1       9.894   1.672  22.770  0.00  0.00    +0.291 C 
ATOM      9  N   UNL     1       9.833   2.988  23.144  0.00  0.00    -0.246 N 
ATOM     10  H   UNL     1      10.106   3.660  22.441  0.00  0.00    +0.158 HD
ATOM     11  C   UNL     1       9.016   3.475  24.129  0.00  0.00    +0.251 C 
ATOM     12  O   UNL     1       8.802   4.678  24.238  0.00  0.00    -0.270 OA
ATOM     13  O   UNL     1      10.154   1.303  21.638  0.00  0.00    -0.266 OA
ATOM     14  O   UNL     1      10.268  -0.316  24.025  0.00  0.00    -0.282 OA
ATOM     15  C   UNL     1       8.352   2.494  25.019  0.00  0.00    +0.050 A 
ATOM     16  C   UNL     1       7.527   2.977  26.045  0.00  0.00    +0.014 A 
ATOM     17  C   UNL     1       6.950   2.092  26.951  0.00  0.00    +0.003 A 
ATOM     18  C   UNL     1       7.180   0.724  26.825  0.00  0.00    +0.024 A 
ENDBRANCH   2   5
BRANCH   1  19
ATOM     19  C   UNL     1       7.619  -3.476  24.968  0.00  0.00    +0.292 C 
BRANCH  19  20
ATOM     20  C   UNL     1       6.910  -4.268  23.879  0.00  0.00    +0.003 A 
ATOM     21  C   UNL     1       5.563  -4.646  24.009  0.00  0.00    +0.027 A 
ATOM     22  C   UNL     1       4.918  -5.347  22.989  0.00  0.00    +0.041 A 
ATOM     23 CL   UNL     1       3.260  -5.771  23.173  0.00  0.00    -0.084 Cl
ATOM     24  C   UNL     1       5.601  -5.694  21.829  0.00  0.00    +0.020 A 
ATOM     25  C   UNL     1       6.942  -5.336  21.688  0.00  0.00    +0.002 A 
ATOM     26  C   UNL     1       7.591  -4.623  22.702  0.00  0.00    +0.008 A 
ENDBRANCH  19  20
BRANCH  19  27
ATOM     27  O   UNL     1       7.192  -3.895  26.283  0.00  0.00    -0.447 OA
BRANCH  27  28
ATOM     28  C   UNL     1       7.918  -4.869  26.879  0.00  0.00    +0.305 C 
ATOM     29  O   UNL     1       7.483  -5.713  27.648  0.00  0.00    -0.251 OA
ATOM     30  C   UNL     1       9.352  -4.771  26.450  0.00  0.00    +0.136 C 
ENDBRANCH  27  28
ENDBRANCH  19  27
ENDBRANCH   1  19
TORSDOF 5
ENDMDL
MODEL 5
REMARK VINA RESULT:      -7.2      3.525      7.750
REMARK  Name = 
REMARK  6 active torsions:
REMARK  status: ('A' for Active; 'I' for Inactive)
REMARK    1  A    between atoms: C_2  and  O_3
REMARK    2  A    between atoms: C_2  and  C_7
REMARK    3  A    between atoms: C_2  and  C_23
REMARK    4  A    between atoms: O_3  and  C_4
REMARK    5  A    between atoms: C_4  and  C_5
REMARK    6  A    between atoms: N_9  and  C_10
REMARK                            x       y       z     vdW  Elec       q    Type
REMARK                         _______ _______ _______ _____ _____    ______ ____
ROOT
ATOM      1  C   UNL     1       8.609  -0.154  25.263  0.00  0.00    +0.263 C 
ATOM      2  N   UNL     1       7.472  -0.899  24.957  0.00  0.00    -0.282 N 
ATOM      3  H   UNL     1       6.864  -0.486  24.262  0.00  0.00    +0.155 HD
ATOM      4  O   UNL     1       9.186  -0.210  26.348  0.00  0.00    -0.271 OA
ENDROOT
BRANCH   2   5
ATOM      5  C   UNL     1       6.935  -1.886  25.799  0.00  0.00    +0.045 A 
ATOM      6  C   UNL     1       7.464  -3.184  25.938  0.00  0.00    +0.060 A 
ATOM      7  C   UNL     1       8.512  -3.723  25.047  0.00  0.00    +0.250 C 
ATOM      8  C   UNL     1       9.233  -4.970  25.529  0.00  0.00    +0.291 C 
ATOM      9  N   UNL     1       8.441  -5.838  26.231  0.00  0.00    -0.246 N 
ATOM     10  H   UNL     1       8.872  -6.711  26.500  0.00  0.00    +0.158 HD
ATOM     11  C   UNL     1       7.367  -5.461  26.994  0.00  0.00    +0.251 C 
ATOM     12  O   UNL     1       6.865  -6.230  27.806  0.00  0.00    -0.270 OA
ATOM     13  O   UNL     1      10.418  -5.159  25.314  0.00  0.00    -0.266 OA
ATOM     14  O   UNL     1       8.710  -3.300  23.915  0.00  0.00    -0.282 OA
ATOM     15  C   UNL     1       6.871  -4.073  26.843  0.00  0.00    +0.050 A 
ATOM     16  C   UNL     1       5.760  -3.677  27.601  0.00  0.00    +0.014 A 
ATOM     17  C   UNL     1       5.215  -2.407  27.431  0.00  0.00    +0.003 A 
ATOM     18  C   UNL     1       5.788  -1.525  26.517  0.00  0.00    +0.024 A 
ENDBRANCH   2   5
BRANCH   1  19
ATOM     19  C   UNL     1       8.998   0.845  24.146  0.00  0.00    +0.292 C 
BRANCH  19  20
ATOM     20  C   UNL     1       8.773   2.280  24.598  0.00  0.00    +0.003 A 
ATOM     21  C   UNL     1       9.504   3.345  24.044  0.00  0.00    +0.027 A 
ATOM     22  C   UNL     1       9.266   4.659  24.448  0.00  0.00    +0.041 A 
ATOM     23 CL   UNL     1      10.163   5.939  23.729  0.00  0.00    -0.084 Cl
ATOM     24  C   UNL     1       8.307   4.938  25.416  0.00  0.00    +0.020 A 
ATOM     25  C   UNL     1       7.580   3.892  25.984  0.00  0.00    +0.002 A 
ATOM     26  C   UNL     1       7.806   2.573  25.575  0.00  0.00    +0.008 A 
ENDBRANCH  19  20
BRANCH  19  27
ATOM     27  O   UNL     1       8.156   0.512  23.021  0.00  0.00    -0.447 OA
BRANCH  27  28
ATOM     28  C   UNL     1       8.719   0.589  21.793  0.00  0.00    +0.305 C 
ATOM     29  O   UNL     1       8.615   1.528  21.019  0.00  0.00    -0.251 OA
ATOM     30  C   UNL     1       9.508  -0.657  21.515  0.00  0.00    +0.136 C 
ENDBRANCH  27  28
ENDBRANCH  19  27
ENDBRANCH   1  19
TORSDOF 5
ENDMDL
MODEL 6
REMARK VINA RESULT:      -7.0      2.211      3.275
REMARK  Name = 
REMARK  6 active torsions:
REMARK  status: ('A' for Active; 'I' for Inactive)
REMARK    1  A    between atoms: C_2  and  O_3
REMARK    2  A    between atoms: C_2  and  C_7
REMARK    3  A    between atoms: C_2  and  C_23
REMARK    4  A    between atoms: O_3  and  C_4
REMARK    5  A    between atoms: C_4  and  C_5
REMARK    6  A    between atoms: N_9  and  C_10
REMARK                            x       y       z     vdW  Elec       q    Type
REMARK                         _______ _______ _______ _____ _____    ______ ____
ROOT
ATOM      1  C   UNL     1       7.965  -1.975  23.841  0.00  0.00    +0.263 C 
ATOM      2  N   UNL     1       7.560  -0.868  23.095  0.00  0.00    -0.282 N 
ATOM      3  H   UNL     1       6.895  -1.068  22.360  0.00  0.00    +0.155 HD
ATOM      4  O   UNL     1       9.052  -2.049  24.411  0.00  0.00    -0.271 OA
ENDROOT
BRANCH   2   5
ATOM      5  C   UNL     1       8.288   0.330  23.018  0.00  0.00    +0.045 A 
ATOM      6  C   UNL     1       8.149   1.403  23.920  0.00  0.00    +0.060 A 
ATOM      7  C   UNL     1       7.062   1.475  24.918  0.00  0.00    +0.250 C 
ATOM      8  C   UNL     1       7.243   2.481  26.042  0.00  0.00    +0.291 C 
ATOM      9  N   UNL     1       7.884   3.630  25.667  0.00  0.00    -0.246 N 
ATOM     10  H   UNL     1       7.953   4.350  26.373  0.00  0.00    +0.158 HD
ATOM     11  C   UNL     1       8.821   3.703  24.670  0.00  0.00    +0.251 C 
ATOM     12  O   UNL     1       9.552   4.681  24.557  0.00  0.00    -0.270 OA
ATOM     13  O   UNL     1       6.859   2.262  27.178  0.00  0.00    -0.266 OA
ATOM     14  O   UNL     1       5.999   0.880  24.794  0.00  0.00    -0.282 OA
ATOM     15  C   UNL     1       8.961   2.534  23.771  0.00  0.00    +0.050 A 
ATOM     16  C   UNL     1       9.902   2.599  22.734  0.00  0.00    +0.014 A 
ATOM     17  C   UNL     1      10.008   1.554  21.820  0.00  0.00    +0.003 A 
ATOM     18  C   UNL     1       9.188   0.435  21.951  0.00  0.00    +0.024 A 
ENDBRANCH   2   5
BRANCH   1  19
ATOM     19  C   UNL     1       6.961  -3.151  23.773  0.00  0.00    +0.292 C 
BRANCH  19  20
ATOM     20  C   UNL     1       6.853  -3.851  25.120  0.00  0.00    +0.003 A 
ATOM     21  C   UNL     1       5.893  -3.464  26.070  0.00  0.00    +0.027 A 
ATOM     22  C   UNL     1       5.787  -4.135  27.290  0.00  0.00    +0.041 A 
ATOM     23 CL   UNL     1       4.583  -3.649  28.419  0.00  0.00    -0.084 Cl
ATOM     24  C   UNL     1       6.638  -5.192  27.590  0.00  0.00    +0.020 A 
ATOM     25  C   UNL     1       7.604  -5.583  26.662  0.00  0.00    +0.002 A 
ATOM     26  C   UNL     1       7.708  -4.922  25.434  0.00  0.00    +0.008 A 
ENDBRANCH  19  20
BRANCH  19  27
ATOM     27  O   UNL     1       7.479  -4.041  22.760  0.00  0.00    -0.447 OA
BRANCH  27  28
ATOM     28  C   UNL     1       6.588  -4.539  21.872  0.00  0.00    +0.305 C 
ATOM     29  O   UNL     1       5.712  -3.901  21.307  0.00  0.00    -0.251 OA
ATOM     30  C   UNL     1       6.836  -6.005  21.668  0.00  0.00    +0.136 C 
ENDBRANCH  27  28
ENDBRANCH  19  27
ENDBRANCH   1  19
TORSDOF 5
ENDMDL
MODEL 7
REMARK VINA RESULT:      -6.9      1.768      2.134
REMARK  Name = 
REMARK  6 active torsions:
REMARK  status: ('A' for Active; 'I' for Inactive)
REMARK    1  A    between atoms: C_2  and  O_3
REMARK    2  A    between atoms: C_2  and  C_7
REMARK    3  A    between atoms: C_2  and  C_23
REMARK    4  A    between atoms: O_3  and  C_4
REMARK    5  A    between atoms: C_4  and  C_5
REMARK    6  A    between atoms: N_9  and  C_10
REMARK                            x       y       z     vdW  Elec       q    Type
REMARK                         _______ _______ _______ _____ _____    ______ ____
ROOT
ATOM      1  C   UNL     1       7.066  -3.476  23.116  0.00  0.00    +0.263 C 
ATOM      2  N   UNL     1       7.773  -2.417  23.683  0.00  0.00    -0.282 N 
ATOM      3  H   UNL     1       7.782  -2.401  24.694  0.00  0.00    +0.155 HD
ATOM      4  O   UNL     1       6.542  -3.426  22.005  0.00  0.00    -0.271 OA
ENDROOT
BRANCH   2   5
ATOM      5  C   UNL     1       8.073  -1.226  23.003  0.00  0.00    +0.045 A 
ATOM      6  C   UNL     1       7.479   0.020  23.284  0.00  0.00    +0.060 A 
ATOM      7  C   UNL     1       6.312   0.169  24.177  0.00  0.00    +0.250 C 
ATOM      8  C   UNL     1       6.012   1.574  24.668  0.00  0.00    +0.291 C 
ATOM      9  N   UNL     1       6.285   2.557  23.755  0.00  0.00    -0.246 N 
ATOM     10  H   UNL     1       6.026   3.496  24.024  0.00  0.00    +0.158 HD
ATOM     11  C   UNL     1       7.265   2.476  22.801  0.00  0.00    +0.251 C 
ATOM     12  O   UNL     1       7.644   3.472  22.195  0.00  0.00    -0.270 OA
ATOM     13  O   UNL     1       5.581   1.793  25.788  0.00  0.00    -0.266 OA
ATOM     14  O   UNL     1       5.526  -0.741  24.408  0.00  0.00    -0.282 OA
ATOM     15  C   UNL     1       7.890   1.152  22.569  0.00  0.00    +0.050 A 
ATOM     16  C   UNL     1       8.880   1.047  21.582  0.00  0.00    +0.014 A 
ATOM     17  C   UNL     1       9.436  -0.193  21.280  0.00  0.00    +0.003 A 
ATOM     18  C   UNL     1       9.017  -1.327  21.973  0.00  0.00    +0.024 A 
ENDBRANCH   2   5
BRANCH   1  19
ATOM     19  C   UNL     1       6.900  -4.677  24.078  0.00  0.00    +0.292 C 
BRANCH  19  20
ATOM     20  C   UNL     1       5.433  -5.051  24.232  0.00  0.00    +0.003 A 
ATOM     21  C   UNL     1       4.492  -4.130  24.723  0.00  0.00    +0.027 A 
ATOM     22  C   UNL     1       3.145  -4.479  24.832  0.00  0.00    +0.041 A 
ATOM     23 CL   UNL     1       2.016  -3.317  25.414  0.00  0.00    -0.084 Cl
ATOM     24  C   UNL     1       2.712  -5.748  24.467  0.00  0.00    +0.020 A 
ATOM     25  C   UNL     1       3.635  -6.678  23.988  0.00  0.00    +0.002 A 
ATOM     26  C   UNL     1       4.985  -6.331  23.865  0.00  0.00    +0.008 A 
ENDBRANCH  19  20
BRANCH  19  27
ATOM     27  O   UNL     1       7.466  -4.246  25.335  0.00  0.00    -0.447 OA
BRANCH  27  28
ATOM     28  C   UNL     1       8.165  -5.167  26.038  0.00  0.00    +0.305 C 
ATOM     29  O   UNL     1       7.713  -5.888  26.914  0.00  0.00    -0.251 OA
ATOM     30  C   UNL     1       9.593  -5.184  25.577  0.00  0.00    +0.136 C 
ENDBRANCH  27  28
ENDBRANCH  19  27
ENDBRANCH   1  19
TORSDOF 5
ENDMDL
MODEL 8
REMARK VINA RESULT:      -6.7      3.150      7.304
REMARK  Name = 
REMARK  6 active torsions:
REMARK  status: ('A' for Active; 'I' for Inactive)
REMARK    1  A    between atoms: C_2  and  O_3
REMARK    2  A    between atoms: C_2  and  C_7
REMARK    3  A    between atoms: C_2  and  C_23
REMARK    4  A    between atoms: O_3  and  C_4
REMARK    5  A    between atoms: C_4  and  C_5
REMARK    6  A    between atoms: N_9  and  C_10
REMARK                            x       y       z     vdW  Elec       q    Type
REMARK                         _______ _______ _______ _____ _____    ______ ____
ROOT
ATOM      1  C   UNL     1       7.296  -1.444  23.994  0.00  0.00    +0.263 C 
ATOM      2  N   UNL     1       7.846  -2.712  23.815  0.00  0.00    -0.282 N 
ATOM      3  H   UNL     1       8.840  -2.725  23.629  0.00  0.00    +0.155 HD
ATOM      4  O   UNL     1       6.120  -1.173  23.754  0.00  0.00    -0.271 OA
ENDROOT
BRANCH   2   5
ATOM      5  C   UNL     1       7.095  -3.846  23.465  0.00  0.00    +0.045 A 
ATOM      6  C   UNL     1       6.409  -4.659  24.389  0.00  0.00    +0.060 A 
ATOM      7  C   UNL     1       6.585  -4.537  25.850  0.00  0.00    +0.250 C 
ATOM      8  C   UNL     1       5.533  -5.209  26.715  0.00  0.00    +0.291 C 
ATOM      9  N   UNL     1       5.045  -6.378  26.196  0.00  0.00    -0.246 N 
ATOM     10  H   UNL     1       4.399  -6.888  26.783  0.00  0.00    +0.158 HD
ATOM     11  C   UNL     1       4.950  -6.649  24.856  0.00  0.00    +0.251 C 
ATOM     12  O   UNL     1       4.267  -7.580  24.445  0.00  0.00    -0.270 OA
ATOM     13  O   UNL     1       5.156  -4.729  27.771  0.00  0.00    -0.266 OA
ATOM     14  O   UNL     1       7.585  -4.055  26.366  0.00  0.00    -0.282 OA
ATOM     15  C   UNL     1       5.655  -5.742  23.921  0.00  0.00    +0.050 A 
ATOM     16  C   UNL     1       5.584  -6.017  22.547  0.00  0.00    +0.014 A 
ATOM     17  C   UNL     1       6.297  -5.235  21.642  0.00  0.00    +0.003 A 
ATOM     18  C   UNL     1       7.066  -4.169  22.103  0.00  0.00    +0.024 A 
ENDBRANCH   2   5
BRANCH   1  19
ATOM     19  C   UNL     1       8.343  -0.382  24.404  0.00  0.00    +0.292 C 
BRANCH  19  20
ATOM     20  C   UNL     1       7.861   0.422  25.603  0.00  0.00    +0.003 A 
ATOM     21  C   UNL     1       7.632   1.806  25.512  0.00  0.00    +0.027 A 
ATOM     22  C   UNL     1       7.163   2.524  26.612  0.00  0.00    +0.041 A 
ATOM     23 CL   UNL     1       6.870   4.213  26.456  0.00  0.00    -0.084 Cl
ATOM     24  C   UNL     1       6.924   1.885  27.823  0.00  0.00    +0.020 A 
ATOM     25  C   UNL     1       7.156   0.514  27.934  0.00  0.00    +0.002 A 
ATOM     26  C   UNL     1       7.615  -0.215  26.832  0.00  0.00    +0.008 A 
ENDBRANCH  19  20
BRANCH  19  27
ATOM     27  O   UNL     1       8.513   0.461  23.243  0.00  0.00    -0.447 OA
BRANCH  27  28
ATOM     28  C   UNL     1       9.627   0.260  22.500  0.00  0.00    +0.305 C 
ATOM     29  O   UNL     1      10.175  -0.815  22.315  0.00  0.00    -0.251 OA
ATOM     30  C   UNL     1      10.094   1.563  21.921  0.00  0.00    +0.136 C 
ENDBRANCH  27  28
ENDBRANCH  19  27
ENDBRANCH   1  19
TORSDOF 5
ENDMDL
MODEL 9
REMARK VINA RESULT:      -6.6      2.373      4.033
REMARK  Name = 
REMARK  6 active torsions:
REMARK  status: ('A' for Active; 'I' for Inactive)
REMARK    1  A    between atoms: C_2  and  O_3
REMARK    2  A    between atoms: C_2  and  C_7
REMARK    3  A    between atoms: C_2  and  C_23
REMARK    4  A    between atoms: O_3  and  C_4
REMARK    5  A    between atoms: C_4  and  C_5
REMARK    6  A    between atoms: N_9  and  C_10
REMARK                            x       y       z     vdW  Elec       q    Type
REMARK                         _______ _______ _______ _____ _____    ______ ____
ROOT
ATOM      1  C   UNL     1       7.035  -0.107  23.933  0.00  0.00    +0.263 C 
ATOM      2  N   UNL     1       7.587   0.762  22.993  0.00  0.00    -0.282 N 
ATOM      3  H   UNL     1       8.449   0.445  22.571  0.00  0.00    +0.155 HD
ATOM      4  O   UNL     1       6.318   0.263  24.862  0.00  0.00    -0.271 OA
ENDROOT
BRANCH   2   5
ATOM      5  C   UNL     1       7.285   2.132  22.924  0.00  0.00    +0.045 A 
ATOM      6  C   UNL     1       8.219   3.163  23.149  0.00  0.00    +0.060 A 
ATOM      7  C   UNL     1       9.566   2.917  23.701  0.00  0.00    +0.250 C 
ATOM      8  C   UNL     1      10.574   4.043  23.550  0.00  0.00    +0.291 C 
ATOM      9  N   UNL     1      10.031   5.296  23.644  0.00  0.00    -0.246 N 
ATOM     10  H   UNL     1      10.686   6.065  23.623  0.00  0.00    +0.158 HD
ATOM     11  C   UNL     1       8.750   5.614  23.276  0.00  0.00    +0.251 C 
ATOM     12  O   UNL     1       8.404   6.780  23.125  0.00  0.00    -0.270 OA
ATOM     13  O   UNL     1      11.758   3.834  23.347  0.00  0.00    -0.266 OA
ATOM     14  O   UNL     1       9.844   1.934  24.376  0.00  0.00    -0.282 OA
ATOM     15  C   UNL     1       7.815   4.496  23.009  0.00  0.00    +0.050 A 
ATOM     16  C   UNL     1       6.494   4.803  22.650  0.00  0.00    +0.014 A 
ATOM     17  C   UNL     1       5.565   3.782  22.468  0.00  0.00    +0.003 A 
ATOM     18  C   UNL     1       5.955   2.455  22.626  0.00  0.00    +0.024 A 
ENDBRANCH   2   5
BRANCH   1  19
ATOM     19  C   UNL     1       7.518  -1.567  23.766  0.00  0.00    +0.292 C 
BRANCH  19  20
ATOM     20  C   UNL     1       6.548  -2.539  24.421  0.00  0.00    +0.003 A 
ATOM     21  C   UNL     1       5.495  -3.122  23.695  0.00  0.00    +0.027 A 
ATOM     22  C   UNL     1       4.630  -4.034  24.303  0.00  0.00    +0.041 A 
ATOM     23 CL   UNL     1       3.367  -4.746  23.377  0.00  0.00    -0.084 Cl
ATOM     24  C   UNL     1       4.790  -4.374  25.641  0.00  0.00    +0.020 A 
ATOM     25  C   UNL     1       5.824  -3.797  26.379  0.00  0.00    +0.002 A 
ATOM     26  C   UNL     1       6.701  -2.891  25.773  0.00  0.00    +0.008 A 
ENDBRANCH  19  20
BRANCH  19  27
ATOM     27  O   UNL     1       8.817  -1.618  24.396  0.00  0.00    -0.447 OA
BRANCH  27  28
ATOM     28  C   UNL     1       9.777  -2.329  23.760  0.00  0.00    +0.305 C 
ATOM     29  O   UNL     1      10.168  -3.442  24.077  0.00  0.00    -0.251 OA
ATOM     30  C   UNL     1      10.295  -1.549  22.588  0.00  0.00    +0.136 C 
ENDBRANCH  27  28
ENDBRANCH  19  27
ENDBRANCH   1  19
TORSDOF 5
ENDMDL
