MODEL 1
REMARK VINA RESULT:      -4.6      0.000      0.000
REMARK  Name = 
REMARK  5 active torsions:
REMARK  status: ('A' for Active; 'I' for Inactive)
REMARK    1  A    between atoms: O_1  and  C_2
REMARK    2  A    between atoms: C_2  and  C_3
REMARK    3  A    between atoms: C_8  and  O_10
REMARK    4  A    between atoms: C_11  and  O_13
REMARK    5  A    between atoms: C_14  and  O_16
REMARK                            x       y       z     vdW  Elec       q    Type
REMARK                         _______ _______ _______ _____ _____    ______ ____
ROOT
ATOM      1  C   UNL     1       8.977   0.194  21.661  0.00  0.00    +0.233 C 
ATOM      2  C   UNL     1      10.145   1.025  22.214  0.00  0.00    +0.189 C 
ATOM      3  C   UNL     1      10.088   1.179  23.733  0.00  0.00    +0.186 C 
ATOM      4  C   UNL     1       8.701   1.621  24.187  0.00  0.00    +0.254 C 
ATOM      5  C   UNL     1       7.587   0.779  23.561  0.00  0.00    +0.339 C 
ATOM      6  O   UNL     1       6.589   0.413  24.174  0.00  0.00    -0.248 OA
ATOM      7  O   UNL     1       7.699   0.566  22.225  0.00  0.00    -0.454 OA
ENDROOT
BRANCH   2   8
ATOM      8  O   UNL     1      10.058   2.330  21.617  0.00  0.00    -0.385 OA
ATOM      9  H   UNL     1       9.123   2.502  21.399  0.00  0.00    +0.210 HD
ENDBRANCH   2   8
BRANCH   3  10
ATOM     10  O   UNL     1      10.529   0.010  24.432  0.00  0.00    -0.386 OA
ATOM     11  H   UNL     1       9.922  -0.154  25.188  0.00  0.00    +0.210 HD
ENDBRANCH   3  10
BRANCH   4  12
ATOM     12  O   UNL     1       8.668   1.654  25.616  0.00  0.00    -0.378 OA
ATOM     13  H   UNL     1       8.523   2.589  25.862  0.00  0.00    +0.211 HD
ENDBRANCH   4  12
BRANCH   1  14
ATOM     14  C   UNL     1       9.148  -1.327  21.800  0.00  0.00    +0.203 C 
BRANCH  14  15
ATOM     15  O   UNL     1      10.526  -1.692  21.870  0.00  0.00    -0.391 OA
ATOM     16  H   UNL     1      10.673  -2.060  22.766  0.00  0.00    +0.210 HD
ENDBRANCH  14  15
ENDBRANCH   1  14
TORSDOF 5
ENDMDL
MODEL 2
REMARK VINA RESULT:      -4.6      5.441      6.294
REMARK  Name = 
REMARK  5 active torsions:
REMARK  status: ('A' for Active; 'I' for Inactive)
REMARK    1  A    between atoms: O_1  and  C_2
REMARK    2  A    between atoms: C_2  and  C_3
REMARK    3  A    between atoms: C_8  and  O_10
REMARK    4  A    between atoms: C_11  and  O_13
REMARK    5  A    between atoms: C_14  and  O_16
REMARK                            x       y       z     vdW  Elec       q    Type
REMARK                         _______ _______ _______ _____ _____    ______ ____
ROOT
ATOM      1  C   UNL     1       7.064  -4.615  23.371  0.00  0.00    +0.233 C 
ATOM      2  C   UNL     1       8.346  -3.960  23.909  0.00  0.00    +0.189 C 
ATOM      3  C   UNL     1       8.906  -4.684  25.133  0.00  0.00    +0.186 C 
ATOM      4  C   UNL     1       7.815  -4.929  26.170  0.00  0.00    +0.254 C 
ATOM      5  C   UNL     1       6.552  -5.538  25.555  0.00  0.00    +0.339 C 
ATOM      6  O   UNL     1       5.891  -6.416  26.099  0.00  0.00    -0.248 OA
ATOM      7  O   UNL     1       6.118  -4.948  24.412  0.00  0.00    -0.454 OA
ENDROOT
BRANCH   2   8
ATOM      8  O   UNL     1       8.011  -2.614  24.285  0.00  0.00    -0.385 OA
ATOM      9  H   UNL     1       8.167  -2.037  23.514  0.00  0.00    +0.210 HD
ENDBRANCH   2   8
BRANCH   3  10
ATOM     10  O   UNL     1       9.604  -5.889  24.801  0.00  0.00    -0.386 OA
ATOM     11  H   UNL     1      10.325  -5.672  24.168  0.00  0.00    +0.210 HD
ENDBRANCH   3  10
BRANCH   4  12
ATOM     12  O   UNL     1       8.360  -5.693  27.248  0.00  0.00    -0.378 OA
ATOM     13  H   UNL     1       7.756  -6.450  27.376  0.00  0.00    +0.211 HD
ENDBRANCH   4  12
BRANCH   1  14
ATOM     14  C   UNL     1       7.294  -5.862  22.503  0.00  0.00    +0.203 C 
BRANCH  14  15
ATOM     15  O   UNL     1       6.060  -6.488  22.154  0.00  0.00    -0.391 OA
ATOM     16  H   UNL     1       5.954  -6.377  21.187  0.00  0.00    +0.210 HD
ENDBRANCH  14  15
ENDBRANCH   1  14
TORSDOF 5
ENDMDL
MODEL 3
REMARK VINA RESULT:      -4.5      1.564      3.142
REMARK  Name = 
REMARK  5 active torsions:
REMARK  status: ('A' for Active; 'I' for Inactive)
REMARK    1  A    between atoms: O_1  and  C_2
REMARK    2  A    between atoms: C_2  and  C_3
REMARK    3  A    between atoms: C_8  and  O_10
REMARK    4  A    between atoms: C_11  and  O_13
REMARK    5  A    between atoms: C_14  and  O_16
REMARK                            x       y       z     vdW  Elec       q    Type
REMARK                         _______ _______ _______ _____ _____    ______ ____
ROOT
ATOM      1  C   UNL     1       8.555  -0.805  24.161  0.00  0.00    +0.233 C 
ATOM      2  C   UNL     1       7.940  -0.740  22.754  0.00  0.00    +0.189 C 
ATOM      3  C   UNL     1       8.796   0.063  21.776  0.00  0.00    +0.186 C 
ATOM      4  C   UNL     1       9.195   1.408  22.374  0.00  0.00    +0.254 C 
ATOM      5  C   UNL     1       9.755   1.271  23.792  0.00  0.00    +0.339 C 
ATOM      6  O   UNL     1      10.711   1.919  24.208  0.00  0.00    -0.248 OA
ATOM      7  O   UNL     1       9.039   0.476  24.627  0.00  0.00    -0.454 OA
ENDROOT
BRANCH   2   8
ATOM      8  O   UNL     1       6.660  -0.099  22.879  0.00  0.00    -0.385 OA
ATOM      9  H   UNL     1       6.433  -0.058  23.826  0.00  0.00    +0.210 HD
ENDBRANCH   2   8
BRANCH   3  10
ATOM     10  O   UNL     1       9.932  -0.664  21.296  0.00  0.00    -0.386 OA
ATOM     11  H   UNL     1       9.851  -0.771  20.322  0.00  0.00    +0.210 HD
ENDBRANCH   3  10
BRANCH   4  12
ATOM     12  O   UNL     1      10.073   2.079  21.467  0.00  0.00    -0.378 OA
ATOM     13  H   UNL     1      10.546   1.377  20.979  0.00  0.00    +0.211 HD
ENDBRANCH   4  12
BRANCH   1  14
ATOM     14  C   UNL     1       9.679  -1.840  24.325  0.00  0.00    +0.203 C 
BRANCH  14  15
ATOM     15  O   UNL     1       9.550  -2.903  23.381  0.00  0.00    -0.391 OA
ATOM     16  H   UNL     1       8.659  -2.817  22.983  0.00  0.00    +0.210 HD
ENDBRANCH  14  15
ENDBRANCH   1  14
TORSDOF 5
ENDMDL
MODEL 4
REMARK VINA RESULT:      -4.5      1.385      3.074
REMARK  Name = 
REMARK  5 active torsions:
REMARK  status: ('A' for Active; 'I' for Inactive)
REMARK    1  A    between atoms: O_1  and  C_2
REMARK    2  A    between atoms: C_2  and  C_3
REMARK    3  A    between atoms: C_8  and  O_10
REMARK    4  A    between atoms: C_11  and  O_13
REMARK    5  A    between atoms: C_14  and  O_16
REMARK                            x       y       z     vdW  Elec       q    Type
REMARK                         _______ _______ _______ _____ _____    ______ ____
ROOT
ATOM      1  C   UNL     1       8.818   1.074  21.534  0.00  0.00    +0.233 C 
ATOM      2  C   UNL     1       8.842  -0.335  22.147  0.00  0.00    +0.189 C 
ATOM      3  C   UNL     1       9.249  -0.327  23.620  0.00  0.00    +0.186 C 
ATOM      4  C   UNL     1      10.513   0.499  23.835  0.00  0.00    +0.254 C 
ATOM      5  C   UNL     1      10.435   1.869  23.158  0.00  0.00    +0.339 C 
ATOM      6  O   UNL     1      10.863   2.901  23.667  0.00  0.00    -0.248 OA
ATOM      7  O   UNL     1       9.980   1.863  21.879  0.00  0.00    -0.454 OA
ENDROOT
BRANCH   2   8
ATOM      8  O   UNL     1       9.806  -1.103  21.408  0.00  0.00    -0.385 OA
ATOM      9  H   UNL     1       9.324  -1.751  20.862  0.00  0.00    +0.210 HD
ENDBRANCH   2   8
BRANCH   3  10
ATOM     10  O   UNL     1       8.190   0.084  24.492  0.00  0.00    -0.386 OA
ATOM     11  H   UNL     1       8.196  -0.492  25.289  0.00  0.00    +0.210 HD
ENDBRANCH   3  10
BRANCH   4  12
ATOM     12  O   UNL     1      10.797   0.559  25.234  0.00  0.00    -0.378 OA
ATOM     13  H   UNL     1      10.833   1.509  25.462  0.00  0.00    +0.211 HD
ENDBRANCH   4  12
BRANCH   1  14
ATOM     14  C   UNL     1       7.558   1.894  21.857  0.00  0.00    +0.203 C 
BRANCH  14  15
ATOM     15  O   UNL     1       6.492   1.057  22.304  0.00  0.00    -0.391 OA
ATOM     16  H   UNL     1       5.804   1.084  21.608  0.00  0.00    +0.210 HD
ENDBRANCH  14  15
ENDBRANCH   1  14
TORSDOF 5
ENDMDL
MODEL 5
REMARK VINA RESULT:      -4.4      1.584      3.066
REMARK  Name = 
REMARK  5 active torsions:
REMARK  status: ('A' for Active; 'I' for Inactive)
REMARK    1  A    between atoms: O_1  and  C_2
REMARK    2  A    between atoms: C_2  and  C_3
REMARK    3  A    between atoms: C_8  and  O_10
REMARK    4  A    between atoms: C_11  and  O_13
REMARK    5  A    between atoms: C_14  and  O_16
REMARK                            x       y       z     vdW  Elec       q    Type
REMARK                         _______ _______ _______ _____ _____    ______ ____
ROOT
ATOM      1  C   UNL     1       9.187   0.974  23.310  0.00  0.00    +0.233 C 
ATOM      2  C   UNL     1      10.362   0.105  23.784  0.00  0.00    +0.189 C 
ATOM      3  C   UNL     1      10.182  -1.370  23.430  0.00  0.00    +0.186 C 
ATOM      4  C   UNL     1       8.798  -1.866  23.839  0.00  0.00    +0.254 C 
ATOM      5  C   UNL     1       7.682  -0.927  23.374  0.00  0.00    +0.339 C 
ATOM      6  O   UNL     1       6.607  -1.321  22.933  0.00  0.00    -0.248 OA
ATOM      7  O   UNL     1       7.897   0.393  23.606  0.00  0.00    -0.454 OA
ENDROOT
BRANCH   2   8
ATOM      8  O   UNL     1      10.433   0.229  25.214  0.00  0.00    -0.385 OA
ATOM      9  H   UNL     1       9.541   0.074  25.576  0.00  0.00    +0.210 HD
ENDBRANCH   2   8
BRANCH   3  10
ATOM     10  O   UNL     1      10.464  -1.656  22.056  0.00  0.00    -0.386 OA
ATOM     11  H   UNL     1      11.355  -2.067  21.995  0.00  0.00    +0.210 HD
ENDBRANCH   3  10
BRANCH   4  12
ATOM     12  O   UNL     1       8.639  -3.217  23.400  0.00  0.00    -0.378 OA
ATOM     13  H   UNL     1       9.173  -3.301  22.586  0.00  0.00    +0.211 HD
ENDBRANCH   4  12
BRANCH   1  14
ATOM     14  C   UNL     1       9.224   1.348  21.819  0.00  0.00    +0.203 C 
BRANCH  14  15
ATOM     15  O   UNL     1      10.263   2.287  21.543  0.00  0.00    -0.391 OA
ATOM     16  H   UNL     1      10.518   2.154  20.607  0.00  0.00    +0.210 HD
ENDBRANCH  14  15
ENDBRANCH   1  14
TORSDOF 5
ENDMDL
MODEL 6
REMARK VINA RESULT:      -4.4      1.496      2.978
REMARK  Name = 
REMARK  5 active torsions:
REMARK  status: ('A' for Active; 'I' for Inactive)
REMARK    1  A    between atoms: O_1  and  C_2
REMARK    2  A    between atoms: C_2  and  C_3
REMARK    3  A    between atoms: C_8  and  O_10
REMARK    4  A    between atoms: C_11  and  O_13
REMARK    5  A    between atoms: C_14  and  O_16
REMARK                            x       y       z     vdW  Elec       q    Type
REMARK                         _______ _______ _______ _____ _____    ______ ____
ROOT
ATOM      1  C   UNL     1       8.650  -0.979  24.000  0.00  0.00    +0.233 C 
ATOM      2  C   UNL     1      10.140  -0.896  23.636  0.00  0.00    +0.189 C 
ATOM      3  C   UNL     1      10.526   0.460  23.047  0.00  0.00    +0.186 C 
ATOM      4  C   UNL     1       9.561   0.869  21.939  0.00  0.00    +0.254 C 
ATOM      5  C   UNL     1       8.096   0.716  22.356  0.00  0.00    +0.339 C 
ATOM      6  O   UNL     1       7.220   1.523  22.062  0.00  0.00    -0.248 OA
ATOM      7  O   UNL     1       7.784  -0.455  22.968  0.00  0.00    -0.454 OA
ENDROOT
BRANCH   2   8
ATOM      8  O   UNL     1      10.396  -1.913  22.654  0.00  0.00    -0.385 OA
ATOM      9  H   UNL     1       9.563  -2.093  22.180  0.00  0.00    +0.210 HD
ENDBRANCH   2   8
BRANCH   3  10
ATOM     10  O   UNL     1      10.662   1.484  24.038  0.00  0.00    -0.386 OA
ATOM     11  H   UNL     1      10.665   1.065  24.927  0.00  0.00    +0.210 HD
ENDBRANCH   3  10
BRANCH   4  12
ATOM     12  O   UNL     1       9.900   2.183  21.488  0.00  0.00    -0.378 OA
ATOM     13  H   UNL     1      10.876   2.223  21.482  0.00  0.00    +0.211 HD
ENDBRANCH   4  12
BRANCH   1  14
ATOM     14  C   UNL     1       8.275  -0.315  25.335  0.00  0.00    +0.203 C 
BRANCH  14  15
ATOM     15  O   UNL     1       9.409  -0.199  26.195  0.00  0.00    -0.391 OA
ATOM     16  H   UNL     1       9.197  -0.704  27.006  0.00  0.00    +0.210 HD
ENDBRANCH  14  15
ENDBRANCH   1  14
TORSDOF 5
ENDMDL
MODEL 7
REMARK VINA RESULT:      -4.3      1.478      3.312
REMARK  Name = 
REMARK  5 active torsions:
REMARK  status: ('A' for Active; 'I' for Inactive)
REMARK    1  A    between atoms: O_1  and  C_2
REMARK    2  A    between atoms: C_2  and  C_3
REMARK    3  A    between atoms: C_8  and  O_10
REMARK    4  A    between atoms: C_11  and  O_13
REMARK    5  A    between atoms: C_14  and  O_16
REMARK                            x       y       z     vdW  Elec       q    Type
REMARK                         _______ _______ _______ _____ _____    ______ ____
ROOT
ATOM      1  C   UNL     1      10.227   0.457  22.623  0.00  0.00    +0.233 C 
ATOM      2  C   UNL     1       9.352  -0.513  21.815  0.00  0.00    +0.189 C 
ATOM      3  C   UNL     1       8.176  -1.058  22.625  0.00  0.00    +0.186 C 
ATOM      4  C   UNL     1       8.641  -1.576  23.983  0.00  0.00    +0.254 C 
ATOM      5  C   UNL     1       9.545  -0.578  24.708  0.00  0.00    +0.339 C 
ATOM      6  O   UNL     1       9.487  -0.365  25.916  0.00  0.00    -0.248 OA
ATOM      7  O   UNL     1      10.528  -0.025  23.953  0.00  0.00    -0.454 OA
ENDROOT
BRANCH   2   8
ATOM      8  O   UNL     1      10.188  -1.614  21.422  0.00  0.00    -0.385 OA
ATOM      9  H   UNL     1       9.683  -2.439  21.548  0.00  0.00    +0.210 HD
ENDBRANCH   2   8
BRANCH   3  10
ATOM     10  O   UNL     1       7.101  -0.121  22.753  0.00  0.00    -0.386 OA
ATOM     11  H   UNL     1       6.762   0.095  21.856  0.00  0.00    +0.210 HD
ENDBRANCH   3  10
BRANCH   4  12
ATOM     12  O   UNL     1       7.499  -1.981  24.741  0.00  0.00    -0.378 OA
ATOM     13  H   UNL     1       6.719  -1.656  24.251  0.00  0.00    +0.211 HD
ENDBRANCH   4  12
BRANCH   1  14
ATOM     14  C   UNL     1       9.669   1.885  22.735  0.00  0.00    +0.203 C 
BRANCH  14  15
ATOM     15  O   UNL     1       9.207   2.365  21.473  0.00  0.00    -0.391 OA
ATOM     16  H   UNL     1       8.699   3.181  21.654  0.00  0.00    +0.210 HD
ENDBRANCH  14  15
ENDBRANCH   1  14
TORSDOF 5
ENDMDL
MODEL 8
REMARK VINA RESULT:      -4.3      1.365      2.862
REMARK  Name = 
REMARK  5 active torsions:
REMARK  status: ('A' for Active; 'I' for Inactive)
REMARK    1  A    between atoms: O_1  and  C_2
REMARK    2  A    between atoms: C_2  and  C_3
REMARK    3  A    between atoms: C_8  and  O_10
REMARK    4  A    between atoms: C_11  and  O_13
REMARK    5  A    between atoms: C_14  and  O_16
REMARK                            x       y       z     vdW  Elec       q    Type
REMARK                         _______ _______ _______ _____ _____    ______ ____
ROOT
ATOM      1  C   UNL     1       9.851  -0.307  23.410  0.00  0.00    +0.233 C 
ATOM      2  C   UNL     1       9.944  -0.064  21.896  0.00  0.00    +0.189 C 
ATOM      3  C   UNL     1       9.225   1.212  21.460  0.00  0.00    +0.186 C 
ATOM      4  C   UNL     1       7.817   1.273  22.043  0.00  0.00    +0.254 C 
ATOM      5  C   UNL     1       7.796   0.975  23.545  0.00  0.00    +0.339 C 
ATOM      6  O   UNL     1       7.087   1.579  24.344  0.00  0.00    -0.248 OA
ATOM      7  O   UNL     1       8.518  -0.105  23.935  0.00  0.00    -0.454 OA
ENDROOT
BRANCH   2   8
ATOM      8  O   UNL     1       9.324  -1.186  21.246  0.00  0.00    -0.385 OA
ATOM      9  H   UNL     1       9.982  -1.903  21.186  0.00  0.00    +0.210 HD
ENDBRANCH   2   8
BRANCH   3  10
ATOM     10  O   UNL     1       9.971   2.400  21.743  0.00  0.00    -0.386 OA
ATOM     11  H   UNL     1      10.822   2.364  21.253  0.00  0.00    +0.210 HD
ENDBRANCH   3  10
BRANCH   4  12
ATOM     12  O   UNL     1       7.222   2.524  21.693  0.00  0.00    -0.378 OA
ATOM     13  H   UNL     1       7.942   3.184  21.722  0.00  0.00    +0.211 HD
ENDBRANCH   4  12
BRANCH   1  14
ATOM     14  C   UNL     1      10.838   0.514  24.255  0.00  0.00    +0.203 C 
BRANCH  14  15
ATOM     15  O   UNL     1      10.495   0.476  25.640  0.00  0.00    -0.391 OA
ATOM     16  H   UNL     1       9.575   0.145  25.691  0.00  0.00    +0.210 HD
ENDBRANCH  14  15
ENDBRANCH   1  14
TORSDOF 5
ENDMDL
MODEL 9
REMARK VINA RESULT:      -4.3      1.577      3.594
REMARK  Name = 
REMARK  5 active torsions:
REMARK  status: ('A' for Active; 'I' for Inactive)
REMARK    1  A    between atoms: O_1  and  C_2
REMARK    2  A    between atoms: C_2  and  C_3
REMARK    3  A    between atoms: C_8  and  O_10
REMARK    4  A    between atoms: C_11  and  O_13
REMARK    5  A    between atoms: C_14  and  O_16
REMARK                            x       y       z     vdW  Elec       q    Type
REMARK                         _______ _______ _______ _____ _____    ______ ____
ROOT
ATOM      1  C   UNL     1      10.218   0.579  23.162  0.00  0.00    +0.233 C 
ATOM      2  C   UNL     1       8.859   0.856  22.501  0.00  0.00    +0.189 C 
ATOM      3  C   UNL     1       7.848  -0.264  22.745  0.00  0.00    +0.186 C 
ATOM      4  C   UNL     1       8.457  -1.628  22.434  0.00  0.00    +0.254 C 
ATOM      5  C   UNL     1       9.829  -1.815  23.086  0.00  0.00    +0.339 C 
ATOM      6  O   UNL     1      10.198  -2.867  23.597  0.00  0.00    -0.248 OA
ATOM      7  O   UNL     1      10.687  -0.772  22.947  0.00  0.00    -0.454 OA
ENDROOT
BRANCH   2   8
ATOM      8  O   UNL     1       9.088   0.968  21.087  0.00  0.00    -0.385 OA
ATOM      9  H   UNL     1       8.545   1.705  20.749  0.00  0.00    +0.210 HD
ENDBRANCH   2   8
BRANCH   3  10
ATOM     10  O   UNL     1       7.272  -0.225  24.055  0.00  0.00    -0.386 OA
ATOM     11  H   UNL     1       7.563   0.600  24.503  0.00  0.00    +0.210 HD
ENDBRANCH   3  10
BRANCH   4  12
ATOM     12  O   UNL     1       7.513  -2.647  22.770  0.00  0.00    -0.378 OA
ATOM     13  H   UNL     1       6.824  -2.210  23.309  0.00  0.00    +0.211 HD
ENDBRANCH   4  12
BRANCH   1  14
ATOM     14  C   UNL     1      10.275   0.882  24.668  0.00  0.00    +0.203 C 
BRANCH  14  15
ATOM     15  O   UNL     1       9.269   1.820  25.048  0.00  0.00    -0.391 OA
ATOM     16  H   UNL     1       8.655   1.895  24.290  0.00  0.00    +0.210 HD
ENDBRANCH  14  15
ENDBRANCH   1  14
TORSDOF 5
ENDMDL
