MODEL 1
REMARK VINA RESULT:      -5.7      0.000      0.000
REMARK  Name = 
REMARK  4 active torsions:
REMARK  status: ('A' for Active; 'I' for Inactive)
REMARK    1  A    between atoms: C_2  and  O_3
REMARK    2  A    between atoms: C_9  and  O_10
REMARK    3  A    between atoms: O_10  and  C_11
REMARK    4  A    between atoms: N_13  and  O_14
REMARK                            x       y       z     vdW  Elec       q    Type
REMARK                         _______ _______ _______ _____ _____    ______ ____
ROOT
ATOM      1  C   UNL     1       9.082  -5.376  25.117  0.00  0.00    +0.395 C 
ATOM      2  C   UNL     1       7.872  -5.056  26.028  0.00  0.00    +0.311 C 
ATOM      3  O   UNL     1       7.138  -5.920  26.505  0.00  0.00    -0.266 OA
ATOM      4  N   UNL     1       7.796  -3.712  26.319  0.00  0.00    -0.143 N 
ATOM      5  C   UNL     1       8.495  -2.737  25.596  0.00  0.00    +0.106 A 
ATOM      6  C   UNL     1       8.400  -1.382  25.916  0.00  0.00    +0.033 A 
ATOM      7  C   UNL     1       9.074  -0.428  25.149  0.00  0.00    +0.048 A 
ATOM      8  C   UNL     1       9.833  -0.821  24.048  0.00  0.00    +0.124 A 
ATOM      9  C   UNL     1       9.928  -2.179  23.727  0.00  0.00    +0.093 A 
ATOM     10  C   UNL     1       9.273  -3.134  24.504  0.00  0.00    +0.152 A 
ATOM     11  O   UNL     1       9.389  -4.438  24.099  0.00  0.00    -0.453 OA
ENDROOT
BRANCH   4  12
ATOM     12  O   UNL     1       6.783  -3.266  27.190  0.00  0.00    -0.287 OA
ATOM     13  H   UNL     1       6.417  -2.521  26.683  0.00  0.00    +0.242 HD
ENDBRANCH   4  12
BRANCH   8  14
ATOM     14  O   UNL     1      10.521   0.014  23.211  0.00  0.00    -0.495 OA
ATOM     15  C   UNL     1       9.862   0.389  22.006  0.00  0.00    +0.277 C 
ENDBRANCH   8  14
BRANCH   1  16
ATOM     16  O   UNL     1      10.234  -5.578  25.933  0.00  0.00    -0.351 OA
ATOM     17  H   UNL     1      10.471  -4.702  26.279  0.00  0.00    +0.214 HD
ENDBRANCH   1  16
TORSDOF 3
ENDMDL
MODEL 2
REMARK VINA RESULT:      -5.7      2.687      4.521
REMARK  Name = 
REMARK  4 active torsions:
REMARK  status: ('A' for Active; 'I' for Inactive)
REMARK    1  A    between atoms: C_2  and  O_3
REMARK    2  A    between atoms: C_9  and  O_10
REMARK    3  A    between atoms: O_10  and  C_11
REMARK    4  A    between atoms: N_13  and  O_14
REMARK                            x       y       z     vdW  Elec       q    Type
REMARK                         _______ _______ _______ _____ _____    ______ ____
ROOT
ATOM      1  C   UNL     1       8.984  -1.534  25.236  0.00  0.00    +0.395 C 
ATOM      2  C   UNL     1       9.740  -2.203  24.063  0.00  0.00    +0.311 C 
ATOM      3  O   UNL     1      10.040  -3.396  24.046  0.00  0.00    -0.266 OA
ATOM      4  N   UNL     1       9.927  -1.330  23.015  0.00  0.00    -0.143 N 
ATOM      5  C   UNL     1       9.781   0.056  23.145  0.00  0.00    +0.106 A 
ATOM      6  C   UNL     1       9.974   0.917  22.063  0.00  0.00    +0.033 A 
ATOM      7  C   UNL     1       9.864   2.299  22.233  0.00  0.00    +0.048 A 
ATOM      8  C   UNL     1       9.577   2.832  23.489  0.00  0.00    +0.124 A 
ATOM      9  C   UNL     1       9.383   1.969  24.573  0.00  0.00    +0.093 A 
ATOM     10  C   UNL     1       9.471   0.588  24.401  0.00  0.00    +0.152 A 
ATOM     11  O   UNL     1       9.303  -0.182  25.521  0.00  0.00    -0.453 OA
ENDROOT
BRANCH   4  12
ATOM     12  O   UNL     1      10.546  -1.806  21.842  0.00  0.00    -0.287 OA
ATOM     13  H   UNL     1       9.857  -2.401  21.497  0.00  0.00    +0.242 HD
ENDBRANCH   4  12
BRANCH   8  14
ATOM     14  O   UNL     1       9.462   4.161  23.788  0.00  0.00    -0.495 OA
ATOM     15  C   UNL     1       8.690   4.489  24.939  0.00  0.00    +0.277 C 
ENDBRANCH   8  14
BRANCH   1  16
ATOM     16  O   UNL     1       7.581  -1.648  25.008  0.00  0.00    -0.351 OA
ATOM     17  H   UNL     1       7.233  -0.742  25.040  0.00  0.00    +0.214 HD
ENDBRANCH   1  16
TORSDOF 3
ENDMDL
MODEL 3
REMARK VINA RESULT:      -5.6      2.839      5.899
REMARK  Name = 
REMARK  4 active torsions:
REMARK  status: ('A' for Active; 'I' for Inactive)
REMARK    1  A    between atoms: C_2  and  O_3
REMARK    2  A    between atoms: C_9  and  O_10
REMARK    3  A    between atoms: O_10  and  C_11
REMARK    4  A    between atoms: N_13  and  O_14
REMARK                            x       y       z     vdW  Elec       q    Type
REMARK                         _______ _______ _______ _____ _____    ______ ____
ROOT
ATOM      1  C   UNL     1       9.701   2.260  22.845  0.00  0.00    +0.395 C 
ATOM      2  C   UNL     1       8.168   2.446  22.737  0.00  0.00    +0.311 C 
ATOM      3  O   UNL     1       7.626   3.547  22.642  0.00  0.00    -0.266 OA
ATOM      4  N   UNL     1       7.515   1.237  22.650  0.00  0.00    -0.143 N 
ATOM      5  C   UNL     1       8.121   0.020  22.982  0.00  0.00    +0.106 A 
ATOM      6  C   UNL     1       7.434  -1.191  22.881  0.00  0.00    +0.033 A 
ATOM      7  C   UNL     1       8.050  -2.385  23.261  0.00  0.00    +0.048 A 
ATOM      8  C   UNL     1       9.352  -2.376  23.760  0.00  0.00    +0.124 A 
ATOM      9  C   UNL     1      10.041  -1.163  23.861  0.00  0.00    +0.093 A 
ATOM     10  C   UNL     1       9.434   0.028  23.462  0.00  0.00    +0.152 A 
ATOM     11  O   UNL     1      10.165   1.174  23.629  0.00  0.00    -0.453 OA
ENDROOT
BRANCH   4  12
ATOM     12  O   UNL     1       6.116   1.237  22.484  0.00  0.00    -0.287 OA
ATOM     13  H   UNL     1       5.999   0.473  21.891  0.00  0.00    +0.242 HD
ENDBRANCH   4  12
BRANCH   8  14
ATOM     14  O   UNL     1      10.055  -3.470  24.181  0.00  0.00    -0.495 OA
ATOM     15  C   UNL     1       9.357  -4.393  25.012  0.00  0.00    +0.277 C 
ENDBRANCH   8  14
BRANCH   1  16
ATOM     16  O   UNL     1      10.248   2.160  21.531  0.00  0.00    -0.351 OA
ATOM     17  H   UNL     1      10.668   3.018  21.354  0.00  0.00    +0.214 HD
ENDBRANCH   1  16
TORSDOF 3
ENDMDL
MODEL 4
REMARK VINA RESULT:      -5.5      2.027      5.477
REMARK  Name = 
REMARK  4 active torsions:
REMARK  status: ('A' for Active; 'I' for Inactive)
REMARK    1  A    between atoms: C_2  and  O_3
REMARK    2  A    between atoms: C_9  and  O_10
REMARK    3  A    between atoms: O_10  and  C_11
REMARK    4  A    between atoms: N_13  and  O_14
REMARK                            x       y       z     vdW  Elec       q    Type
REMARK                         _______ _______ _______ _____ _____    ______ ____
ROOT
ATOM      1  C   UNL     1       9.748   0.910  24.425  0.00  0.00    +0.395 C 
ATOM      2  C   UNL     1       9.955   0.386  22.984  0.00  0.00    +0.311 C 
ATOM      3  O   UNL     1      10.178   1.121  22.023  0.00  0.00    -0.266 OA
ATOM      4  N   UNL     1       9.968  -0.990  22.941  0.00  0.00    -0.143 N 
ATOM      5  C   UNL     1       9.495  -1.788  23.990  0.00  0.00    +0.106 A 
ATOM      6  C   UNL     1       9.523  -3.182  23.918  0.00  0.00    +0.033 A 
ATOM      7  C   UNL     1       9.004  -3.952  24.962  0.00  0.00    +0.048 A 
ATOM      8  C   UNL     1       8.439  -3.334  26.077  0.00  0.00    +0.124 A 
ATOM      9  C   UNL     1       8.411  -1.937  26.148  0.00  0.00    +0.093 A 
ATOM     10  C   UNL     1       8.947  -1.167  25.117  0.00  0.00    +0.152 A 
ATOM     11  O   UNL     1       8.846   0.192  25.250  0.00  0.00    -0.453 OA
ENDROOT
BRANCH   4  12
ATOM     12  O   UNL     1      10.208  -1.624  21.706  0.00  0.00    -0.287 OA
ATOM     13  H   UNL     1      10.783  -0.970  21.270  0.00  0.00    +0.242 HD
ENDBRANCH   4  12
BRANCH   8  14
ATOM     14  O   UNL     1       7.883  -3.974  27.150  0.00  0.00    -0.495 OA
ATOM     15  C   UNL     1       7.609  -5.362  26.990  0.00  0.00    +0.277 C 
ENDBRANCH   8  14
BRANCH   1  16
ATOM     16  O   UNL     1      11.016   0.990  25.074  0.00  0.00    -0.351 OA
ATOM     17  H   UNL     1      11.115   0.158  25.565  0.00  0.00    +0.214 HD
ENDBRANCH   1  16
TORSDOF 3
ENDMDL
MODEL 5
REMARK VINA RESULT:      -5.4      3.063      5.696
REMARK  Name = 
REMARK  4 active torsions:
REMARK  status: ('A' for Active; 'I' for Inactive)
REMARK    1  A    between atoms: C_2  and  O_3
REMARK    2  A    between atoms: C_9  and  O_10
REMARK    3  A    between atoms: O_10  and  C_11
REMARK    4  A    between atoms: N_13  and  O_14
REMARK                            x       y       z     vdW  Elec       q    Type
REMARK                         _______ _______ _______ _____ _____    ______ ____
ROOT
ATOM      1  C   UNL     1       9.928   1.380  21.773  0.00  0.00    +0.395 C 
ATOM      2  C   UNL     1      10.154   1.752  23.258  0.00  0.00    +0.311 C 
ATOM      3  O   UNL     1      10.806   2.732  23.618  0.00  0.00    -0.266 OA
ATOM      4  N   UNL     1       9.450   0.923  24.102  0.00  0.00    -0.143 N 
ATOM      5  C   UNL     1       8.908  -0.300  23.689  0.00  0.00    +0.106 A 
ATOM      6  C   UNL     1       8.196  -1.119  24.567  0.00  0.00    +0.033 A 
ATOM      7  C   UNL     1       7.705  -2.354  24.138  0.00  0.00    +0.048 A 
ATOM      8  C   UNL     1       7.935  -2.787  22.832  0.00  0.00    +0.124 A 
ATOM      9  C   UNL     1       8.648  -1.965  21.952  0.00  0.00    +0.093 A 
ATOM     10  C   UNL     1       9.121  -0.723  22.373  0.00  0.00    +0.152 A 
ATOM     11  O   UNL     1       9.841   0.001  21.459  0.00  0.00    -0.453 OA
ENDROOT
BRANCH   4  12
ATOM     12  O   UNL     1       9.501   1.170  25.488  0.00  0.00    -0.287 OA
ATOM     13  H   UNL     1       9.777   2.103  25.500  0.00  0.00    +0.242 HD
ENDBRANCH   4  12
BRANCH   8  14
ATOM     14  O   UNL     1       7.524  -3.977  22.299  0.00  0.00    -0.495 OA
ATOM     15  C   UNL     1       7.348  -5.054  23.213  0.00  0.00    +0.277 C 
ENDBRANCH   8  14
BRANCH   1  16
ATOM     16  O   UNL     1       8.756   2.045  21.303  0.00  0.00    -0.351 OA
ATOM     17  H   UNL     1       9.017   2.969  21.158  0.00  0.00    +0.214 HD
ENDBRANCH   1  16
TORSDOF 3
ENDMDL
MODEL 6
REMARK VINA RESULT:      -5.4      2.513      3.010
REMARK  Name = 
REMARK  4 active torsions:
REMARK  status: ('A' for Active; 'I' for Inactive)
REMARK    1  A    between atoms: C_2  and  O_3
REMARK    2  A    between atoms: C_9  and  O_10
REMARK    3  A    between atoms: O_10  and  C_11
REMARK    4  A    between atoms: N_13  and  O_14
REMARK                            x       y       z     vdW  Elec       q    Type
REMARK                         _______ _______ _______ _____ _____    ______ ____
ROOT
ATOM      1  C   UNL     1       6.096  -4.838  22.019  0.00  0.00    +0.395 C 
ATOM      2  C   UNL     1       6.129  -5.386  23.466  0.00  0.00    +0.311 C 
ATOM      3  O   UNL     1       5.296  -6.177  23.909  0.00  0.00    -0.266 OA
ATOM      4  N   UNL     1       7.253  -4.968  24.142  0.00  0.00    -0.143 N 
ATOM      5  C   UNL     1       8.054  -3.908  23.703  0.00  0.00    +0.106 A 
ATOM      6  C   UNL     1       9.191  -3.509  24.408  0.00  0.00    +0.033 A 
ATOM      7  C   UNL     1       9.946  -2.419  23.969  0.00  0.00    +0.048 A 
ATOM      8  C   UNL     1       9.563  -1.711  22.831  0.00  0.00    +0.124 A 
ATOM      9  C   UNL     1       8.424  -2.112  22.124  0.00  0.00    +0.093 A 
ATOM     10  C   UNL     1       7.681  -3.212  22.549  0.00  0.00    +0.152 A 
ATOM     11  O   UNL     1       6.560  -3.514  21.820  0.00  0.00    -0.453 OA
ENDROOT
BRANCH   4  12
ATOM     12  O   UNL     1       7.462  -5.433  25.456  0.00  0.00    -0.287 OA
ATOM     13  H   UNL     1       8.294  -4.981  25.683  0.00  0.00    +0.242 HD
ENDBRANCH   4  12
BRANCH   8  14
ATOM     14  O   UNL     1      10.204  -0.620  22.312  0.00  0.00    -0.495 OA
ATOM     15  C   UNL     1       9.428   0.238  21.483  0.00  0.00    +0.277 C 
ENDBRANCH   8  14
BRANCH   1  16
ATOM     16  O   UNL     1       6.826  -5.725  21.173  0.00  0.00    -0.351 OA
ATOM     17  H   UNL     1       6.887  -6.563  21.658  0.00  0.00    +0.214 HD
ENDBRANCH   1  16
TORSDOF 3
ENDMDL
MODEL 7
REMARK VINA RESULT:      -5.3      2.525      5.458
REMARK  Name = 
REMARK  4 active torsions:
REMARK  status: ('A' for Active; 'I' for Inactive)
REMARK    1  A    between atoms: C_2  and  O_3
REMARK    2  A    between atoms: C_9  and  O_10
REMARK    3  A    between atoms: O_10  and  C_11
REMARK    4  A    between atoms: N_13  and  O_14
REMARK                            x       y       z     vdW  Elec       q    Type
REMARK                         _______ _______ _______ _____ _____    ______ ____
ROOT
ATOM      1  C   UNL     1       6.698  -2.428  22.616  0.00  0.00    +0.395 C 
ATOM      2  C   UNL     1       8.242  -2.339  22.572  0.00  0.00    +0.311 C 
ATOM      3  O   UNL     1       8.860  -1.743  21.691  0.00  0.00    -0.266 OA
ATOM      4  N   UNL     1       8.816  -2.908  23.688  0.00  0.00    -0.143 N 
ATOM      5  C   UNL     1       8.118  -3.763  24.549  0.00  0.00    +0.106 A 
ATOM      6  C   UNL     1       8.726  -4.323  25.674  0.00  0.00    +0.033 A 
ATOM      7  C   UNL     1       8.018  -5.208  26.490  0.00  0.00    +0.048 A 
ATOM      8  C   UNL     1       6.703  -5.553  26.179  0.00  0.00    +0.124 A 
ATOM      9  C   UNL     1       6.095  -4.991  25.052  0.00  0.00    +0.093 A 
ATOM     10  C   UNL     1       6.793  -4.091  24.247  0.00  0.00    +0.152 A 
ATOM     11  O   UNL     1       6.135  -3.617  23.143  0.00  0.00    -0.453 OA
ENDROOT
BRANCH   4  12
ATOM     12  O   UNL     1      10.216  -2.852  23.828  0.00  0.00    -0.287 OA
ATOM     13  H   UNL     1      10.301  -2.682  24.783  0.00  0.00    +0.242 HD
ENDBRANCH   4  12
BRANCH   8  14
ATOM     14  O   UNL     1       5.915  -6.418  26.885  0.00  0.00    -0.495 OA
ATOM     15  C   UNL     1       4.693  -6.811  26.268  0.00  0.00    +0.277 C 
ENDBRANCH   8  14
BRANCH   1  16
ATOM     16  O   UNL     1       6.191  -1.307  23.339  0.00  0.00    -0.351 OA
ATOM     17  H   UNL     1       6.889  -0.633  23.306  0.00  0.00    +0.214 HD
ENDBRANCH   1  16
TORSDOF 3
ENDMDL
MODEL 8
REMARK VINA RESULT:      -5.3      3.529      4.433
REMARK  Name = 
REMARK  4 active torsions:
REMARK  status: ('A' for Active; 'I' for Inactive)
REMARK    1  A    between atoms: C_2  and  O_3
REMARK    2  A    between atoms: C_9  and  O_10
REMARK    3  A    between atoms: O_10  and  C_11
REMARK    4  A    between atoms: N_13  and  O_14
REMARK                            x       y       z     vdW  Elec       q    Type
REMARK                         _______ _______ _______ _____ _____    ______ ____
ROOT
ATOM      1  C   UNL     1       9.590  -1.253  21.707  0.00  0.00    +0.395 C 
ATOM      2  C   UNL     1       8.278  -1.629  22.437  0.00  0.00    +0.311 C 
ATOM      3  O   UNL     1       7.630  -2.645  22.183  0.00  0.00    -0.266 OA
ATOM      4  N   UNL     1       7.998  -0.754  23.462  0.00  0.00    -0.143 N 
ATOM      5  C   UNL     1       8.614   0.497  23.583  0.00  0.00    +0.106 A 
ATOM      6  C   UNL     1       8.312   1.363  24.636  0.00  0.00    +0.033 A 
ATOM      7  C   UNL     1       8.911   2.623  24.707  0.00  0.00    +0.048 A 
ATOM      8  C   UNL     1       9.804   3.033  23.717  0.00  0.00    +0.124 A 
ATOM      9  C   UNL     1      10.107   2.165  22.663  0.00  0.00    +0.093 A 
ATOM     10  C   UNL     1       9.526   0.899  22.602  0.00  0.00    +0.152 A 
ATOM     11  O   UNL     1       9.849   0.127  21.517  0.00  0.00    -0.453 OA
ENDROOT
BRANCH   4  12
ATOM     12  O   UNL     1       6.866  -0.995  24.266  0.00  0.00    -0.287 OA
ATOM     13  H   UNL     1       7.281  -1.364  25.065  0.00  0.00    +0.242 HD
ENDBRANCH   4  12
BRANCH   8  14
ATOM     14  O   UNL     1      10.438   4.243  23.664  0.00  0.00    -0.495 OA
ATOM     15  C   UNL     1      11.813   4.223  23.294  0.00  0.00    +0.277 C 
ENDBRANCH   8  14
BRANCH   1  16
ATOM     16  O   UNL     1      10.688  -1.848  22.396  0.00  0.00    -0.351 OA
ATOM     17  H   UNL     1      10.541  -2.806  22.351  0.00  0.00    +0.214 HD
ENDBRANCH   1  16
TORSDOF 3
ENDMDL
MODEL 9
REMARK VINA RESULT:      -5.3      3.574      6.353
REMARK  Name = 
REMARK  4 active torsions:
REMARK  status: ('A' for Active; 'I' for Inactive)
REMARK    1  A    between atoms: C_2  and  O_3
REMARK    2  A    between atoms: C_9  and  O_10
REMARK    3  A    between atoms: O_10  and  C_11
REMARK    4  A    between atoms: N_13  and  O_14
REMARK                            x       y       z     vdW  Elec       q    Type
REMARK                         _______ _______ _______ _____ _____    ______ ____
ROOT
ATOM      1  C   UNL     1       7.730   2.336  24.368  0.00  0.00    +0.395 C 
ATOM      2  C   UNL     1       8.697   2.979  23.345  0.00  0.00    +0.311 C 
ATOM      3  O   UNL     1       8.904   4.190  23.279  0.00  0.00    -0.266 OA
ATOM      4  N   UNL     1       9.366   2.026  22.610  0.00  0.00    -0.143 N 
ATOM      5  C   UNL     1       8.955   0.689  22.546  0.00  0.00    +0.106 A 
ATOM      6  C   UNL     1       9.656  -0.256  21.793  0.00  0.00    +0.033 A 
ATOM      7  C   UNL     1       9.197  -1.573  21.713  0.00  0.00    +0.048 A 
ATOM      8  C   UNL     1       8.028  -1.952  22.371  0.00  0.00    +0.124 A 
ATOM      9  C   UNL     1       7.327  -1.004  23.125  0.00  0.00    +0.093 A 
ATOM     10  C   UNL     1       7.794   0.305  23.224  0.00  0.00    +0.152 A 
ATOM     11  O   UNL     1       7.028   1.177  23.952  0.00  0.00    -0.453 OA
ENDROOT
BRANCH   4  12
ATOM     12  O   UNL     1      10.331   2.449  21.675  0.00  0.00    -0.287 OA
ATOM     13  H   UNL     1       9.899   3.240  21.307  0.00  0.00    +0.242 HD
ENDBRANCH   4  12
BRANCH   8  14
ATOM     14  O   UNL     1       7.468  -3.199  22.355  0.00  0.00    -0.495 OA
ATOM     15  C   UNL     1       7.909  -4.105  23.361  0.00  0.00    +0.277 C 
ENDBRANCH   8  14
BRANCH   1  16
ATOM     16  O   UNL     1       8.450   2.045  25.565  0.00  0.00    -0.351 OA
ATOM     17  H   UNL     1       8.870   1.182  25.418  0.00  0.00    +0.214 HD
ENDBRANCH   1  16
TORSDOF 3
ENDMDL
