MODEL 1
REMARK VINA RESULT:      -7.1      0.000      0.000
REMARK  Name = 
REMARK  4 active torsions:
REMARK  status: ('A' for Active; 'I' for Inactive)
REMARK    1  A    between atoms: O_1  and  C_2
REMARK    2  A    between atoms: C_5  and  C_8
REMARK    3  A    between atoms: C_13  and  O_14
REMARK    4  A    between atoms: C_16  and  O_17
REMARK                            x       y       z     vdW  Elec       q    Type
REMARK                         _______ _______ _______ _____ _____    ______ ____
ROOT
ATOM      1  C   UNL     1       6.936  -2.565  22.780  0.00  0.00    +0.064 A 
ATOM      2  C   UNL     1       6.959  -3.326  24.067  0.00  0.00    +0.204 A 
ATOM      3  O   UNL     1       7.658  -3.016  25.028  0.00  0.00    -0.286 OA
ATOM      4  C   UNL     1       6.105  -4.518  24.174  0.00  0.00    +0.106 A 
ATOM      5  C   UNL     1       6.079  -5.299  25.337  0.00  0.00    +0.135 A 
ATOM      6  C   UNL     1       5.270  -6.429  25.412  0.00  0.00    +0.091 A 
ATOM      7  C   UNL     1       4.489  -6.775  24.315  0.00  0.00    +0.124 A 
ATOM      8  C   UNL     1       4.503  -6.006  23.153  0.00  0.00    +0.092 A 
ATOM      9  C   UNL     1       5.313  -4.872  23.087  0.00  0.00    +0.145 A 
ATOM     10  O   UNL     1       5.288  -4.145  21.925  0.00  0.00    -0.462 OA
ATOM     11  C   UNL     1       6.102  -3.039  21.837  0.00  0.00    +0.208 A 
ENDROOT
BRANCH   1  15
ATOM     12  C   UNL     1       9.337   0.905  21.947  0.00  0.00    +0.117 A 
ATOM     13  C   UNL     1       8.125   1.051  22.605  0.00  0.00    +0.046 A 
ATOM     14  C   UNL     1       7.350  -0.078  22.898  0.00  0.00    +0.012 A 
ATOM     15  C   UNL     1       7.788  -1.369  22.551  0.00  0.00    -0.011 A 
ATOM     16  C   UNL     1       9.039  -1.483  21.922  0.00  0.00    +0.012 A 
ATOM     17  C   UNL     1       9.808  -0.356  21.610  0.00  0.00    +0.046 A 
BRANCH  12  18
ATOM     18  O   UNL     1      10.036   2.031  21.635  0.00  0.00    -0.507 OA
ATOM     19  H   UNL     1       9.808   2.294  20.727  0.00  0.00    +0.292 HD
ENDBRANCH  12  18
ENDBRANCH   1  15
BRANCH   7  20
ATOM     20  O   UNL     1       3.686  -7.877  24.341  0.00  0.00    -0.507 OA
ATOM     21  H   UNL     1       3.886  -8.394  25.140  0.00  0.00    +0.292 HD
ENDBRANCH   7  20
BRANCH   5  22
ATOM     22  O   UNL     1       6.825  -5.008  26.450  0.00  0.00    -0.506 OA
ATOM     23  H   UNL     1       7.771  -5.160  26.226  0.00  0.00    +0.292 HD
ENDBRANCH   5  22
TORSDOF 4
ENDMDL
MODEL 2
REMARK VINA RESULT:      -6.8      0.148      1.086
REMARK  Name = 
REMARK  4 active torsions:
REMARK  status: ('A' for Active; 'I' for Inactive)
REMARK    1  A    between atoms: O_1  and  C_2
REMARK    2  A    between atoms: C_5  and  C_8
REMARK    3  A    between atoms: C_13  and  O_14
REMARK    4  A    between atoms: C_16  and  O_17
REMARK                            x       y       z     vdW  Elec       q    Type
REMARK                         _______ _______ _______ _____ _____    ______ ____
ROOT
ATOM      1  C   UNL     1       6.852  -2.510  22.677  0.00  0.00    +0.064 A 
ATOM      2  C   UNL     1       6.961  -3.256  23.969  0.00  0.00    +0.204 A 
ATOM      3  O   UNL     1       7.712  -2.925  24.884  0.00  0.00    -0.286 OA
ATOM      4  C   UNL     1       6.131  -4.457  24.140  0.00  0.00    +0.106 A 
ATOM      5  C   UNL     1       6.184  -5.224  25.311  0.00  0.00    +0.135 A 
ATOM      6  C   UNL     1       5.397  -6.364  25.446  0.00  0.00    +0.091 A 
ATOM      7  C   UNL     1       4.556  -6.733  24.401  0.00  0.00    +0.124 A 
ATOM      8  C   UNL     1       4.491  -5.977  23.232  0.00  0.00    +0.092 A 
ATOM      9  C   UNL     1       5.281  -4.833  23.105  0.00  0.00    +0.145 A 
ATOM     10  O   UNL     1       5.178  -4.121  21.939  0.00  0.00    -0.462 OA
ATOM     11  C   UNL     1       5.970  -3.006  21.791  0.00  0.00    +0.208 A 
ENDROOT
BRANCH   1  15
ATOM     12  C   UNL     1       9.290   0.968  22.001  0.00  0.00    +0.117 A 
ATOM     13  C   UNL     1       9.744  -0.279  21.594  0.00  0.00    +0.046 A 
ATOM     14  C   UNL     1       8.944  -1.411  21.792  0.00  0.00    +0.012 A 
ATOM     15  C   UNL     1       7.673  -1.306  22.385  0.00  0.00    -0.011 A 
ATOM     16  C   UNL     1       7.228  -0.023  22.748  0.00  0.00    +0.012 A 
ATOM     17  C   UNL     1       8.032   1.108  22.568  0.00  0.00    +0.046 A 
BRANCH  12  18
ATOM     18  O   UNL     1      10.119   2.035  21.837  0.00  0.00    -0.507 OA
ATOM     19  H   UNL     1       9.662   2.702  21.298  0.00  0.00    +0.292 HD
ENDBRANCH  12  18
ENDBRANCH   1  15
BRANCH   7  20
ATOM     20  O   UNL     1       3.771  -7.844  24.486  0.00  0.00    -0.507 OA
ATOM     21  H   UNL     1       4.315  -8.591  24.792  0.00  0.00    +0.292 HD
ENDBRANCH   7  20
BRANCH   5  22
ATOM     22  O   UNL     1       6.991  -4.911  26.374  0.00  0.00    -0.506 OA
ATOM     23  H   UNL     1       6.884  -3.952  26.562  0.00  0.00    +0.292 HD
ENDBRANCH   5  22
TORSDOF 4
ENDMDL
MODEL 3
REMARK VINA RESULT:      -6.8      1.953      7.183
REMARK  Name = 
REMARK  4 active torsions:
REMARK  status: ('A' for Active; 'I' for Inactive)
REMARK    1  A    between atoms: O_1  and  C_2
REMARK    2  A    between atoms: C_5  and  C_8
REMARK    3  A    between atoms: C_13  and  O_14
REMARK    4  A    between atoms: C_16  and  O_17
REMARK                            x       y       z     vdW  Elec       q    Type
REMARK                         _______ _______ _______ _____ _____    ______ ____
ROOT
ATOM      1  C   UNL     1       8.077  -1.725  22.831  0.00  0.00    +0.064 A 
ATOM      2  C   UNL     1       8.066  -0.677  23.897  0.00  0.00    +0.204 A 
ATOM      3  O   UNL     1       7.425  -0.775  24.941  0.00  0.00    -0.286 OA
ATOM      4  C   UNL     1       8.855   0.542  23.668  0.00  0.00    +0.106 A 
ATOM      5  C   UNL     1       8.886   1.582  24.607  0.00  0.00    +0.135 A 
ATOM      6  C   UNL     1       9.632   2.731  24.365  0.00  0.00    +0.091 A 
ATOM      7  C   UNL     1      10.347   2.835  23.176  0.00  0.00    +0.124 A 
ATOM      8  C   UNL     1      10.327   1.808  22.235  0.00  0.00    +0.092 A 
ATOM      9  C   UNL     1       9.580   0.656  22.487  0.00  0.00    +0.145 A 
ATOM     10  O   UNL     1       9.597  -0.329  21.534  0.00  0.00    -0.462 OA
ATOM     11  C   UNL     1       8.843  -1.458  21.759  0.00  0.00    +0.208 A 
ENDROOT
BRANCH   1  15
ATOM     12  C   UNL     1       5.814  -5.380  22.976  0.00  0.00    +0.117 A 
ATOM     13  C   UNL     1       7.140  -5.377  23.383  0.00  0.00    +0.046 A 
ATOM     14  C   UNL     1       7.875  -4.185  23.359  0.00  0.00    +0.012 A 
ATOM     15  C   UNL     1       7.285  -2.978  22.942  0.00  0.00    -0.011 A 
ATOM     16  C   UNL     1       5.929  -3.009  22.575  0.00  0.00    +0.012 A 
ATOM     17  C   UNL     1       5.196  -4.202  22.580  0.00  0.00    +0.046 A 
BRANCH  12  18
ATOM     18  O   UNL     1       5.150  -6.568  22.965  0.00  0.00    -0.507 OA
ATOM     19  H   UNL     1       4.686  -6.656  22.116  0.00  0.00    +0.292 HD
ENDBRANCH  12  18
ENDBRANCH   1  15
BRANCH   7  20
ATOM     20  O   UNL     1      11.087   3.945  22.893  0.00  0.00    -0.507 OA
ATOM     21  H   UNL     1      11.176   4.026  21.927  0.00  0.00    +0.292 HD
ENDBRANCH   7  20
BRANCH   5  22
ATOM     22  O   UNL     1       8.204   1.537  25.795  0.00  0.00    -0.506 OA
ATOM     23  H   UNL     1       8.764   1.059  26.447  0.00  0.00    +0.292 HD
ENDBRANCH   5  22
TORSDOF 4
ENDMDL
MODEL 4
REMARK VINA RESULT:      -6.8      1.649      7.090
REMARK  Name = 
REMARK  4 active torsions:
REMARK  status: ('A' for Active; 'I' for Inactive)
REMARK    1  A    between atoms: O_1  and  C_2
REMARK    2  A    between atoms: C_5  and  C_8
REMARK    3  A    between atoms: C_13  and  O_14
REMARK    4  A    between atoms: C_16  and  O_17
REMARK                            x       y       z     vdW  Elec       q    Type
REMARK                         _______ _______ _______ _____ _____    ______ ____
ROOT
ATOM      1  C   UNL     1       6.420  -2.167  23.696  0.00  0.00    +0.064 A 
ATOM      2  C   UNL     1       7.567  -1.886  22.779  0.00  0.00    +0.204 A 
ATOM      3  O   UNL     1       8.103  -2.741  22.078  0.00  0.00    -0.286 OA
ATOM      4  C   UNL     1       8.085  -0.511  22.729  0.00  0.00    +0.106 A 
ATOM      5  C   UNL     1       9.168  -0.165  21.910  0.00  0.00    +0.135 A 
ATOM      6  C   UNL     1       9.649   1.141  21.887  0.00  0.00    +0.091 A 
ATOM      7  C   UNL     1       9.040   2.099  22.691  0.00  0.00    +0.124 A 
ATOM      8  C   UNL     1       7.960   1.770  23.507  0.00  0.00    +0.092 A 
ATOM      9  C   UNL     1       7.481   0.459  23.522  0.00  0.00    +0.145 A 
ATOM     10  O   UNL     1       6.414   0.185  24.338  0.00  0.00    -0.462 OA
ATOM     11  C   UNL     1       5.949  -1.109  24.380  0.00  0.00    +0.208 A 
ENDROOT
BRANCH   1  15
ATOM     12  C   UNL     1       4.879  -6.168  24.034  0.00  0.00    +0.117 A 
ATOM     13  C   UNL     1       5.750  -5.684  24.999  0.00  0.00    +0.046 A 
ATOM     14  C   UNL     1       6.237  -4.374  24.905  0.00  0.00    +0.012 A 
ATOM     15  C   UNL     1       5.845  -3.527  23.852  0.00  0.00    -0.011 A 
ATOM     16  C   UNL     1       4.930  -4.037  22.915  0.00  0.00    +0.012 A 
ATOM     17  C   UNL     1       4.456  -5.352  22.995  0.00  0.00    +0.046 A 
BRANCH  12  18
ATOM     18  O   UNL     1       4.469  -7.462  24.132  0.00  0.00    -0.507 OA
ATOM     19  H   UNL     1       5.027  -7.914  24.787  0.00  0.00    +0.292 HD
ENDBRANCH  12  18
ENDBRANCH   1  15
BRANCH   7  20
ATOM     20  O   UNL     1       9.479   3.390  22.705  0.00  0.00    -0.507 OA
ATOM     21  H   UNL     1      10.129   3.509  21.991  0.00  0.00    +0.292 HD
ENDBRANCH   7  20
BRANCH   5  22
ATOM     22  O   UNL     1       9.808  -1.064  21.097  0.00  0.00    -0.506 OA
ATOM     23  H   UNL     1      10.622  -0.633  20.752  0.00  0.00    +0.292 HD
ENDBRANCH   5  22
TORSDOF 4
ENDMDL
MODEL 5
REMARK VINA RESULT:      -6.7      1.971      7.056
REMARK  Name = 
REMARK  4 active torsions:
REMARK  status: ('A' for Active; 'I' for Inactive)
REMARK    1  A    between atoms: O_1  and  C_2
REMARK    2  A    between atoms: C_5  and  C_8
REMARK    3  A    between atoms: C_13  and  O_14
REMARK    4  A    between atoms: C_16  and  O_17
REMARK                            x       y       z     vdW  Elec       q    Type
REMARK                         _______ _______ _______ _____ _____    ______ ____
ROOT
ATOM      1  C   UNL     1       7.984  -2.864  24.280  0.00  0.00    +0.064 A 
ATOM      2  C   UNL     1       8.208  -1.513  24.882  0.00  0.00    +0.204 A 
ATOM      3  O   UNL     1       7.921  -1.230  26.042  0.00  0.00    -0.286 OA
ATOM      4  C   UNL     1       8.792  -0.470  24.027  0.00  0.00    +0.106 A 
ATOM      5  C   UNL     1       9.018   0.828  24.505  0.00  0.00    +0.135 A 
ATOM      6  C   UNL     1       9.562   1.803  23.675  0.00  0.00    +0.091 A 
ATOM      7  C   UNL     1       9.876   1.473  22.360  0.00  0.00    +0.124 A 
ATOM      8  C   UNL     1       9.659   0.186  21.872  0.00  0.00    +0.092 A 
ATOM      9  C   UNL     1       9.117  -0.788  22.713  0.00  0.00    +0.145 A 
ATOM     10  O   UNL     1       8.927  -2.040  22.188  0.00  0.00    -0.462 OA
ATOM     11  C   UNL     1       8.369  -3.002  22.999  0.00  0.00    +0.208 A 
ENDROOT
BRANCH   1  15
ATOM     12  C   UNL     1       6.113  -5.970  26.592  0.00  0.00    +0.117 A 
ATOM     13  C   UNL     1       5.546  -5.574  25.389  0.00  0.00    +0.046 A 
ATOM     14  C   UNL     1       6.164  -4.578  24.622  0.00  0.00    +0.012 A 
ATOM     15  C   UNL     1       7.366  -3.979  25.042  0.00  0.00    -0.011 A 
ATOM     16  C   UNL     1       7.933  -4.434  26.245  0.00  0.00    +0.012 A 
ATOM     17  C   UNL     1       7.309  -5.415  27.024  0.00  0.00    +0.046 A 
BRANCH  12  18
ATOM     18  O   UNL     1       5.454  -6.904  27.333  0.00  0.00    -0.507 OA
ATOM     19  H   UNL     1       6.110  -7.432  27.818  0.00  0.00    +0.292 HD
ENDBRANCH  12  18
ENDBRANCH   1  15
BRANCH   7  20
ATOM     20  O   UNL     1      10.405   2.397  21.508  0.00  0.00    -0.507 OA
ATOM     21  H   UNL     1       9.956   2.326  20.649  0.00  0.00    +0.292 HD
ENDBRANCH   7  20
BRANCH   5  22
ATOM     22  O   UNL     1       8.730   1.212  25.789  0.00  0.00    -0.506 OA
ATOM     23  H   UNL     1       8.465   0.409  26.292  0.00  0.00    +0.292 HD
ENDBRANCH   5  22
TORSDOF 4
ENDMDL
MODEL 6
REMARK VINA RESULT:      -6.7      1.853      6.993
REMARK  Name = 
REMARK  4 active torsions:
REMARK  status: ('A' for Active; 'I' for Inactive)
REMARK    1  A    between atoms: O_1  and  C_2
REMARK    2  A    between atoms: C_5  and  C_8
REMARK    3  A    between atoms: C_13  and  O_14
REMARK    4  A    between atoms: C_16  and  O_17
REMARK                            x       y       z     vdW  Elec       q    Type
REMARK                         _______ _______ _______ _____ _____    ______ ____
ROOT
ATOM      1  C   UNL     1       6.855  -2.613  24.633  0.00  0.00    +0.064 A 
ATOM      2  C   UNL     1       8.074  -2.489  23.776  0.00  0.00    +0.204 A 
ATOM      3  O   UNL     1       8.869  -3.407  23.588  0.00  0.00    -0.286 OA
ATOM      4  C   UNL     1       8.335  -1.191  23.139  0.00  0.00    +0.106 A 
ATOM      5  C   UNL     1       9.464  -0.983  22.335  0.00  0.00    +0.135 A 
ATOM      6  C   UNL     1       9.697   0.258  21.750  0.00  0.00    +0.091 A 
ATOM      7  C   UNL     1       8.794   1.292  21.976  0.00  0.00    +0.124 A 
ATOM      8  C   UNL     1       7.667   1.099  22.771  0.00  0.00    +0.092 A 
ATOM      9  C   UNL     1       7.437  -0.150  23.351  0.00  0.00    +0.145 A 
ATOM     10  O   UNL     1       6.312  -0.292  24.120  0.00  0.00    -0.462 OA
ATOM     11  C   UNL     1       6.088  -1.511  24.718  0.00  0.00    +0.208 A 
ENDROOT
BRANCH   1  15
ATOM     12  C   UNL     1       5.736  -6.156  26.799  0.00  0.00    +0.117 A 
ATOM     13  C   UNL     1       5.327  -5.999  25.482  0.00  0.00    +0.046 A 
ATOM     14  C   UNL     1       5.708  -4.857  24.766  0.00  0.00    +0.012 A 
ATOM     15  C   UNL     1       6.516  -3.867  25.354  0.00  0.00    -0.011 A 
ATOM     16  C   UNL     1       6.945  -4.079  26.676  0.00  0.00    +0.012 A 
ATOM     17  C   UNL     1       6.552  -5.209  27.401  0.00  0.00    +0.046 A 
BRANCH  12  18
ATOM     18  O   UNL     1       5.303  -7.255  27.476  0.00  0.00    -0.507 OA
ATOM     19  H   UNL     1       4.390  -7.447  27.202  0.00  0.00    +0.292 HD
ENDBRANCH  12  18
ENDBRANCH   1  15
BRANCH   7  20
ATOM     20  O   UNL     1       8.984   2.526  21.428  0.00  0.00    -0.507 OA
ATOM     21  H   UNL     1       9.930   2.640  21.230  0.00  0.00    +0.292 HD
ENDBRANCH   7  20
BRANCH   5  22
ATOM     22  O   UNL     1      10.388  -1.962  22.075  0.00  0.00    -0.506 OA
ATOM     23  H   UNL     1      10.804  -2.218  22.929  0.00  0.00    +0.292 HD
ENDBRANCH   5  22
TORSDOF 4
ENDMDL
MODEL 7
REMARK VINA RESULT:      -6.6      1.088      2.544
REMARK  Name = 
REMARK  4 active torsions:
REMARK  status: ('A' for Active; 'I' for Inactive)
REMARK    1  A    between atoms: O_1  and  C_2
REMARK    2  A    between atoms: C_5  and  C_8
REMARK    3  A    between atoms: C_13  and  O_14
REMARK    4  A    between atoms: C_16  and  O_17
REMARK                            x       y       z     vdW  Elec       q    Type
REMARK                         _______ _______ _______ _____ _____    ______ ____
ROOT
ATOM      1  C   UNL     1       7.632  -2.351  23.921  0.00  0.00    +0.064 A 
ATOM      2  C   UNL     1       6.432  -3.110  23.454  0.00  0.00    +0.204 A 
ATOM      3  O   UNL     1       5.800  -2.826  22.439  0.00  0.00    -0.286 OA
ATOM      4  C   UNL     1       5.981  -4.249  24.267  0.00  0.00    +0.106 A 
ATOM      5  C   UNL     1       4.855  -5.003  23.912  0.00  0.00    +0.135 A 
ATOM      6  C   UNL     1       4.440  -6.070  24.702  0.00  0.00    +0.091 A 
ATOM      7  C   UNL     1       5.158  -6.378  25.854  0.00  0.00    +0.124 A 
ATOM      8  C   UNL     1       6.281  -5.638  26.218  0.00  0.00    +0.092 A 
ATOM      9  C   UNL     1       6.694  -4.571  25.417  0.00  0.00    +0.145 A 
ATOM     10  O   UNL     1       7.807  -3.877  25.814  0.00  0.00    -0.462 OA
ATOM     11  C   UNL     1       8.209  -2.808  25.047  0.00  0.00    +0.208 A 
ENDROOT
BRANCH   1  15
ATOM     12  C   UNL     1       9.246   1.121  21.962  0.00  0.00    +0.117 A 
ATOM     13  C   UNL     1       9.699  -0.141  21.605  0.00  0.00    +0.046 A 
ATOM     14  C   UNL     1       9.160  -1.276  22.225  0.00  0.00    +0.012 A 
ATOM     15  C   UNL     1       8.150  -1.161  23.197  0.00  0.00    -0.011 A 
ATOM     16  C   UNL     1       7.687   0.130  23.504  0.00  0.00    +0.012 A 
ATOM     17  C   UNL     1       8.235   1.267  22.901  0.00  0.00    +0.046 A 
BRANCH  12  18
ATOM     18  O   UNL     1       9.831   2.201  21.373  0.00  0.00    -0.507 OA
ATOM     19  H   UNL     1       9.154   2.887  21.244  0.00  0.00    +0.292 HD
ENDBRANCH  12  18
ENDBRANCH   1  15
BRANCH   7  20
ATOM     20  O   UNL     1       4.786  -7.411  26.662  0.00  0.00    -0.507 OA
ATOM     21  H   UNL     1       4.776  -8.231  26.139  0.00  0.00    +0.292 HD
ENDBRANCH   7  20
BRANCH   5  22
ATOM     22  O   UNL     1       4.109  -4.749  22.790  0.00  0.00    -0.506 OA
ATOM     23  H   UNL     1       4.541  -4.013  22.301  0.00  0.00    +0.292 HD
ENDBRANCH   5  22
TORSDOF 4
ENDMDL
MODEL 8
REMARK VINA RESULT:      -6.6      1.826      7.151
REMARK  Name = 
REMARK  4 active torsions:
REMARK  status: ('A' for Active; 'I' for Inactive)
REMARK    1  A    between atoms: O_1  and  C_2
REMARK    2  A    between atoms: C_5  and  C_8
REMARK    3  A    between atoms: C_13  and  O_14
REMARK    4  A    between atoms: C_16  and  O_17
REMARK                            x       y       z     vdW  Elec       q    Type
REMARK                         _______ _______ _______ _____ _____    ______ ____
ROOT
ATOM      1  C   UNL     1       7.890  -2.912  23.711  0.00  0.00    +0.064 A 
ATOM      2  C   UNL     1       7.325  -1.594  23.287  0.00  0.00    +0.204 A 
ATOM      3  O   UNL     1       6.154  -1.432  22.953  0.00  0.00    -0.286 OA
ATOM      4  C   UNL     1       8.232  -0.437  23.258  0.00  0.00    +0.106 A 
ATOM      5  C   UNL     1       7.789   0.830  22.856  0.00  0.00    +0.135 A 
ATOM      6  C   UNL     1       8.668   1.909  22.826  0.00  0.00    +0.091 A 
ATOM      7  C   UNL     1       9.994   1.712  23.198  0.00  0.00    +0.124 A 
ATOM      8  C   UNL     1      10.446   0.458  23.602  0.00  0.00    +0.092 A 
ATOM      9  C   UNL     1       9.558  -0.619  23.634  0.00  0.00    +0.145 A 
ATOM     10  O   UNL     1      10.050  -1.831  24.044  0.00  0.00    -0.462 OA
ATOM     11  C   UNL     1       9.190  -2.906  24.054  0.00  0.00    +0.208 A 
ENDROOT
BRANCH   1  15
ATOM     12  C   UNL     1       5.377  -6.402  23.766  0.00  0.00    +0.117 A 
ATOM     13  C   UNL     1       6.049  -6.059  22.602  0.00  0.00    +0.046 A 
ATOM     14  C   UNL     1       6.886  -4.936  22.586  0.00  0.00    +0.012 A 
ATOM     15  C   UNL     1       7.073  -4.153  23.740  0.00  0.00    -0.011 A 
ATOM     16  C   UNL     1       6.409  -4.554  24.912  0.00  0.00    +0.012 A 
ATOM     17  C   UNL     1       5.557  -5.664  24.927  0.00  0.00    +0.046 A 
BRANCH  12  18
ATOM     18  O   UNL     1       4.533  -7.470  23.727  0.00  0.00    -0.507 OA
ATOM     19  H   UNL     1       3.975  -7.394  22.935  0.00  0.00    +0.292 HD
ENDBRANCH  12  18
ENDBRANCH   1  15
BRANCH   7  20
ATOM     20  O   UNL     1      10.892   2.738  23.179  0.00  0.00    -0.507 OA
ATOM     21  H   UNL     1      10.910   3.123  22.286  0.00  0.00    +0.292 HD
ENDBRANCH   7  20
BRANCH   5  22
ATOM     22  O   UNL     1       6.496   1.086  22.479  0.00  0.00    -0.506 OA
ATOM     23  H   UNL     1       6.239   0.414  21.809  0.00  0.00    +0.292 HD
ENDBRANCH   5  22
TORSDOF 4
ENDMDL
MODEL 9
REMARK VINA RESULT:      -6.4      2.937      3.221
REMARK  Name = 
REMARK  4 active torsions:
REMARK  status: ('A' for Active; 'I' for Inactive)
REMARK    1  A    between atoms: O_1  and  C_2
REMARK    2  A    between atoms: C_5  and  C_8
REMARK    3  A    between atoms: C_13  and  O_14
REMARK    4  A    between atoms: C_16  and  O_17
REMARK                            x       y       z     vdW  Elec       q    Type
REMARK                         _______ _______ _______ _____ _____    ______ ____
ROOT
ATOM      1  C   UNL     1       8.683  -1.982  24.571  0.00  0.00    +0.064 A 
ATOM      2  C   UNL     1       7.459  -1.988  25.430  0.00  0.00    +0.204 A 
ATOM      3  O   UNL     1       6.692  -1.033  25.528  0.00  0.00    -0.286 OA
ATOM      4  C   UNL     1       7.172  -3.202  26.207  0.00  0.00    +0.106 A 
ATOM      5  C   UNL     1       6.056  -3.286  27.050  0.00  0.00    +0.135 A 
ATOM      6  C   UNL     1       5.810  -4.442  27.785  0.00  0.00    +0.091 A 
ATOM      7  C   UNL     1       6.689  -5.515  27.672  0.00  0.00    +0.124 A 
ATOM      8  C   UNL     1       7.801  -5.446  26.835  0.00  0.00    +0.092 A 
ATOM      9  C   UNL     1       8.039  -4.285  26.098  0.00  0.00    +0.145 A 
ATOM     10  O   UNL     1       9.142  -4.267  25.286  0.00  0.00    -0.462 OA
ATOM     11  C   UNL     1       9.402  -3.119  24.574  0.00  0.00    +0.208 A 
ENDROOT
BRANCH   1  15
ATOM     12  C   UNL     1      10.021   1.385  22.255  0.00  0.00    +0.117 A 
ATOM     13  C   UNL     1       9.348   0.347  21.629  0.00  0.00    +0.046 A 
ATOM     14  C   UNL     1       8.890  -0.741  22.383  0.00  0.00    +0.012 A 
ATOM     15  C   UNL     1       9.088  -0.795  23.775  0.00  0.00    -0.011 A 
ATOM     16  C   UNL     1       9.738   0.294  24.381  0.00  0.00    +0.012 A 
ATOM     17  C   UNL     1      10.213   1.375  23.629  0.00  0.00    +0.046 A 
BRANCH  12  18
ATOM     18  O   UNL     1      10.495   2.400  21.480  0.00  0.00    -0.507 OA
ATOM     19  H   UNL     1      11.125   2.031  20.839  0.00  0.00    +0.292 HD
ENDBRANCH  12  18
ENDBRANCH   1  15
BRANCH   7  20
ATOM     20  O   UNL     1       6.491  -6.665  28.376  0.00  0.00    -0.507 OA
ATOM     21  H   UNL     1       5.681  -7.096  28.054  0.00  0.00    +0.292 HD
ENDBRANCH   7  20
BRANCH   5  22
ATOM     22  O   UNL     1       5.155  -2.264  27.202  0.00  0.00    -0.506 OA
ATOM     23  H   UNL     1       5.471  -1.690  27.935  0.00  0.00    +0.292 HD
ENDBRANCH   5  22
TORSDOF 4
ENDMDL
