MODEL 1
REMARK VINA RESULT:      -6.4      0.000      0.000
REMARK  Name = 
REMARK  4 active torsions:
REMARK  status: ('A' for Active; 'I' for Inactive)
REMARK    1  A    between atoms: C_1  and  O_2
REMARK    2  A    between atoms: O_2  and  C_3
REMARK    3  A    between atoms: C_7  and  C_8
REMARK    4  A    between atoms: C_8  and  C_9
REMARK                            x       y       z     vdW  Elec       q    Type
REMARK                         _______ _______ _______ _____ _____    ______ ____
ROOT
ATOM      1  C   UNL     1       8.134  -3.422  24.198  0.00  0.00    -0.016 A 
ATOM      2  C   UNL     1       7.324  -4.392  23.508  0.00  0.00    +0.022 A 
ATOM      3  C   UNL     1       7.514  -5.395  22.542  0.00  0.00    +0.013 A 
ATOM      4  C   UNL     1       6.389  -6.067  22.056  0.00  0.00    +0.020 A 
ATOM      5  C   UNL     1       5.134  -5.732  22.549  0.00  0.00    +0.113 A 
ATOM      6  N   UNL     1       4.894  -4.824  23.517  0.00  0.00    -0.237 NA
ATOM      7  C   UNL     1       6.012  -4.208  23.947  0.00  0.00    +0.138 A 
ATOM      8  N   UNL     1       6.017  -3.269  24.930  0.00  0.00    -0.346 N 
ATOM      9  H   UNL     1       5.187  -2.981  25.433  0.00  0.00    +0.167 HD
ATOM     10  C   UNL     1       7.280  -2.789  25.100  0.00  0.00    +0.089 A 
ENDROOT
BRANCH   1  11
ATOM     11  C   UNL     1       9.577  -3.032  24.112  0.00  0.00    +0.072 C 
BRANCH  11  14
ATOM     12  C   UNL     1      10.259   0.658  23.535  0.00  0.00    +0.120 A 
ATOM     13  C   UNL     1      10.257  -0.612  24.119  0.00  0.00    +0.049 A 
ATOM     14  C   UNL     1       9.830  -1.736  23.391  0.00  0.00    -0.040 A 
ATOM     15  C   UNL     1       9.481  -1.574  22.042  0.00  0.00    +0.004 A 
ATOM     16  C   UNL     1       9.523  -0.313  21.444  0.00  0.00    +0.004 A 
ATOM     17  C   UNL     1       9.905   0.800  22.193  0.00  0.00    +0.045 A 
BRANCH  12  19
ATOM     18  C   UNL     1      10.648   2.977  23.363  0.00  0.00    +0.277 C 
ATOM     19  O   UNL     1      10.573   1.819  24.189  0.00  0.00    -0.495 OA
ENDBRANCH  12  19
ENDBRANCH  11  14
ENDBRANCH   1  11
TORSDOF 3
ENDMDL
MODEL 2
REMARK VINA RESULT:      -6.3      3.095      6.551
REMARK  Name = 
REMARK  4 active torsions:
REMARK  status: ('A' for Active; 'I' for Inactive)
REMARK    1  A    between atoms: C_1  and  O_2
REMARK    2  A    between atoms: O_2  and  C_3
REMARK    3  A    between atoms: C_7  and  C_8
REMARK    4  A    between atoms: C_8  and  C_9
REMARK                            x       y       z     vdW  Elec       q    Type
REMARK                         _______ _______ _______ _____ _____    ______ ____
ROOT
ATOM      1  C   UNL     1       9.779  -1.637  23.163  0.00  0.00    -0.016 A 
ATOM      2  C   UNL     1      10.123  -0.251  23.339  0.00  0.00    +0.022 A 
ATOM      3  C   UNL     1      10.614   0.568  24.369  0.00  0.00    +0.013 A 
ATOM      4  C   UNL     1      10.714   1.942  24.134  0.00  0.00    +0.020 A 
ATOM      5  C   UNL     1      10.337   2.445  22.895  0.00  0.00    +0.113 A 
ATOM      6  N   UNL     1       9.917   1.705  21.848  0.00  0.00    -0.237 NA
ATOM      7  C   UNL     1       9.840   0.391  22.132  0.00  0.00    +0.138 A 
ATOM      8  N   UNL     1       9.457  -0.548  21.227  0.00  0.00    -0.346 N 
ATOM      9  H   UNL     1       9.228  -0.337  20.263  0.00  0.00    +0.167 HD
ATOM     10  C   UNL     1       9.420  -1.772  21.823  0.00  0.00    +0.089 A 
ENDROOT
BRANCH   1  11
ATOM     11  C   UNL     1       9.750  -2.819  24.083  0.00  0.00    +0.072 C 
BRANCH  11  14
ATOM     12  C   UNL     1       6.597  -4.909  23.751  0.00  0.00    +0.120 A 
ATOM     13  C   UNL     1       7.941  -4.525  23.711  0.00  0.00    +0.049 A 
ATOM     14  C   UNL     1       8.373  -3.357  24.363  0.00  0.00    -0.040 A 
ATOM     15  C   UNL     1       7.447  -2.625  25.122  0.00  0.00    +0.004 A 
ATOM     16  C   UNL     1       6.113  -3.031  25.198  0.00  0.00    +0.004 A 
ATOM     17  C   UNL     1       5.690  -4.167  24.508  0.00  0.00    +0.045 A 
BRANCH  12  19
ATOM     18  C   UNL     1       6.569  -6.166  21.757  0.00  0.00    +0.277 C 
ATOM     19  O   UNL     1       6.069  -5.978  23.078  0.00  0.00    -0.495 OA
ENDBRANCH  12  19
ENDBRANCH  11  14
ENDBRANCH   1  11
TORSDOF 3
ENDMDL
MODEL 3
REMARK VINA RESULT:      -6.3      3.233      6.593
REMARK  Name = 
REMARK  4 active torsions:
REMARK  status: ('A' for Active; 'I' for Inactive)
REMARK    1  A    between atoms: C_1  and  O_2
REMARK    2  A    between atoms: O_2  and  C_3
REMARK    3  A    between atoms: C_7  and  C_8
REMARK    4  A    between atoms: C_8  and  C_9
REMARK                            x       y       z     vdW  Elec       q    Type
REMARK                         _______ _______ _______ _____ _____    ______ ____
ROOT
ATOM      1  C   UNL     1       9.781   0.810  22.815  0.00  0.00    -0.016 A 
ATOM      2  C   UNL     1       9.176   2.052  23.216  0.00  0.00    +0.022 A 
ATOM      3  C   UNL     1       9.183   2.886  24.347  0.00  0.00    +0.013 A 
ATOM      4  C   UNL     1       8.337   3.999  24.355  0.00  0.00    +0.020 A 
ATOM      5  C   UNL     1       7.534   4.246  23.249  0.00  0.00    +0.113 A 
ATOM      6  N   UNL     1       7.526   3.520  22.113  0.00  0.00    -0.237 NA
ATOM      7  C   UNL     1       8.359   2.462  22.161  0.00  0.00    +0.138 A 
ATOM      8  N   UNL     1       8.531   1.598  21.126  0.00  0.00    -0.346 N 
ATOM      9  H   UNL     1       8.069   1.699  20.230  0.00  0.00    +0.167 HD
ATOM     10  C   UNL     1       9.384   0.603  21.495  0.00  0.00    +0.089 A 
ENDROOT
BRANCH   1  11
ATOM     11  C   UNL     1      10.666  -0.180  23.509  0.00  0.00    +0.072 C 
BRANCH  11  14
ATOM     12  C   UNL     1       9.010  -3.452  24.491  0.00  0.00    +0.120 A 
ATOM     13  C   UNL     1       9.883  -2.537  23.895  0.00  0.00    +0.049 A 
ATOM     14  C   UNL     1       9.932  -1.203  24.332  0.00  0.00    -0.040 A 
ATOM     15  C   UNL     1       9.146  -0.823  25.431  0.00  0.00    +0.004 A 
ATOM     16  C   UNL     1       8.305  -1.746  26.055  0.00  0.00    +0.004 A 
ATOM     17  C   UNL     1       8.234  -3.056  25.580  0.00  0.00    +0.045 A 
BRANCH  12  19
ATOM     18  C   UNL     1       7.638  -4.982  23.334  0.00  0.00    +0.277 C 
ATOM     19  O   UNL     1       8.831  -4.745  24.077  0.00  0.00    -0.495 OA
ENDBRANCH  12  19
ENDBRANCH  11  14
ENDBRANCH   1  11
TORSDOF 3
ENDMDL
MODEL 4
REMARK VINA RESULT:      -6.2      3.590      6.499
REMARK  Name = 
REMARK  4 active torsions:
REMARK  status: ('A' for Active; 'I' for Inactive)
REMARK    1  A    between atoms: C_1  and  O_2
REMARK    2  A    between atoms: O_2  and  C_3
REMARK    3  A    between atoms: C_7  and  C_8
REMARK    4  A    between atoms: C_8  and  C_9
REMARK                            x       y       z     vdW  Elec       q    Type
REMARK                         _______ _______ _______ _____ _____    ______ ____
ROOT
ATOM      1  C   UNL     1       9.822  -1.629  23.146  0.00  0.00    -0.016 A 
ATOM      2  C   UNL     1      10.165  -0.241  23.314  0.00  0.00    +0.022 A 
ATOM      3  C   UNL     1      10.699   0.576  24.324  0.00  0.00    +0.013 A 
ATOM      4  C   UNL     1      10.779   1.952  24.092  0.00  0.00    +0.020 A 
ATOM      5  C   UNL     1      10.341   2.458  22.875  0.00  0.00    +0.113 A 
ATOM      6  N   UNL     1       9.877   1.722  21.845  0.00  0.00    -0.237 NA
ATOM      7  C   UNL     1       9.822   0.406  22.124  0.00  0.00    +0.138 A 
ATOM      8  N   UNL     1       9.403  -0.532  21.233  0.00  0.00    -0.346 N 
ATOM      9  H   UNL     1       9.128  -0.316  20.283  0.00  0.00    +0.167 HD
ATOM     10  C   UNL     1       9.401  -1.759  21.824  0.00  0.00    +0.089 A 
ENDROOT
BRANCH   1  11
ATOM     11  C   UNL     1       9.843  -2.816  24.060  0.00  0.00    +0.072 C 
BRANCH  11  14
ATOM     12  C   UNL     1       7.536  -4.087  26.794  0.00  0.00    +0.120 A 
ATOM     13  C   UNL     1       8.679  -3.882  26.017  0.00  0.00    +0.049 A 
ATOM     14  C   UNL     1       8.724  -2.848  25.066  0.00  0.00    -0.040 A 
ATOM     15  C   UNL     1       7.631  -1.975  24.965  0.00  0.00    +0.004 A 
ATOM     16  C   UNL     1       6.504  -2.153  25.771  0.00  0.00    +0.004 A 
ATOM     17  C   UNL     1       6.457  -3.212  26.678  0.00  0.00    +0.045 A 
BRANCH  12  19
ATOM     18  C   UNL     1       6.015  -5.406  28.023  0.00  0.00    +0.277 C 
ATOM     19  O   UNL     1       7.368  -5.118  27.680  0.00  0.00    -0.495 OA
ENDBRANCH  12  19
ENDBRANCH  11  14
ENDBRANCH   1  11
TORSDOF 3
ENDMDL
MODEL 5
REMARK VINA RESULT:      -6.1      3.177      6.439
REMARK  Name = 
REMARK  4 active torsions:
REMARK  status: ('A' for Active; 'I' for Inactive)
REMARK    1  A    between atoms: C_1  and  O_2
REMARK    2  A    between atoms: O_2  and  C_3
REMARK    3  A    between atoms: C_7  and  C_8
REMARK    4  A    between atoms: C_8  and  C_9
REMARK                            x       y       z     vdW  Elec       q    Type
REMARK                         _______ _______ _______ _____ _____    ______ ____
ROOT
ATOM      1  C   UNL     1       9.614  -1.329  24.390  0.00  0.00    -0.016 A 
ATOM      2  C   UNL     1       9.703  -0.130  23.600  0.00  0.00    +0.022 A 
ATOM      3  C   UNL     1       9.872   0.205  22.246  0.00  0.00    +0.013 A 
ATOM      4  C   UNL     1      10.008   1.555  21.909  0.00  0.00    +0.020 A 
ATOM      5  C   UNL     1       9.961   2.511  22.915  0.00  0.00    +0.113 A 
ATOM      6  N   UNL     1       9.742   2.259  24.221  0.00  0.00    -0.237 NA
ATOM      7  C   UNL     1       9.618   0.945  24.488  0.00  0.00    +0.138 A 
ATOM      8  N   UNL     1       9.375   0.454  25.732  0.00  0.00    -0.346 N 
ATOM      9  H   UNL     1       9.240   1.039  26.548  0.00  0.00    +0.167 HD
ATOM     10  C   UNL     1       9.363  -0.908  25.694  0.00  0.00    +0.089 A 
ENDROOT
BRANCH   1  11
ATOM     11  C   UNL     1       9.735  -2.788  24.070  0.00  0.00    +0.072 C 
BRANCH  11  14
ATOM     12  C   UNL     1       6.985  -5.181  25.133  0.00  0.00    +0.120 A 
ATOM     13  C   UNL     1       8.054  -4.283  25.194  0.00  0.00    +0.049 A 
ATOM     14  C   UNL     1       8.428  -3.534  24.065  0.00  0.00    -0.040 A 
ATOM     15  C   UNL     1       7.660  -3.646  22.896  0.00  0.00    +0.004 A 
ATOM     16  C   UNL     1       6.565  -4.512  22.846  0.00  0.00    +0.004 A 
ATOM     17  C   UNL     1       6.235  -5.282  23.962  0.00  0.00    +0.045 A 
BRANCH  12  19
ATOM     18  C   UNL     1       5.224  -6.364  26.162  0.00  0.00    +0.277 C 
ATOM     19  O   UNL     1       6.605  -6.014  26.151  0.00  0.00    -0.495 OA
ENDBRANCH  12  19
ENDBRANCH  11  14
ENDBRANCH   1  11
TORSDOF 3
ENDMDL
MODEL 6
REMARK VINA RESULT:      -6.1      3.277      6.251
REMARK  Name = 
REMARK  4 active torsions:
REMARK  status: ('A' for Active; 'I' for Inactive)
REMARK    1  A    between atoms: C_1  and  O_2
REMARK    2  A    between atoms: O_2  and  C_3
REMARK    3  A    between atoms: C_7  and  C_8
REMARK    4  A    between atoms: C_8  and  C_9
REMARK                            x       y       z     vdW  Elec       q    Type
REMARK                         _______ _______ _______ _____ _____    ______ ____
ROOT
ATOM      1  C   UNL     1       7.455  -2.090  22.925  0.00  0.00    -0.016 A 
ATOM      2  C   UNL     1       8.178  -0.924  22.491  0.00  0.00    +0.022 A 
ATOM      3  C   UNL     1       9.373  -0.644  21.808  0.00  0.00    +0.013 A 
ATOM      4  C   UNL     1       9.767   0.691  21.679  0.00  0.00    +0.020 A 
ATOM      5  C   UNL     1       8.963   1.688  22.216  0.00  0.00    +0.113 A 
ATOM      6  N   UNL     1       7.778   1.489  22.827  0.00  0.00    -0.237 NA
ATOM      7  C   UNL     1       7.449   0.186  22.923  0.00  0.00    +0.138 A 
ATOM      8  N   UNL     1       6.292  -0.254  23.485  0.00  0.00    -0.346 N 
ATOM      9  H   UNL     1       5.576   0.363  23.849  0.00  0.00    +0.167 HD
ATOM     10  C   UNL     1       6.273  -1.616  23.491  0.00  0.00    +0.089 A 
ENDROOT
BRANCH   1  11
ATOM     11  C   UNL     1       7.738  -3.560  22.870  0.00  0.00    +0.072 C 
BRANCH  11  14
ATOM     12  C   UNL     1       6.918  -5.552  25.997  0.00  0.00    +0.120 A 
ATOM     13  C   UNL     1       6.931  -5.123  24.666  0.00  0.00    +0.049 A 
ATOM     14  C   UNL     1       7.903  -4.214  24.215  0.00  0.00    -0.040 A 
ATOM     15  C   UNL     1       8.909  -3.804  25.104  0.00  0.00    +0.004 A 
ATOM     16  C   UNL     1       8.922  -4.264  26.422  0.00  0.00    +0.004 A 
ATOM     17  C   UNL     1       7.923  -5.131  26.867  0.00  0.00    +0.045 A 
BRANCH  12  19
ATOM     18  C   UNL     1       4.839  -6.627  25.711  0.00  0.00    +0.277 C 
ATOM     19  O   UNL     1       5.963  -6.364  26.546  0.00  0.00    -0.495 OA
ENDBRANCH  12  19
ENDBRANCH  11  14
ENDBRANCH   1  11
TORSDOF 3
ENDMDL
MODEL 7
REMARK VINA RESULT:      -6.0      3.434      6.321
REMARK  Name = 
REMARK  4 active torsions:
REMARK  status: ('A' for Active; 'I' for Inactive)
REMARK    1  A    between atoms: C_1  and  O_2
REMARK    2  A    between atoms: O_2  and  C_3
REMARK    3  A    between atoms: C_7  and  C_8
REMARK    4  A    between atoms: C_8  and  C_9
REMARK                            x       y       z     vdW  Elec       q    Type
REMARK                         _______ _______ _______ _____ _____    ______ ____
ROOT
ATOM      1  C   UNL     1       9.913   0.348  22.917  0.00  0.00    -0.016 A 
ATOM      2  C   UNL     1       8.941   1.383  22.682  0.00  0.00    +0.022 A 
ATOM      3  C   UNL     1       7.782   1.552  21.906  0.00  0.00    +0.013 A 
ATOM      4  C   UNL     1       7.168   2.809  21.897  0.00  0.00    +0.020 A 
ATOM      5  C   UNL     1       7.715   3.834  22.658  0.00  0.00    +0.113 A 
ATOM      6  N   UNL     1       8.787   3.717  23.468  0.00  0.00    -0.237 NA
ATOM      7  C   UNL     1       9.337   2.488  23.437  0.00  0.00    +0.138 A 
ATOM      8  N   UNL     1      10.415   2.132  24.184  0.00  0.00    -0.346 N 
ATOM      9  H   UNL     1      10.870   2.753  24.841  0.00  0.00    +0.167 HD
ATOM     10  C   UNL     1      10.773   0.851  23.892  0.00  0.00    +0.089 A 
ENDROOT
BRANCH   1  11
ATOM     11  C   UNL     1      10.122  -1.022  22.349  0.00  0.00    +0.072 C 
BRANCH  11  14
ATOM     12  C   UNL     1       9.007  -3.937  24.512  0.00  0.00    +0.120 A 
ATOM     13  C   UNL     1       9.674  -2.785  24.085  0.00  0.00    +0.049 A 
ATOM     14  C   UNL     1       9.240  -2.085  22.945  0.00  0.00    -0.040 A 
ATOM     15  C   UNL     1       8.078  -2.518  22.289  0.00  0.00    +0.004 A 
ATOM     16  C   UNL     1       7.386  -3.644  22.740  0.00  0.00    +0.004 A 
ATOM     17  C   UNL     1       7.855  -4.354  23.845  0.00  0.00    +0.045 A 
BRANCH  12  19
ATOM     18  C   UNL     1       8.368  -5.122  26.447  0.00  0.00    +0.277 C 
ATOM     19  O   UNL     1       9.406  -4.730  25.554  0.00  0.00    -0.495 OA
ENDBRANCH  12  19
ENDBRANCH  11  14
ENDBRANCH   1  11
TORSDOF 3
ENDMDL
MODEL 8
REMARK VINA RESULT:      -6.0      3.838      6.978
REMARK  Name = 
REMARK  4 active torsions:
REMARK  status: ('A' for Active; 'I' for Inactive)
REMARK    1  A    between atoms: C_1  and  O_2
REMARK    2  A    between atoms: O_2  and  C_3
REMARK    3  A    between atoms: C_7  and  C_8
REMARK    4  A    between atoms: C_8  and  C_9
REMARK                            x       y       z     vdW  Elec       q    Type
REMARK                         _______ _______ _______ _____ _____    ______ ____
ROOT
ATOM      1  C   UNL     1      10.400   2.568  24.011  0.00  0.00    -0.016 A 
ATOM      2  C   UNL     1       9.149   3.168  24.390  0.00  0.00    +0.022 A 
ATOM      3  C   UNL     1       7.994   2.791  25.096  0.00  0.00    +0.013 A 
ATOM      4  C   UNL     1       6.924   3.689  25.147  0.00  0.00    +0.020 A 
ATOM      5  C   UNL     1       7.043   4.919  24.512  0.00  0.00    +0.113 A 
ATOM      6  N   UNL     1       8.144   5.362  23.872  0.00  0.00    -0.237 NA
ATOM      7  C   UNL     1       9.141   4.458  23.854  0.00  0.00    +0.138 A 
ATOM      8  N   UNL     1      10.352   4.690  23.280  0.00  0.00    -0.346 N 
ATOM      9  H   UNL     1      10.606   5.569  22.848  0.00  0.00    +0.167 HD
ATOM     10  C   UNL     1      11.123   3.571  23.369  0.00  0.00    +0.089 A 
ENDROOT
BRANCH   1  11
ATOM     11  C   UNL     1      10.981   1.197  24.178  0.00  0.00    +0.072 C 
BRANCH  11  14
ATOM     12  C   UNL     1       9.529  -2.242  23.483  0.00  0.00    +0.120 A 
ATOM     13  C   UNL     1      10.029  -1.129  24.167  0.00  0.00    +0.049 A 
ATOM     14  C   UNL     1      10.196   0.102  23.510  0.00  0.00    -0.040 A 
ATOM     15  C   UNL     1       9.779   0.217  22.175  0.00  0.00    +0.004 A 
ATOM     16  C   UNL     1       9.241  -0.882  21.502  0.00  0.00    +0.004 A 
ATOM     17  C   UNL     1       9.124  -2.109  22.155  0.00  0.00    +0.045 A 
BRANCH  12  19
ATOM     18  C   UNL     1       8.161  -4.137  23.788  0.00  0.00    +0.277 C 
ATOM     19  O   UNL     1       9.414  -3.499  24.013  0.00  0.00    -0.495 OA
ENDBRANCH  12  19
ENDBRANCH  11  14
ENDBRANCH   1  11
TORSDOF 3
ENDMDL
MODEL 9
REMARK VINA RESULT:      -5.9      2.327      2.912
REMARK  Name = 
REMARK  4 active torsions:
REMARK  status: ('A' for Active; 'I' for Inactive)
REMARK    1  A    between atoms: C_1  and  O_2
REMARK    2  A    between atoms: O_2  and  C_3
REMARK    3  A    between atoms: C_7  and  C_8
REMARK    4  A    between atoms: C_8  and  C_9
REMARK                            x       y       z     vdW  Elec       q    Type
REMARK                         _______ _______ _______ _____ _____    ______ ____
ROOT
ATOM      1  C   UNL     1       8.202  -4.241  24.528  0.00  0.00    -0.016 A 
ATOM      2  C   UNL     1       7.223  -4.730  25.462  0.00  0.00    +0.022 A 
ATOM      3  C   UNL     1       5.822  -4.788  25.555  0.00  0.00    +0.013 A 
ATOM      4  C   UNL     1       5.254  -5.279  26.734  0.00  0.00    +0.020 A 
ATOM      5  C   UNL     1       6.089  -5.701  27.761  0.00  0.00    +0.113 A 
ATOM      6  N   UNL     1       7.436  -5.727  27.710  0.00  0.00    -0.237 NA
ATOM      7  C   UNL     1       7.927  -5.243  26.553  0.00  0.00    +0.138 A 
ATOM      8  N   UNL     1       9.256  -5.187  26.269  0.00  0.00    -0.346 N 
ATOM      9  H   UNL     1       9.976  -5.531  26.893  0.00  0.00    +0.167 HD
ATOM     10  C   UNL     1       9.441  -4.595  25.057  0.00  0.00    +0.089 A 
ENDROOT
BRANCH   1  11
ATOM     11  C   UNL     1       8.110  -3.501  23.229  0.00  0.00    +0.072 C 
BRANCH  11  14
ATOM     12  C   UNL     1       8.864   0.089  24.210  0.00  0.00    +0.120 A 
ATOM     13  C   UNL     1       8.488  -1.255  24.294  0.00  0.00    +0.049 A 
ATOM     14  C   UNL     1       8.758  -2.143  23.238  0.00  0.00    -0.040 A 
ATOM     15  C   UNL     1       9.484  -1.676  22.132  0.00  0.00    +0.004 A 
ATOM     16  C   UNL     1       9.898  -0.344  22.066  0.00  0.00    +0.004 A 
ATOM     17  C   UNL     1       9.582   0.536  23.102  0.00  0.00    +0.045 A 
BRANCH  12  19
ATOM     18  C   UNL     1       8.812   2.386  24.739  0.00  0.00    +0.277 C 
ATOM     19  O   UNL     1       8.567   1.043  25.146  0.00  0.00    -0.495 OA
ENDBRANCH  12  19
ENDBRANCH  11  14
ENDBRANCH   1  11
TORSDOF 3
ENDMDL
