MODEL 1
REMARK VINA RESULT:      -7.7      0.000      0.000
REMARK  Name = 
REMARK  11 active torsions:
REMARK  status: ('A' for Active; 'I' for Inactive)
REMARK    1  A    between atoms: C_1  and  S_2
REMARK    2  A    between atoms: S_2  and  C_5
REMARK    3  A    between atoms: C_5  and  C_6
REMARK    4  A    between atoms: C_6  and  N_7
REMARK    5  A    between atoms: N_7  and  C_8
REMARK    6  A    between atoms: C_8  and  C_9
REMARK    7  A    between atoms: C_12  and  C_14
REMARK    8  A    between atoms: N_24  and  C_25
REMARK    9  A    between atoms: C_29  and  O_30
REMARK   10  A    between atoms: O_30  and  C_31
REMARK   11  A    between atoms: C_31  and  C_32
REMARK                            x       y       z     vdW  Elec       q    Type
REMARK                         _______ _______ _______ _____ _____    ______ ____
ROOT
ATOM      1  C   UNL     1       5.808  -4.327  24.154  0.00  0.00    +0.018 A 
ATOM      2  C   UNL     1       6.849  -5.168  23.754  0.00  0.00    +0.013 A 
ATOM      3  C   UNL     1       8.155  -4.687  23.649  0.00  0.00    +0.029 A 
ATOM      4  C   UNL     1       8.473  -3.375  23.951  0.00  0.00    +0.076 A 
ATOM      5  N   UNL     1       9.746  -2.998  23.813  0.00  0.00    -0.235 NA
ATOM      6  C   UNL     1      10.026  -1.728  24.101  0.00  0.00    +0.223 A 
ATOM      7  N   UNL     1       9.152  -0.811  24.513  0.00  0.00    -0.220 NA
ATOM      8  C   UNL     1       7.864  -1.193  24.634  0.00  0.00    +0.134 A 
ATOM      9  N   UNL     1       6.915  -0.205  25.025  0.00  0.00    -0.299 N 
ATOM     10  H   UNL     1       6.550  -0.428  25.944  0.00  0.00    +0.154 HD
ATOM     11  C   UNL     1       7.451  -2.510  24.371  0.00  0.00    +0.041 A 
ATOM     12  C   UNL     1       6.119  -2.995  24.457  0.00  0.00    +0.025 A 
ENDROOT
BRANCH   9  13
ATOM     13  C   UNL     1       7.085   1.183  24.805  0.00  0.00    +0.034 A 
ATOM     14  C   UNL     1       7.999   1.940  25.536  0.00  0.00    +0.027 A 
ATOM     15  C   UNL     1       8.119   3.322  25.305  0.00  0.00    +0.049 A 
ATOM     16  C   UNL     1       7.319   3.978  24.351  0.00  0.00    +0.139 A 
ATOM     17  C   UNL     1       6.413   3.213  23.610  0.00  0.00    +0.084 A 
ATOM     18 CL   UNL     1       5.452   3.771  22.281  0.00  0.00    -0.080 Cl
ATOM     19  C   UNL     1       6.271   1.852  23.888  0.00  0.00    +0.047 A 
BRANCH  16  20
ATOM     20  O   UNL     1       7.558   5.326  24.274  0.00  0.00    -0.486 OA
BRANCH  20  21
ATOM     21  C   UNL     1       8.484   5.750  23.275  0.00  0.00    +0.264 C 
BRANCH  21  22
ATOM     22  C   UNL     1       9.836   5.990  23.889  0.00  0.00    -0.008 A 
ATOM     23  C   UNL     1       9.967   6.850  24.990  0.00  0.00    +0.007 A 
ATOM     24  C   UNL     1      11.224   7.108  25.539  0.00  0.00    +0.003 A 
ATOM     25  C   UNL     1      12.356   6.500  24.997  0.00  0.00    +0.038 A 
ATOM     26  C   UNL     1      12.223   5.645  23.910  0.00  0.00    +0.124 A 
ATOM     27  F   UNL     1      13.313   5.070  23.384  0.00  0.00    -0.205 F 
ATOM     28  C   UNL     1      10.978   5.382  23.353  0.00  0.00    +0.045 A 
ENDBRANCH  21  22
ENDBRANCH  20  21
ENDBRANCH  16  20
ENDBRANCH   9  13
BRANCH   1  31
ATOM     29  C   UNL     1       2.773  -5.772  25.337  0.00  0.00    +0.119 A 
ATOM     30  O   UNL     1       4.065  -5.355  25.450  0.00  0.00    -0.458 OA
ATOM     31  C   UNL     1       4.437  -4.822  24.245  0.00  0.00    +0.135 A 
ATOM     32  C   UNL     1       3.369  -4.889  23.371  0.00  0.00    +0.050 A 
ATOM     33  C   UNL     1       2.298  -5.489  24.075  0.00  0.00    +0.046 A 
BRANCH  29  34
ATOM     34  C   UNL     1       2.152  -6.386  26.542  0.00  0.00    +0.156 C 
BRANCH  34  35
ATOM     35  N   UNL     1       3.145  -7.152  27.297  0.00  0.00    -0.308 NA
ATOM     36  H   UNL     1       2.983  -8.150  27.177  0.00  0.00    +0.122 HD
BRANCH  35  37
ATOM     37  C   UNL     1       3.193  -6.806  28.722  0.00  0.00    +0.104 C 
BRANCH  37  38
ATOM     38  C   UNL     1       4.137  -5.653  29.033  0.00  0.00    +0.180 C 
BRANCH  38  40
ATOM     39  C   UNL     1       6.547  -5.195  27.760  0.00  0.00    +0.194 C 
ATOM     40  S   UNL     1       5.832  -6.190  29.046  0.00  0.00    -0.033 S 
ATOM     41  O   UNL     1       6.426  -5.785  30.304  0.00  0.00    -0.175 OA
ATOM     42  O   UNL     1       5.870  -7.571  28.603  0.00  0.00    -0.175 OA
ENDBRANCH  38  40
ENDBRANCH  37  38
ENDBRANCH  35  37
ENDBRANCH  34  35
ENDBRANCH  29  34
ENDBRANCH   1  31
TORSDOF 10
ENDMDL
MODEL 2
REMARK VINA RESULT:      -7.5      2.905      4.372
REMARK  Name = 
REMARK  11 active torsions:
REMARK  status: ('A' for Active; 'I' for Inactive)
REMARK    1  A    between atoms: C_1  and  S_2
REMARK    2  A    between atoms: S_2  and  C_5
REMARK    3  A    between atoms: C_5  and  C_6
REMARK    4  A    between atoms: C_6  and  N_7
REMARK    5  A    between atoms: N_7  and  C_8
REMARK    6  A    between atoms: C_8  and  C_9
REMARK    7  A    between atoms: C_12  and  C_14
REMARK    8  A    between atoms: N_24  and  C_25
REMARK    9  A    between atoms: C_29  and  O_30
REMARK   10  A    between atoms: O_30  and  C_31
REMARK   11  A    between atoms: C_31  and  C_32
REMARK                            x       y       z     vdW  Elec       q    Type
REMARK                         _______ _______ _______ _____ _____    ______ ____
ROOT
ATOM      1  C   UNL     1       5.036  -6.008  26.139  0.00  0.00    +0.018 A 
ATOM      2  C   UNL     1       4.348  -6.837  25.251  0.00  0.00    +0.013 A 
ATOM      3  C   UNL     1       4.606  -6.786  23.880  0.00  0.00    +0.029 A 
ATOM      4  C   UNL     1       5.556  -5.931  23.351  0.00  0.00    +0.076 A 
ATOM      5  N   UNL     1       5.730  -5.941  22.028  0.00  0.00    -0.235 NA
ATOM      6  C   UNL     1       6.644  -5.102  21.541  0.00  0.00    +0.223 A 
ATOM      7  N   UNL     1       7.395  -4.266  22.256  0.00  0.00    -0.220 NA
ATOM      8  C   UNL     1       7.202  -4.248  23.591  0.00  0.00    +0.134 A 
ATOM      9  N   UNL     1       7.964  -3.320  24.356  0.00  0.00    -0.299 N 
ATOM     10  H   UNL     1       8.611  -3.821  24.955  0.00  0.00    +0.154 HD
ATOM     11  C   UNL     1       6.275  -5.096  24.220  0.00  0.00    +0.041 A 
ATOM     12  C   UNL     1       5.997  -5.135  25.612  0.00  0.00    +0.025 A 
ENDROOT
BRANCH   9  13
ATOM     13  C   UNL     1       8.494  -2.115  23.836  0.00  0.00    +0.034 A 
ATOM     14  C   UNL     1       9.861  -1.939  23.626  0.00  0.00    +0.027 A 
ATOM     15  C   UNL     1      10.350  -0.716  23.131  0.00  0.00    +0.049 A 
ATOM     16  C   UNL     1       9.487   0.358  22.850  0.00  0.00    +0.139 A 
ATOM     17  C   UNL     1       8.115   0.174  23.049  0.00  0.00    +0.084 A 
ATOM     18 CL   UNL     1       6.862   1.290  22.620  0.00  0.00    -0.080 Cl
ATOM     19  C   UNL     1       7.653  -1.028  23.589  0.00  0.00    +0.047 A 
BRANCH  16  20
ATOM     20  O   UNL     1      10.139   1.476  22.394  0.00  0.00    -0.486 OA
BRANCH  20  21
ATOM     21  C   UNL     1      10.990   2.138  23.328  0.00  0.00    +0.264 C 
BRANCH  21  22
ATOM     22  C   UNL     1      10.581   3.579  23.470  0.00  0.00    -0.008 A 
ATOM     23  C   UNL     1      11.553   4.591  23.462  0.00  0.00    +0.007 A 
ATOM     24  C   UNL     1      11.184   5.925  23.633  0.00  0.00    +0.003 A 
ATOM     25  C   UNL     1       9.840   6.258  23.806  0.00  0.00    +0.038 A 
ATOM     26  C   UNL     1       8.879   5.254  23.809  0.00  0.00    +0.124 A 
ATOM     27  F   UNL     1       7.591   5.573  23.985  0.00  0.00    -0.205 F 
ATOM     28  C   UNL     1       9.234   3.921  23.642  0.00  0.00    +0.045 A 
ENDBRANCH  21  22
ENDBRANCH  20  21
ENDBRANCH  16  20
ENDBRANCH   9  13
BRANCH   1  31
ATOM     29  C   UNL     1       4.177  -5.086  29.472  0.00  0.00    +0.119 A 
ATOM     30  O   UNL     1       4.379  -4.858  28.145  0.00  0.00    -0.458 OA
ATOM     31  C   UNL     1       4.754  -6.044  27.572  0.00  0.00    +0.135 A 
ATOM     32  C   UNL     1       4.774  -7.029  28.540  0.00  0.00    +0.050 A 
ATOM     33  C   UNL     1       4.393  -6.417  29.758  0.00  0.00    +0.046 A 
BRANCH  29  34
ATOM     34  C   UNL     1       3.753  -3.926  30.301  0.00  0.00    +0.156 C 
BRANCH  34  35
ATOM     35  N   UNL     1       3.364  -2.800  29.448  0.00  0.00    -0.308 NA
ATOM     36  H   UNL     1       3.750  -2.920  28.514  0.00  0.00    +0.122 HD
BRANCH  35  37
ATOM     37  C   UNL     1       3.741  -1.492  29.997  0.00  0.00    +0.104 C 
BRANCH  37  38
ATOM     38  C   UNL     1       3.668  -0.365  28.976  0.00  0.00    +0.180 C 
BRANCH  38  40
ATOM     39  C   UNL     1       4.625   0.576  26.561  0.00  0.00    +0.194 C 
ATOM     40  S   UNL     1       4.120  -0.932  27.353  0.00  0.00    -0.033 S 
ATOM     41  O   UNL     1       5.289  -1.780  27.479  0.00  0.00    -0.175 OA
ATOM     42  O   UNL     1       2.919  -1.396  26.687  0.00  0.00    -0.175 OA
ENDBRANCH  38  40
ENDBRANCH  37  38
ENDBRANCH  35  37
ENDBRANCH  34  35
ENDBRANCH  29  34
ENDBRANCH   1  31
TORSDOF 10
ENDMDL
MODEL 3
REMARK VINA RESULT:      -7.4      2.619      4.059
REMARK  Name = 
REMARK  11 active torsions:
REMARK  status: ('A' for Active; 'I' for Inactive)
REMARK    1  A    between atoms: C_1  and  S_2
REMARK    2  A    between atoms: S_2  and  C_5
REMARK    3  A    between atoms: C_5  and  C_6
REMARK    4  A    between atoms: C_6  and  N_7
REMARK    5  A    between atoms: N_7  and  C_8
REMARK    6  A    between atoms: C_8  and  C_9
REMARK    7  A    between atoms: C_12  and  C_14
REMARK    8  A    between atoms: N_24  and  C_25
REMARK    9  A    between atoms: C_29  and  O_30
REMARK   10  A    between atoms: O_30  and  C_31
REMARK   11  A    between atoms: C_31  and  C_32
REMARK                            x       y       z     vdW  Elec       q    Type
REMARK                         _______ _______ _______ _____ _____    ______ ____
ROOT
ATOM      1  C   UNL     1       5.324  -6.151  26.165  0.00  0.00    +0.018 A 
ATOM      2  C   UNL     1       4.480  -6.889  25.333  0.00  0.00    +0.013 A 
ATOM      3  C   UNL     1       4.513  -6.717  23.948  0.00  0.00    +0.029 A 
ATOM      4  C   UNL     1       5.387  -5.830  23.346  0.00  0.00    +0.076 A 
ATOM      5  N   UNL     1       5.343  -5.722  22.017  0.00  0.00    -0.235 NA
ATOM      6  C   UNL     1       6.188  -4.854  21.462  0.00  0.00    +0.223 A 
ATOM      7  N   UNL     1       7.066  -4.095  22.114  0.00  0.00    -0.220 NA
ATOM      8  C   UNL     1       7.094  -4.195  23.459  0.00  0.00    +0.134 A 
ATOM      9  N   UNL     1       7.994  -3.348  24.167  0.00  0.00    -0.299 N 
ATOM     10  H   UNL     1       8.716  -3.909  24.605  0.00  0.00    +0.154 HD
ATOM     11  C   UNL     1       6.259  -5.085  24.155  0.00  0.00    +0.041 A 
ATOM     12  C   UNL     1       6.210  -5.246  25.565  0.00  0.00    +0.025 A 
ENDROOT
BRANCH   9  13
ATOM     13  C   UNL     1       8.464  -2.108  23.673  0.00  0.00    +0.034 A 
ATOM     14  C   UNL     1       9.791  -1.921  23.288  0.00  0.00    +0.027 A 
ATOM     15  C   UNL     1      10.223  -0.664  22.827  0.00  0.00    +0.049 A 
ATOM     16  C   UNL     1       9.346   0.432  22.755  0.00  0.00    +0.139 A 
ATOM     17  C   UNL     1       8.013   0.238  23.129  0.00  0.00    +0.084 A 
ATOM     18 CL   UNL     1       6.728   1.389  22.969  0.00  0.00    -0.080 Cl
ATOM     19  C   UNL     1       7.612  -1.002  23.632  0.00  0.00    +0.047 A 
BRANCH  16  20
ATOM     20  O   UNL     1       9.944   1.580  22.301  0.00  0.00    -0.486 OA
BRANCH  20  21
ATOM     21  C   UNL     1      10.991   2.112  23.111  0.00  0.00    +0.264 C 
BRANCH  21  22
ATOM     22  C   UNL     1      10.712   3.554  23.438  0.00  0.00    -0.008 A 
ATOM     23  C   UNL     1      11.756   4.491  23.441  0.00  0.00    +0.007 A 
ATOM     24  C   UNL     1      11.511   5.821  23.782  0.00  0.00    +0.003 A 
ATOM     25  C   UNL     1      10.218   6.225  24.115  0.00  0.00    +0.038 A 
ATOM     26  C   UNL     1       9.184   5.296  24.108  0.00  0.00    +0.124 A 
ATOM     27  F   UNL     1       7.946   5.683  24.438  0.00  0.00    -0.205 F 
ATOM     28  C   UNL     1       9.417   3.968  23.772  0.00  0.00    +0.045 A 
ENDBRANCH  21  22
ENDBRANCH  20  21
ENDBRANCH  16  20
ENDBRANCH   9  13
BRANCH   1  31
ATOM     29  C   UNL     1       4.222  -6.784  29.494  0.00  0.00    +0.119 A 
ATOM     30  O   UNL     1       4.075  -6.702  28.142  0.00  0.00    -0.458 OA
ATOM     31  C   UNL     1       5.278  -6.314  27.616  0.00  0.00    +0.135 A 
ATOM     32  C   UNL     1       6.193  -6.164  28.639  0.00  0.00    +0.050 A 
ATOM     33  C   UNL     1       5.518  -6.476  29.844  0.00  0.00    +0.046 A 
BRANCH  29  34
ATOM     34  C   UNL     1       3.029  -7.200  30.281  0.00  0.00    +0.156 C 
BRANCH  34  35
ATOM     35  N   UNL     1       1.897  -6.314  30.002  0.00  0.00    -0.308 NA
ATOM     36  H   UNL     1       1.649  -6.362  29.016  0.00  0.00    +0.122 HD
BRANCH  35  37
ATOM     37  C   UNL     1       2.128  -4.922  30.407  0.00  0.00    +0.104 C 
BRANCH  37  38
ATOM     38  C   UNL     1       1.507  -3.905  29.460  0.00  0.00    +0.180 C 
BRANCH  38  40
ATOM     39  C   UNL     1       2.141  -1.666  27.970  0.00  0.00    +0.194 C 
ATOM     40  S   UNL     1       2.691  -3.329  28.264  0.00  0.00    -0.033 S 
ATOM     41  O   UNL     1       3.988  -3.262  28.906  0.00  0.00    -0.175 OA
ATOM     42  O   UNL     1       2.493  -4.079  27.038  0.00  0.00    -0.175 OA
ENDBRANCH  38  40
ENDBRANCH  37  38
ENDBRANCH  35  37
ENDBRANCH  34  35
ENDBRANCH  29  34
ENDBRANCH   1  31
TORSDOF 10
ENDMDL
MODEL 4
REMARK VINA RESULT:      -7.3      4.580      9.642
REMARK  Name = 
REMARK  11 active torsions:
REMARK  status: ('A' for Active; 'I' for Inactive)
REMARK    1  A    between atoms: C_1  and  S_2
REMARK    2  A    between atoms: S_2  and  C_5
REMARK    3  A    between atoms: C_5  and  C_6
REMARK    4  A    between atoms: C_6  and  N_7
REMARK    5  A    between atoms: N_7  and  C_8
REMARK    6  A    between atoms: C_8  and  C_9
REMARK    7  A    between atoms: C_12  and  C_14
REMARK    8  A    between atoms: N_24  and  C_25
REMARK    9  A    between atoms: C_29  and  O_30
REMARK   10  A    between atoms: O_30  and  C_31
REMARK   11  A    between atoms: C_31  and  C_32
REMARK                            x       y       z     vdW  Elec       q    Type
REMARK                         _______ _______ _______ _____ _____    ______ ____
ROOT
ATOM      1  C   UNL     1       6.844   5.769  23.203  0.00  0.00    +0.018 A 
ATOM      2  C   UNL     1       7.787   6.754  23.505  0.00  0.00    +0.013 A 
ATOM      3  C   UNL     1       9.137   6.429  23.652  0.00  0.00    +0.029 A 
ATOM      4  C   UNL     1       9.595   5.134  23.488  0.00  0.00    +0.076 A 
ATOM      5  N   UNL     1      10.900   4.912  23.656  0.00  0.00    -0.235 NA
ATOM      6  C   UNL     1      11.315   3.656  23.502  0.00  0.00    +0.223 A 
ATOM      7  N   UNL     1      10.547   2.613  23.194  0.00  0.00    -0.220 NA
ATOM      8  C   UNL     1       9.226   2.840  23.042  0.00  0.00    +0.134 A 
ATOM      9  N   UNL     1       8.390   1.720  22.764  0.00  0.00    -0.299 N 
ATOM     10  H   UNL     1       8.009   1.804  21.828  0.00  0.00    +0.154 HD
ATOM     11  C   UNL     1       8.674   4.125  23.168  0.00  0.00    +0.041 A 
ATOM     12  C   UNL     1       7.297   4.453  23.040  0.00  0.00    +0.025 A 
ENDROOT
BRANCH   9  13
ATOM     13  C   UNL     1       8.707   0.390  23.127  0.00  0.00    +0.034 A 
ATOM     14  C   UNL     1       9.183  -0.536  22.200  0.00  0.00    +0.027 A 
ATOM     15  C   UNL     1       9.461  -1.857  22.597  0.00  0.00    +0.049 A 
ATOM     16  C   UNL     1       9.256  -2.283  23.921  0.00  0.00    +0.139 A 
ATOM     17  C   UNL     1       8.792  -1.348  24.852  0.00  0.00    +0.084 A 
ATOM     18 CL   UNL     1       8.625  -1.601  26.558  0.00  0.00    -0.080 Cl
ATOM     19  C   UNL     1       8.473  -0.056  24.430  0.00  0.00    +0.047 A 
BRANCH  16  20
ATOM     20  O   UNL     1       9.562  -3.605  24.122  0.00  0.00    -0.486 OA
BRANCH  20  21
ATOM     21  C   UNL     1       8.577  -4.388  24.794  0.00  0.00    +0.264 C 
BRANCH  21  22
ATOM     22  C   UNL     1       7.506  -4.814  23.827  0.00  0.00    -0.008 A 
ATOM     23  C   UNL     1       7.815  -5.686  22.773  0.00  0.00    +0.007 A 
ATOM     24  C   UNL     1       6.835  -6.053  21.850  0.00  0.00    +0.003 A 
ATOM     25  C   UNL     1       5.538  -5.556  21.980  0.00  0.00    +0.038 A 
ATOM     26  C   UNL     1       5.233  -4.696  23.027  0.00  0.00    +0.124 A 
ATOM     27  F   UNL     1       3.990  -4.212  23.145  0.00  0.00    -0.205 F 
ATOM     28  C   UNL     1       6.201  -4.322  23.952  0.00  0.00    +0.045 A 
ENDBRANCH  21  22
ENDBRANCH  20  21
ENDBRANCH  16  20
ENDBRANCH   9  13
BRANCH   1  31
ATOM     29  C   UNL     1       3.309   5.880  23.640  0.00  0.00    +0.119 A 
ATOM     30  O   UNL     1       4.573   5.456  23.922  0.00  0.00    -0.458 OA
ATOM     31  C   UNL     1       5.428   6.102  23.069  0.00  0.00    +0.135 A 
ATOM     32  C   UNL     1       4.703   6.949  22.255  0.00  0.00    +0.050 A 
ATOM     33  C   UNL     1       3.344   6.815  22.628  0.00  0.00    +0.046 A 
BRANCH  29  34
ATOM     34  C   UNL     1       2.205   5.308  24.456  0.00  0.00    +0.156 C 
BRANCH  34  35
ATOM     35  N   UNL     1       2.741   4.602  25.622  0.00  0.00    -0.308 NA
ATOM     36  H   UNL     1       3.732   4.408  25.489  0.00  0.00    +0.122 HD
BRANCH  35  37
ATOM     37  C   UNL     1       2.014   3.369  25.947  0.00  0.00    +0.104 C 
BRANCH  37  38
ATOM     38  C   UNL     1       2.912   2.257  26.470  0.00  0.00    +0.180 C 
BRANCH  38  40
ATOM     39  C   UNL     1       5.118   0.642  26.066  0.00  0.00    +0.194 C 
ATOM     40  S   UNL     1       4.477   2.239  25.625  0.00  0.00    -0.033 S 
ATOM     41  O   UNL     1       4.221   2.237  24.198  0.00  0.00    -0.175 OA
ATOM     42  O   UNL     1       5.331   3.238  26.237  0.00  0.00    -0.175 OA
ENDBRANCH  38  40
ENDBRANCH  37  38
ENDBRANCH  35  37
ENDBRANCH  34  35
ENDBRANCH  29  34
ENDBRANCH   1  31
TORSDOF 10
ENDMDL
MODEL 5
REMARK VINA RESULT:      -7.2      3.953      9.835
REMARK  Name = 
REMARK  11 active torsions:
REMARK  status: ('A' for Active; 'I' for Inactive)
REMARK    1  A    between atoms: C_1  and  S_2
REMARK    2  A    between atoms: S_2  and  C_5
REMARK    3  A    between atoms: C_5  and  C_6
REMARK    4  A    between atoms: C_6  and  N_7
REMARK    5  A    between atoms: N_7  and  C_8
REMARK    6  A    between atoms: C_8  and  C_9
REMARK    7  A    between atoms: C_12  and  C_14
REMARK    8  A    between atoms: N_24  and  C_25
REMARK    9  A    between atoms: C_29  and  O_30
REMARK   10  A    between atoms: O_30  and  C_31
REMARK   11  A    between atoms: C_31  and  C_32
REMARK                            x       y       z     vdW  Elec       q    Type
REMARK                         _______ _______ _______ _____ _____    ______ ____
ROOT
ATOM      1  C   UNL     1       8.467   3.674  23.232  0.00  0.00    +0.018 A 
ATOM      2  C   UNL     1       9.793   3.769  23.660  0.00  0.00    +0.013 A 
ATOM      3  C   UNL     1      10.533   2.621  23.953  0.00  0.00    +0.029 A 
ATOM      4  C   UNL     1       9.994   1.354  23.816  0.00  0.00    +0.076 A 
ATOM      5  N   UNL     1      10.770   0.315  24.127  0.00  0.00    -0.235 NA
ATOM      6  C   UNL     1      10.226  -0.895  23.995  0.00  0.00    +0.223 A 
ATOM      7  N   UNL     1       8.987  -1.151  23.581  0.00  0.00    -0.220 NA
ATOM      8  C   UNL     1       8.201  -0.096  23.284  0.00  0.00    +0.134 A 
ATOM      9  N   UNL     1       6.859  -0.360  22.890  0.00  0.00    -0.299 N 
ATOM     10  H   UNL     1       6.730  -0.098  21.919  0.00  0.00    +0.154 HD
ATOM     11  C   UNL     1       8.669   1.226  23.373  0.00  0.00    +0.041 A 
ATOM     12  C   UNL     1       7.911   2.395  23.095  0.00  0.00    +0.025 A 
ENDROOT
BRANCH   9  13
ATOM     13  C   UNL     1       6.142  -1.523  23.260  0.00  0.00    +0.034 A 
ATOM     14  C   UNL     1       5.942  -2.581  22.374  0.00  0.00    +0.027 A 
ATOM     15  C   UNL     1       5.201  -3.708  22.773  0.00  0.00    +0.049 A 
ATOM     16  C   UNL     1       4.635  -3.796  24.057  0.00  0.00    +0.139 A 
ATOM     17  C   UNL     1       4.850  -2.740  24.948  0.00  0.00    +0.084 A 
ATOM     18 CL   UNL     1       4.392  -2.704  26.618  0.00  0.00    -0.080 Cl
ATOM     19  C   UNL     1       5.543  -1.607  24.519  0.00  0.00    +0.047 A 
BRANCH  16  20
ATOM     20  O   UNL     1       3.932  -4.956  24.264  0.00  0.00    -0.486 OA
BRANCH  20  21
ATOM     21  C   UNL     1       4.705  -6.138  24.464  0.00  0.00    +0.264 C 
BRANCH  21  22
ATOM     22  C   UNL     1       5.427  -6.068  25.783  0.00  0.00    -0.008 A 
ATOM     23  C   UNL     1       4.776  -6.455  26.964  0.00  0.00    +0.007 A 
ATOM     24  C   UNL     1       5.426  -6.355  28.194  0.00  0.00    +0.003 A 
ATOM     25  C   UNL     1       6.734  -5.876  28.251  0.00  0.00    +0.038 A 
ATOM     26  C   UNL     1       7.379  -5.498  27.079  0.00  0.00    +0.124 A 
ATOM     27  F   UNL     1       8.632  -5.029  27.136  0.00  0.00    -0.205 F 
ATOM     28  C   UNL     1       6.742  -5.591  25.848  0.00  0.00    +0.045 A 
ENDBRANCH  21  22
ENDBRANCH  20  21
ENDBRANCH  16  20
ENDBRANCH   9  13
BRANCH   1  31
ATOM     29  C   UNL     1       5.770   5.941  22.700  0.00  0.00    +0.119 A 
ATOM     30  O   UNL     1       6.323   4.735  23.009  0.00  0.00    -0.458 OA
ATOM     31  C   UNL     1       7.684   4.873  22.946  0.00  0.00    +0.135 A 
ATOM     32  C   UNL     1       7.992   6.177  22.610  0.00  0.00    +0.050 A 
ATOM     33  C   UNL     1       6.764   6.865  22.461  0.00  0.00    +0.046 A 
BRANCH  29  34
ATOM     34  C   UNL     1       4.285   6.028  22.711  0.00  0.00    +0.156 C 
BRANCH  34  35
ATOM     35  N   UNL     1       3.704   5.001  21.844  0.00  0.00    -0.308 NA
ATOM     36  H   UNL     1       3.044   5.423  21.194  0.00  0.00    +0.122 HD
BRANCH  35  37
ATOM     37  C   UNL     1       3.069   3.902  22.582  0.00  0.00    +0.104 C 
BRANCH  37  38
ATOM     38  C   UNL     1       2.817   4.224  24.048  0.00  0.00    +0.180 C 
BRANCH  38  40
ATOM     39  C   UNL     1       2.578   2.541  26.227  0.00  0.00    +0.194 C 
ATOM     40  S   UNL     1       3.800   3.194  25.114  0.00  0.00    -0.033 S 
ATOM     41  O   UNL     1       4.318   2.093  24.328  0.00  0.00    -0.175 OA
ATOM     42  O   UNL     1       4.679   4.053  25.883  0.00  0.00    -0.175 OA
ENDBRANCH  38  40
ENDBRANCH  37  38
ENDBRANCH  35  37
ENDBRANCH  34  35
ENDBRANCH  29  34
ENDBRANCH   1  31
TORSDOF 10
ENDMDL
MODEL 6
REMARK VINA RESULT:      -7.2      3.690      5.304
REMARK  Name = 
REMARK  11 active torsions:
REMARK  status: ('A' for Active; 'I' for Inactive)
REMARK    1  A    between atoms: C_1  and  S_2
REMARK    2  A    between atoms: S_2  and  C_5
REMARK    3  A    between atoms: C_5  and  C_6
REMARK    4  A    between atoms: C_6  and  N_7
REMARK    5  A    between atoms: N_7  and  C_8
REMARK    6  A    between atoms: C_8  and  C_9
REMARK    7  A    between atoms: C_12  and  C_14
REMARK    8  A    between atoms: N_24  and  C_25
REMARK    9  A    between atoms: C_29  and  O_30
REMARK   10  A    between atoms: O_30  and  C_31
REMARK   11  A    between atoms: C_31  and  C_32
REMARK                            x       y       z     vdW  Elec       q    Type
REMARK                         _______ _______ _______ _____ _____    ______ ____
ROOT
ATOM      1  C   UNL     1       7.825  -3.051  23.270  0.00  0.00    +0.018 A 
ATOM      2  C   UNL     1       9.193  -3.179  23.521  0.00  0.00    +0.013 A 
ATOM      3  C   UNL     1       9.940  -2.092  23.979  0.00  0.00    +0.029 A 
ATOM      4  C   UNL     1       9.359  -0.860  24.219  0.00  0.00    +0.076 A 
ATOM      5  N   UNL     1      10.149   0.126  24.646  0.00  0.00    -0.235 NA
ATOM      6  C   UNL     1       9.568   1.306  24.860  0.00  0.00    +0.223 A 
ATOM      7  N   UNL     1       8.277   1.581  24.689  0.00  0.00    -0.220 NA
ATOM      8  C   UNL     1       7.485   0.586  24.239  0.00  0.00    +0.134 A 
ATOM      9  N   UNL     1       6.113   0.887  24.003  0.00  0.00    -0.299 N 
ATOM     10  H   UNL     1       5.535   0.381  24.664  0.00  0.00    +0.154 HD
ATOM     11  C   UNL     1       7.983  -0.704  23.990  0.00  0.00    +0.041 A 
ATOM     12  C   UNL     1       7.228  -1.805  23.504  0.00  0.00    +0.025 A 
ENDROOT
BRANCH   9  13
ATOM     13  C   UNL     1       5.630   2.184  23.708  0.00  0.00    +0.034 A 
ATOM     14  C   UNL     1       4.361   2.607  24.102  0.00  0.00    +0.027 A 
ATOM     15  C   UNL     1       3.909   3.896  23.765  0.00  0.00    +0.049 A 
ATOM     16  C   UNL     1       4.706   4.781  23.017  0.00  0.00    +0.139 A 
ATOM     17  C   UNL     1       5.984   4.358  22.636  0.00  0.00    +0.084 A 
ATOM     18 CL   UNL     1       7.191   5.328  21.860  0.00  0.00    -0.080 Cl
ATOM     19  C   UNL     1       6.397   3.058  22.934  0.00  0.00    +0.047 A 
BRANCH  16  20
ATOM     20  O   UNL     1       4.097   5.984  22.766  0.00  0.00    -0.486 OA
BRANCH  20  21
ATOM     21  C   UNL     1       2.688   5.948  22.548  0.00  0.00    +0.264 C 
BRANCH  21  22
ATOM     22  C   UNL     1       2.395   5.704  21.093  0.00  0.00    -0.008 A 
ATOM     23  C   UNL     1       2.374   6.776  20.189  0.00  0.00    +0.007 A 
ATOM     24  C   UNL     1       2.064   6.562  18.845  0.00  0.00    +0.003 A 
ATOM     25  C   UNL     1       1.781   5.272  18.395  0.00  0.00    +0.038 A 
ATOM     26  C   UNL     1       1.808   4.211  19.292  0.00  0.00    +0.124 A 
ATOM     27  F   UNL     1       1.526   2.974  18.860  0.00  0.00    -0.205 F 
ATOM     28  C   UNL     1       2.113   4.412  20.632  0.00  0.00    +0.045 A 
ENDBRANCH  21  22
ENDBRANCH  20  21
ENDBRANCH  16  20
ENDBRANCH   9  13
BRANCH   1  31
ATOM     29  C   UNL     1       5.349  -5.584  22.887  0.00  0.00    +0.119 A 
ATOM     30  O   UNL     1       5.929  -4.511  23.492  0.00  0.00    -0.458 OA
ATOM     31  C   UNL     1       7.045  -4.180  22.770  0.00  0.00    +0.135 A 
ATOM     32  C   UNL     1       7.161  -5.040  21.696  0.00  0.00    +0.050 A 
ATOM     33  C   UNL     1       6.067  -5.936  21.765  0.00  0.00    +0.046 A 
BRANCH  29  34
ATOM     34  C   UNL     1       4.104  -6.118  23.505  0.00  0.00    +0.156 C 
BRANCH  34  35
ATOM     35  N   UNL     1       4.391  -7.331  24.272  0.00  0.00    -0.308 NA
ATOM     36  H   UNL     1       4.258  -8.155  23.688  0.00  0.00    +0.122 HD
BRANCH  35  37
ATOM     37  C   UNL     1       3.606  -7.443  25.507  0.00  0.00    +0.104 C 
BRANCH  37  38
ATOM     38  C   UNL     1       3.778  -6.255  26.443  0.00  0.00    +0.180 C 
BRANCH  38  40
ATOM     39  C   UNL     1       5.326  -4.797  28.207  0.00  0.00    +0.194 C 
ATOM     40  S   UNL     1       5.347  -6.310  27.277  0.00  0.00    -0.033 S 
ATOM     41  O   UNL     1       5.320  -7.411  28.219  0.00  0.00    -0.175 OA
ATOM     42  O   UNL     1       6.392  -6.197  26.278  0.00  0.00    -0.175 OA
ENDBRANCH  38  40
ENDBRANCH  37  38
ENDBRANCH  35  37
ENDBRANCH  34  35
ENDBRANCH  29  34
ENDBRANCH   1  31
TORSDOF 10
ENDMDL
MODEL 7
REMARK VINA RESULT:      -7.1      3.911      9.537
REMARK  Name = 
REMARK  11 active torsions:
REMARK  status: ('A' for Active; 'I' for Inactive)
REMARK    1  A    between atoms: C_1  and  S_2
REMARK    2  A    between atoms: S_2  and  C_5
REMARK    3  A    between atoms: C_5  and  C_6
REMARK    4  A    between atoms: C_6  and  N_7
REMARK    5  A    between atoms: N_7  and  C_8
REMARK    6  A    between atoms: C_8  and  C_9
REMARK    7  A    between atoms: C_12  and  C_14
REMARK    8  A    between atoms: N_24  and  C_25
REMARK    9  A    between atoms: C_29  and  O_30
REMARK   10  A    between atoms: O_30  and  C_31
REMARK   11  A    between atoms: C_31  and  C_32
REMARK                            x       y       z     vdW  Elec       q    Type
REMARK                         _______ _______ _______ _____ _____    ______ ____
ROOT
ATOM      1  C   UNL     1       8.687   2.695  24.209  0.00  0.00    +0.018 A 
ATOM      2  C   UNL     1       9.762   2.858  23.332  0.00  0.00    +0.013 A 
ATOM      3  C   UNL     1      10.142   1.828  22.470  0.00  0.00    +0.029 A 
ATOM      4  C   UNL     1       9.466   0.622  22.435  0.00  0.00    +0.076 A 
ATOM      5  N   UNL     1       9.904  -0.310  21.586  0.00  0.00    -0.235 NA
ATOM      6  C   UNL     1       9.242  -1.466  21.578  0.00  0.00    +0.223 A 
ATOM      7  N   UNL     1       8.188  -1.767  22.335  0.00  0.00    -0.220 NA
ATOM      8  C   UNL     1       7.761  -0.828  23.203  0.00  0.00    +0.134 A 
ATOM      9  N   UNL     1       6.668  -1.162  24.053  0.00  0.00    -0.299 N 
ATOM     10  H   UNL     1       5.862  -0.595  23.810  0.00  0.00    +0.154 HD
ATOM     11  C   UNL     1       8.372   0.434  23.293  0.00  0.00    +0.041 A 
ATOM     12  C   UNL     1       7.999   1.475  24.185  0.00  0.00    +0.025 A 
ENDROOT
BRANCH   9  13
ATOM     13  C   UNL     1       6.335  -2.485  24.428  0.00  0.00    +0.034 A 
ATOM     14  C   UNL     1       5.205  -3.132  23.930  0.00  0.00    +0.027 A 
ATOM     15  C   UNL     1       4.896  -4.439  24.349  0.00  0.00    +0.049 A 
ATOM     16  C   UNL     1       5.699  -5.119  25.282  0.00  0.00    +0.139 A 
ATOM     17  C   UNL     1       6.839  -4.473  25.768  0.00  0.00    +0.084 A 
ATOM     18 CL   UNL     1       8.052  -5.171  26.789  0.00  0.00    -0.080 Cl
ATOM     19  C   UNL     1       7.103  -3.157  25.382  0.00  0.00    +0.047 A 
BRANCH  16  20
ATOM     20  O   UNL     1       5.236  -6.374  25.586  0.00  0.00    -0.486 OA
BRANCH  20  21
ATOM     21  C   UNL     1       4.126  -6.441  26.480  0.00  0.00    +0.264 C 
BRANCH  21  22
ATOM     22  C   UNL     1       4.547  -6.018  27.861  0.00  0.00    -0.008 A 
ATOM     23  C   UNL     1       5.414  -6.825  28.612  0.00  0.00    +0.007 A 
ATOM     24  C   UNL     1       5.777  -6.458  29.908  0.00  0.00    +0.003 A 
ATOM     25  C   UNL     1       5.281  -5.276  30.459  0.00  0.00    +0.038 A 
ATOM     26  C   UNL     1       4.426  -4.475  29.712  0.00  0.00    +0.124 A 
ATOM     27  F   UNL     1       3.943  -3.346  30.246  0.00  0.00    -0.205 F 
ATOM     28  C   UNL     1       4.056  -4.832  28.421  0.00  0.00    +0.045 A 
ENDBRANCH  21  22
ENDBRANCH  20  21
ENDBRANCH  16  20
ENDBRANCH   9  13
BRANCH   1  31
ATOM     29  C   UNL     1       7.112   4.556  26.808  0.00  0.00    +0.119 A 
ATOM     30  O   UNL     1       7.351   3.442  26.061  0.00  0.00    -0.458 OA
ATOM     31  C   UNL     1       8.300   3.763  25.128  0.00  0.00    +0.135 A 
ATOM     32  C   UNL     1       8.673   5.082  25.296  0.00  0.00    +0.050 A 
ATOM     33  C   UNL     1       7.918   5.588  26.380  0.00  0.00    +0.046 A 
BRANCH  29  34
ATOM     34  C   UNL     1       6.108   4.437  27.899  0.00  0.00    +0.156 C 
BRANCH  34  35
ATOM     35  N   UNL     1       4.960   3.643  27.456  0.00  0.00    -0.308 NA
ATOM     36  H   UNL     1       4.137   4.236  27.366  0.00  0.00    +0.122 HD
BRANCH  35  37
ATOM     37  C   UNL     1       4.674   2.493  28.322  0.00  0.00    +0.104 C 
BRANCH  37  38
ATOM     38  C   UNL     1       3.707   1.494  27.701  0.00  0.00    +0.180 C 
BRANCH  38  40
ATOM     39  C   UNL     1       6.097   0.146  27.371  0.00  0.00    +0.194 C 
ATOM     40  S   UNL     1       4.539   0.414  26.559  0.00  0.00    -0.033 S 
ATOM     41  O   UNL     1       3.830  -0.849  26.532  0.00  0.00    -0.175 OA
ATOM     42  O   UNL     1       4.801   1.159  25.343  0.00  0.00    -0.175 OA
ENDBRANCH  38  40
ENDBRANCH  37  38
ENDBRANCH  35  37
ENDBRANCH  34  35
ENDBRANCH  29  34
ENDBRANCH   1  31
TORSDOF 10
ENDMDL
MODEL 8
REMARK VINA RESULT:      -7.1      2.991      4.031
REMARK  Name = 
REMARK  11 active torsions:
REMARK  status: ('A' for Active; 'I' for Inactive)
REMARK    1  A    between atoms: C_1  and  S_2
REMARK    2  A    between atoms: S_2  and  C_5
REMARK    3  A    between atoms: C_5  and  C_6
REMARK    4  A    between atoms: C_6  and  N_7
REMARK    5  A    between atoms: N_7  and  C_8
REMARK    6  A    between atoms: C_8  and  C_9
REMARK    7  A    between atoms: C_12  and  C_14
REMARK    8  A    between atoms: N_24  and  C_25
REMARK    9  A    between atoms: C_29  and  O_30
REMARK   10  A    between atoms: O_30  and  C_31
REMARK   11  A    between atoms: C_31  and  C_32
REMARK                            x       y       z     vdW  Elec       q    Type
REMARK                         _______ _______ _______ _____ _____    ______ ____
ROOT
ATOM      1  C   UNL     1       4.045  -5.620  25.715  0.00  0.00    +0.018 A 
ATOM      2  C   UNL     1       3.925  -6.662  24.793  0.00  0.00    +0.013 A 
ATOM      3  C   UNL     1       4.735  -6.708  23.658  0.00  0.00    +0.029 A 
ATOM      4  C   UNL     1       5.694  -5.743  23.409  0.00  0.00    +0.076 A 
ATOM      5  N   UNL     1       6.418  -5.860  22.295  0.00  0.00    -0.235 NA
ATOM      6  C   UNL     1       7.328  -4.913  22.072  0.00  0.00    +0.223 A 
ATOM      7  N   UNL     1       7.577  -3.870  22.863  0.00  0.00    -0.220 NA
ATOM      8  C   UNL     1       6.831  -3.747  23.979  0.00  0.00    +0.134 A 
ATOM      9  N   UNL     1       7.056  -2.607  24.803  0.00  0.00    -0.299 N 
ATOM     10  H   UNL     1       7.446  -2.900  25.692  0.00  0.00    +0.154 HD
ATOM     11  C   UNL     1       5.849  -4.691  24.325  0.00  0.00    +0.041 A 
ATOM     12  C   UNL     1       5.010  -4.634  25.470  0.00  0.00    +0.025 A 
ENDROOT
BRANCH   9  13
ATOM     13  C   UNL     1       7.588  -1.384  24.329  0.00  0.00    +0.034 A 
ATOM     14  C   UNL     1       6.861  -0.537  23.493  0.00  0.00    +0.027 A 
ATOM     15  C   UNL     1       7.437   0.658  23.023  0.00  0.00    +0.049 A 
ATOM     16  C   UNL     1       8.751   1.022  23.364  0.00  0.00    +0.139 A 
ATOM     17  C   UNL     1       9.472   0.177  24.214  0.00  0.00    +0.084 A 
ATOM     18 CL   UNL     1      11.032   0.501  24.894  0.00  0.00    -0.080 Cl
ATOM     19  C   UNL     1       8.904  -1.029  24.630  0.00  0.00    +0.047 A 
BRANCH  16  20
ATOM     20  O   UNL     1       9.152   2.207  22.801  0.00  0.00    -0.486 OA
BRANCH  20  21
ATOM     21  C   UNL     1       8.680   3.398  23.427  0.00  0.00    +0.264 C 
BRANCH  21  22
ATOM     22  C   UNL     1       9.830   4.326  23.711  0.00  0.00    -0.008 A 
ATOM     23  C   UNL     1       9.605   5.551  24.355  0.00  0.00    +0.007 A 
ATOM     24  C   UNL     1      10.661   6.433  24.585  0.00  0.00    +0.003 A 
ATOM     25  C   UNL     1      11.951   6.091  24.181  0.00  0.00    +0.038 A 
ATOM     26  C   UNL     1      12.173   4.874  23.547  0.00  0.00    +0.124 A 
ATOM     27  F   UNL     1      13.411   4.552  23.150  0.00  0.00    -0.205 F 
ATOM     28  C   UNL     1      11.129   3.989  23.310  0.00  0.00    +0.045 A 
ENDBRANCH  21  22
ENDBRANCH  20  21
ENDBRANCH  16  20
ENDBRANCH   9  13
BRANCH   1  31
ATOM     29  C   UNL     1       2.078  -4.448  28.445  0.00  0.00    +0.119 A 
ATOM     30  O   UNL     1       2.865  -4.304  27.343  0.00  0.00    -0.458 OA
ATOM     31  C   UNL     1       3.184  -5.557  26.893  0.00  0.00    +0.135 A 
ATOM     32  C   UNL     1       2.582  -6.497  27.707  0.00  0.00    +0.050 A 
ATOM     33  C   UNL     1       1.864  -5.785  28.697  0.00  0.00    +0.046 A 
BRANCH  29  34
ATOM     34  C   UNL     1       1.602  -3.201  29.105  0.00  0.00    +0.156 C 
BRANCH  34  35
ATOM     35  N   UNL     1       2.548  -2.107  28.876  0.00  0.00    -0.308 NA
ATOM     36  H   UNL     1       3.228  -2.068  29.633  0.00  0.00    +0.122 HD
BRANCH  35  37
ATOM     37  C   UNL     1       1.901  -0.802  28.696  0.00  0.00    +0.104 C 
BRANCH  37  38
ATOM     38  C   UNL     1       2.342  -0.078  27.431  0.00  0.00    +0.180 C 
BRANCH  38  40
ATOM     39  C   UNL     1       4.521   1.139  26.245  0.00  0.00    +0.194 C 
ATOM     40  S   UNL     1       4.066  -0.353  27.096  0.00  0.00    -0.033 S 
ATOM     41  O   UNL     1       4.775  -0.376  28.360  0.00  0.00    -0.175 OA
ATOM     42  O   UNL     1       4.172  -1.446  26.151  0.00  0.00    -0.175 OA
ENDBRANCH  38  40
ENDBRANCH  37  38
ENDBRANCH  35  37
ENDBRANCH  34  35
ENDBRANCH  29  34
ENDBRANCH   1  31
TORSDOF 10
ENDMDL
MODEL 9
REMARK VINA RESULT:      -7.0      2.206      3.081
REMARK  Name = 
REMARK  11 active torsions:
REMARK  status: ('A' for Active; 'I' for Inactive)
REMARK    1  A    between atoms: C_1  and  S_2
REMARK    2  A    between atoms: S_2  and  C_5
REMARK    3  A    between atoms: C_5  and  C_6
REMARK    4  A    between atoms: C_6  and  N_7
REMARK    5  A    between atoms: N_7  and  C_8
REMARK    6  A    between atoms: C_8  and  C_9
REMARK    7  A    between atoms: C_12  and  C_14
REMARK    8  A    between atoms: N_24  and  C_25
REMARK    9  A    between atoms: C_29  and  O_30
REMARK   10  A    between atoms: O_30  and  C_31
REMARK   11  A    between atoms: C_31  and  C_32
REMARK                            x       y       z     vdW  Elec       q    Type
REMARK                         _______ _______ _______ _____ _____    ______ ____
ROOT
ATOM      1  C   UNL     1       7.673  -3.334  23.294  0.00  0.00    +0.018 A 
ATOM      2  C   UNL     1       9.016  -3.541  23.616  0.00  0.00    +0.013 A 
ATOM      3  C   UNL     1       9.796  -2.502  24.127  0.00  0.00    +0.029 A 
ATOM      4  C   UNL     1       9.272  -1.242  24.351  0.00  0.00    +0.076 A 
ATOM      5  N   UNL     1      10.092  -0.306  24.833  0.00  0.00    -0.235 NA
ATOM      6  C   UNL     1       9.566   0.902  25.031  0.00  0.00    +0.223 A 
ATOM      7  N   UNL     1       8.303   1.251  24.794  0.00  0.00    -0.220 NA
ATOM      8  C   UNL     1       7.483   0.306  24.291  0.00  0.00    +0.134 A 
ATOM      9  N   UNL     1       6.144   0.686  23.987  0.00  0.00    -0.299 N 
ATOM     10  H   UNL     1       5.504   0.206  24.609  0.00  0.00    +0.154 HD
ATOM     11  C   UNL     1       7.921  -1.007  24.052  0.00  0.00    +0.041 A 
ATOM     12  C   UNL     1       7.134  -2.059  23.512  0.00  0.00    +0.025 A 
ENDROOT
BRANCH   9  13
ATOM     13  C   UNL     1       5.750   2.010  23.683  0.00  0.00    +0.034 A 
ATOM     14  C   UNL     1       6.154   2.652  22.513  0.00  0.00    +0.027 A 
ATOM     15  C   UNL     1       5.761   3.979  22.261  0.00  0.00    +0.049 A 
ATOM     16  C   UNL     1       4.970   4.696  23.177  0.00  0.00    +0.139 A 
ATOM     17  C   UNL     1       4.555   4.045  24.343  0.00  0.00    +0.084 A 
ATOM     18 CL   UNL     1       3.452   4.669  25.524  0.00  0.00    -0.080 Cl
ATOM     19  C   UNL     1       4.996   2.746  24.601  0.00  0.00    +0.047 A 
BRANCH  16  20
ATOM     20  O   UNL     1       4.700   5.980  22.777  0.00  0.00    -0.486 OA
BRANCH  20  21
ATOM     21  C   UNL     1       5.143   7.021  23.645  0.00  0.00    +0.264 C 
BRANCH  21  22
ATOM     22  C   UNL     1       6.604   6.846  23.960  0.00  0.00    -0.008 A 
ATOM     23  C   UNL     1       7.552   6.842  22.927  0.00  0.00    +0.007 A 
ATOM     24  C   UNL     1       8.904   6.641  23.209  0.00  0.00    +0.003 A 
ATOM     25  C   UNL     1       9.317   6.450  24.528  0.00  0.00    +0.038 A 
ATOM     26  C   UNL     1       8.376   6.459  25.551  0.00  0.00    +0.124 A 
ATOM     27  F   UNL     1       8.773   6.266  26.815  0.00  0.00    -0.205 F 
ATOM     28  C   UNL     1       7.027   6.657  25.282  0.00  0.00    +0.045 A 
ENDBRANCH  21  22
ENDBRANCH  20  21
ENDBRANCH  16  20
ENDBRANCH   9  13
BRANCH   1  31
ATOM     29  C   UNL     1       5.121  -5.769  22.787  0.00  0.00    +0.119 A 
ATOM     30  O   UNL     1       5.733  -4.745  23.444  0.00  0.00    -0.458 OA
ATOM     31  C   UNL     1       6.860  -4.413  22.739  0.00  0.00    +0.135 A 
ATOM     32  C   UNL     1       6.951  -5.222  21.624  0.00  0.00    +0.050 A 
ATOM     33  C   UNL     1       5.830  -6.086  21.649  0.00  0.00    +0.046 A 
BRANCH  29  34
ATOM     34  C   UNL     1       3.860  -6.294  23.377  0.00  0.00    +0.156 C 
BRANCH  34  35
ATOM     35  N   UNL     1       4.131  -7.472  24.204  0.00  0.00    -0.308 NA
ATOM     36  H   UNL     1       3.584  -8.264  23.875  0.00  0.00    +0.122 HD
BRANCH  35  37
ATOM     37  C   UNL     1       3.904  -7.247  25.637  0.00  0.00    +0.104 C 
BRANCH  37  38
ATOM     38  C   UNL     1       5.048  -6.514  26.323  0.00  0.00    +0.180 C 
BRANCH  38  40
ATOM     39  C   UNL     1       5.586  -5.018  28.583  0.00  0.00    +0.194 C 
ATOM     40  S   UNL     1       4.887  -6.575  28.093  0.00  0.00    -0.033 S 
ATOM     41  O   UNL     1       3.475  -6.552  28.420  0.00  0.00    -0.175 OA
ATOM     42  O   UNL     1       5.759  -7.623  28.587  0.00  0.00    -0.175 OA
ENDBRANCH  38  40
ENDBRANCH  37  38
ENDBRANCH  35  37
ENDBRANCH  34  35
ENDBRANCH  29  34
ENDBRANCH   1  31
TORSDOF 10
ENDMDL
