MODEL 1
REMARK VINA RESULT:      -7.8      0.000      0.000
REMARK  Name = 
REMARK  12 active torsions:
REMARK  status: ('A' for Active; 'I' for Inactive)
REMARK    1  A    between atoms: C_1  and  C_2
REMARK    2  A    between atoms: N_5  and  C_6
REMARK    3  A    between atoms: C_6  and  C_7
REMARK    4  A    between atoms: C_7  and  C_9
REMARK    5  A    between atoms: C_7  and  C_16
REMARK    6  A    between atoms: C_9  and  C_10
REMARK    7  A    between atoms: N_18  and  C_19
REMARK    8  A    between atoms: C_19  and  C_20
REMARK    9  A    between atoms: C_20  and  O_21
REMARK   10  A    between atoms: C_25  and  C_26
REMARK   11  A    between atoms: C_25  and  C_27
REMARK   12  A    between atoms: C_29  and  O_30
REMARK                            x       y       z     vdW  Elec       q    Type
REMARK                         _______ _______ _______ _____ _____    ______ ____
ROOT
ATOM      1  C   UNL     1      10.128  -1.459  23.083  0.00  0.00    +0.097 C 
ENDROOT
BRANCH   1   8
ATOM      2  C   UNL     1       7.862   1.653  24.921  0.00  0.00    +0.009 C 
ATOM      3  C   UNL     1       9.350   1.916  24.606  0.00  0.00    +0.010 C 
ATOM      4  C   UNL     1       9.580   2.869  23.378  0.00  0.00    -0.002 C 
ATOM      5  C   UNL     1      11.081   3.265  23.270  0.00  0.00    +0.016 C 
ATOM      6  C   UNL     1       9.200   2.089  22.090  0.00  0.00    +0.027 C 
ATOM      7  C   UNL     1       9.843   0.706  21.985  0.00  0.00    +0.085 C 
ATOM      8  N   UNL     1       9.556  -0.110  23.171  0.00  0.00    -0.301 NA
ATOM      9  C   UNL     1      10.045   0.559  24.390  0.00  0.00    +0.088 C 
BRANCH   4  10
ATOM     10  C   UNL     1       8.777   4.178  23.553  0.00  0.00    -0.038 A 
ATOM     11  C   UNL     1       9.098   5.135  24.532  0.00  0.00    +0.004 A 
ATOM     12  C   UNL     1       8.421   6.358  24.604  0.00  0.00    +0.004 A 
ATOM     13  C   UNL     1       7.403   6.646  23.705  0.00  0.00    +0.045 A 
ATOM     14  C   UNL     1       7.055   5.706  22.747  0.00  0.00    +0.117 A 
ATOM     15  C   UNL     1       7.716   4.481  22.673  0.00  0.00    +0.049 A 
BRANCH  14  16
ATOM     16  O   UNL     1       6.059   6.030  21.875  0.00  0.00    -0.507 OA
ATOM     17  H   UNL     1       6.072   5.391  21.143  0.00  0.00    +0.292 HD
ENDBRANCH  14  16
ENDBRANCH   4  10
ENDBRANCH   1   8
BRANCH   1  18
ATOM     18  C   UNL     1       9.139  -2.646  23.202  0.00  0.00    +0.093 C 
BRANCH  18  19
ATOM     19  C   UNL     1       8.962  -3.005  24.684  0.00  0.00    +0.218 C 
ATOM     20  N   UNL     1       9.315  -4.296  25.031  0.00  0.00    -0.305 N 
ATOM     21  H   UNL     1       9.263  -4.999  24.305  0.00  0.00    +0.149 HD
ATOM     22  O   UNL     1       8.572  -2.228  25.548  0.00  0.00    -0.275 OA
BRANCH  20  23
ATOM     23  C   UNL     1       9.089  -4.790  26.389  0.00  0.00    +0.224 C 
BRANCH  23  24
ATOM     24  C   UNL     1       7.729  -5.461  26.619  0.00  0.00    +0.322 C 
ATOM     25  O   UNL     1       6.864  -5.541  25.764  0.00  0.00    -0.249 OA
BRANCH  24  26
ATOM     26  O   UNL     1       7.584  -6.014  27.849  0.00  0.00    -0.480 OA
ATOM     27  H   UNL     1       6.639  -6.095  28.073  0.00  0.00    +0.295 HD
ENDBRANCH  24  26
ENDBRANCH  23  24
ENDBRANCH  20  23
ENDBRANCH  18  19
BRANCH  18  28
ATOM     28  C   UNL     1       7.779  -2.290  22.546  0.00  0.00    +0.049 C 
BRANCH  28  29
ATOM     29  C   UNL     1       6.768  -3.417  22.541  0.00  0.00    -0.047 A 
ATOM     30  C   UNL     1       7.105  -4.689  22.061  0.00  0.00    +0.003 A 
ATOM     31  C   UNL     1       6.195  -5.744  22.156  0.00  0.00    +0.000 A 
ATOM     32  C   UNL     1       4.934  -5.535  22.709  0.00  0.00    +0.000 A 
ATOM     33  C   UNL     1       4.569  -4.263  23.142  0.00  0.00    +0.000 A 
ATOM     34  C   UNL     1       5.476  -3.207  23.050  0.00  0.00    +0.003 A 
ENDBRANCH  28  29
ENDBRANCH  18  28
ENDBRANCH   1  18
TORSDOF 10
ENDMDL
MODEL 2
REMARK VINA RESULT:      -7.5      2.163      3.664
REMARK  Name = 
REMARK  12 active torsions:
REMARK  status: ('A' for Active; 'I' for Inactive)
REMARK    1  A    between atoms: C_1  and  C_2
REMARK    2  A    between atoms: N_5  and  C_6
REMARK    3  A    between atoms: C_6  and  C_7
REMARK    4  A    between atoms: C_7  and  C_9
REMARK    5  A    between atoms: C_7  and  C_16
REMARK    6  A    between atoms: C_9  and  C_10
REMARK    7  A    between atoms: N_18  and  C_19
REMARK    8  A    between atoms: C_19  and  C_20
REMARK    9  A    between atoms: C_20  and  O_21
REMARK   10  A    between atoms: C_25  and  C_26
REMARK   11  A    between atoms: C_25  and  C_27
REMARK   12  A    between atoms: C_29  and  O_30
REMARK                            x       y       z     vdW  Elec       q    Type
REMARK                         _______ _______ _______ _____ _____    ______ ____
ROOT
ATOM      1  C   UNL     1       9.694  -2.330  23.568  0.00  0.00    +0.097 C 
ENDROOT
BRANCH   1   8
ATOM      2  C   UNL     1       9.372   1.429  21.576  0.00  0.00    +0.009 C 
ATOM      3  C   UNL     1       8.541   1.202  22.857  0.00  0.00    +0.010 C 
ATOM      4  C   UNL     1       9.092   1.966  24.115  0.00  0.00    -0.002 C 
ATOM      5  C   UNL     1       8.080   1.874  25.294  0.00  0.00    +0.016 C 
ATOM      6  C   UNL     1      10.406   1.268  24.560  0.00  0.00    +0.027 C 
ATOM      7  C   UNL     1      10.289  -0.249  24.704  0.00  0.00    +0.085 C 
ATOM      8  N   UNL     1       9.782  -0.868  23.474  0.00  0.00    -0.301 NA
ATOM      9  C   UNL     1       8.462  -0.313  23.120  0.00  0.00    +0.088 C 
BRANCH   4  10
ATOM     10  C   UNL     1       9.281   3.466  23.795  0.00  0.00    -0.038 A 
ATOM     11  C   UNL     1       8.199   4.322  23.523  0.00  0.00    +0.004 A 
ATOM     12  C   UNL     1       8.386   5.697  23.338  0.00  0.00    +0.004 A 
ATOM     13  C   UNL     1       9.660   6.243  23.412  0.00  0.00    +0.045 A 
ATOM     14  C   UNL     1      10.744   5.413  23.655  0.00  0.00    +0.117 A 
ATOM     15  C   UNL     1      10.569   4.042  23.832  0.00  0.00    +0.049 A 
BRANCH  14  16
ATOM     16  O   UNL     1      11.977   5.988  23.733  0.00  0.00    -0.507 OA
ATOM     17  H   UNL     1      12.573   5.520  23.126  0.00  0.00    +0.292 HD
ENDBRANCH  14  16
ENDBRANCH   4  10
ENDBRANCH   1   8
BRANCH   1  18
ATOM     18  C   UNL     1       8.434  -2.911  24.258  0.00  0.00    +0.093 C 
BRANCH  18  19
ATOM     19  C   UNL     1       7.865  -4.044  23.392  0.00  0.00    +0.218 C 
ATOM     20  N   UNL     1       6.847  -3.681  22.530  0.00  0.00    -0.305 N 
ATOM     21  H   UNL     1       6.286  -2.880  22.789  0.00  0.00    +0.149 HD
ATOM     22  O   UNL     1       8.274  -5.200  23.399  0.00  0.00    -0.275 OA
BRANCH  20  23
ATOM     23  C   UNL     1       6.151  -4.693  21.733  0.00  0.00    +0.224 C 
BRANCH  23  24
ATOM     24  C   UNL     1       5.079  -5.489  22.487  0.00  0.00    +0.322 C 
ATOM     25  O   UNL     1       3.938  -5.094  22.653  0.00  0.00    -0.249 OA
BRANCH  24  26
ATOM     26  O   UNL     1       5.490  -6.709  22.912  0.00  0.00    -0.480 OA
ATOM     27  H   UNL     1       5.828  -7.233  22.163  0.00  0.00    +0.295 HD
ENDBRANCH  24  26
ENDBRANCH  23  24
ENDBRANCH  20  23
ENDBRANCH  18  19
BRANCH  18  28
ATOM     28  C   UNL     1       8.777  -3.415  25.684  0.00  0.00    +0.049 C 
BRANCH  28  29
ATOM     29  C   UNL     1       7.588  -3.913  26.479  0.00  0.00    -0.047 A 
ATOM     30  C   UNL     1       7.567  -5.208  27.013  0.00  0.00    +0.003 A 
ATOM     31  C   UNL     1       6.510  -5.619  27.828  0.00  0.00    +0.000 A 
ATOM     32  C   UNL     1       5.456  -4.751  28.101  0.00  0.00    +0.000 A 
ATOM     33  C   UNL     1       5.440  -3.479  27.533  0.00  0.00    +0.000 A 
ATOM     34  C   UNL     1       6.495  -3.065  26.720  0.00  0.00    +0.003 A 
ENDBRANCH  28  29
ENDBRANCH  18  28
ENDBRANCH   1  18
TORSDOF 10
ENDMDL
MODEL 3
REMARK VINA RESULT:      -7.3      2.500      8.797
REMARK  Name = 
REMARK  12 active torsions:
REMARK  status: ('A' for Active; 'I' for Inactive)
REMARK    1  A    between atoms: C_1  and  C_2
REMARK    2  A    between atoms: N_5  and  C_6
REMARK    3  A    between atoms: C_6  and  C_7
REMARK    4  A    between atoms: C_7  and  C_9
REMARK    5  A    between atoms: C_7  and  C_16
REMARK    6  A    between atoms: C_9  and  C_10
REMARK    7  A    between atoms: N_18  and  C_19
REMARK    8  A    between atoms: C_19  and  C_20
REMARK    9  A    between atoms: C_20  and  O_21
REMARK   10  A    between atoms: C_25  and  C_26
REMARK   11  A    between atoms: C_25  and  C_27
REMARK   12  A    between atoms: C_29  and  O_30
REMARK                            x       y       z     vdW  Elec       q    Type
REMARK                         _______ _______ _______ _____ _____    ______ ____
ROOT
ATOM      1  C   UNL     1       9.227   0.047  22.557  0.00  0.00    +0.097 C 
ENDROOT
BRANCH   1   8
ATOM      2  C   UNL     1       6.153  -1.566  25.037  0.00  0.00    +0.009 C 
ATOM      3  C   UNL     1       6.479  -2.284  23.710  0.00  0.00    +0.010 C 
ATOM      4  C   UNL     1       7.272  -3.628  23.894  0.00  0.00    -0.002 C 
ATOM      5  C   UNL     1       7.357  -4.399  22.544  0.00  0.00    +0.016 C 
ATOM      6  C   UNL     1       8.719  -3.274  24.332  0.00  0.00    +0.027 C 
ATOM      7  C   UNL     1       9.396  -2.220  23.457  0.00  0.00    +0.085 C 
ATOM      8  N   UNL     1       8.585  -1.000  23.362  0.00  0.00    -0.301 NA
ATOM      9  C   UNL     1       7.253  -1.305  22.808  0.00  0.00    +0.088 C 
BRANCH   4  10
ATOM     10  C   UNL     1       6.544  -4.551  24.897  0.00  0.00    -0.038 A 
ATOM     11  C   UNL     1       5.332  -5.195  24.589  0.00  0.00    +0.004 A 
ATOM     12  C   UNL     1       4.745  -6.106  25.474  0.00  0.00    +0.004 A 
ATOM     13  C   UNL     1       5.352  -6.386  26.691  0.00  0.00    +0.045 A 
ATOM     14  C   UNL     1       6.534  -5.743  27.026  0.00  0.00    +0.117 A 
ATOM     15  C   UNL     1       7.122  -4.827  26.154  0.00  0.00    +0.049 A 
BRANCH  14  16
ATOM     16  O   UNL     1       7.107  -6.052  28.223  0.00  0.00    -0.507 OA
ATOM     17  H   UNL     1       7.617  -5.284  28.528  0.00  0.00    +0.292 HD
ENDBRANCH  14  16
ENDBRANCH   4  10
ENDBRANCH   1   8
BRANCH   1  18
ATOM     18  C   UNL     1       8.990   1.513  23.003  0.00  0.00    +0.093 C 
BRANCH  18  19
ATOM     19  C   UNL     1      10.325   2.119  23.459  0.00  0.00    +0.218 C 
ATOM     20  N   UNL     1      10.569   3.412  23.033  0.00  0.00    -0.305 N 
ATOM     21  H   UNL     1      10.117   3.709  22.178  0.00  0.00    +0.149 HD
ATOM     22  O   UNL     1      11.137   1.553  24.181  0.00  0.00    -0.275 OA
BRANCH  20  23
ATOM     23  C   UNL     1      11.852   4.057  23.312  0.00  0.00    +0.224 C 
BRANCH  23  24
ATOM     24  C   UNL     1      11.762   5.528  23.737  0.00  0.00    +0.322 C 
ATOM     25  O   UNL     1      10.730   6.176  23.706  0.00  0.00    -0.249 OA
BRANCH  24  26
ATOM     26  O   UNL     1      12.925   6.042  24.206  0.00  0.00    -0.480 OA
ATOM     27  H   UNL     1      13.080   5.748  25.123  0.00  0.00    +0.295 HD
ENDBRANCH  24  26
ENDBRANCH  23  24
ENDBRANCH  20  23
ENDBRANCH  18  19
BRANCH  18  28
ATOM     28  C   UNL     1       8.365   2.339  21.848  0.00  0.00    +0.049 C 
BRANCH  28  29
ATOM     29  C   UNL     1       7.138   3.137  22.237  0.00  0.00    -0.047 A 
ATOM     30  C   UNL     1       5.944   2.499  22.596  0.00  0.00    +0.003 A 
ATOM     31  C   UNL     1       4.853   3.242  23.048  0.00  0.00    +0.000 A 
ATOM     32  C   UNL     1       4.935   4.631  23.127  0.00  0.00    +0.000 A 
ATOM     33  C   UNL     1       6.098   5.281  22.724  0.00  0.00    +0.000 A 
ATOM     34  C   UNL     1       7.191   4.539  22.272  0.00  0.00    +0.003 A 
ENDBRANCH  28  29
ENDBRANCH  18  28
ENDBRANCH   1  18
TORSDOF 10
ENDMDL
MODEL 4
REMARK VINA RESULT:      -7.3      2.943      8.582
REMARK  Name = 
REMARK  12 active torsions:
REMARK  status: ('A' for Active; 'I' for Inactive)
REMARK    1  A    between atoms: C_1  and  C_2
REMARK    2  A    between atoms: N_5  and  C_6
REMARK    3  A    between atoms: C_6  and  C_7
REMARK    4  A    between atoms: C_7  and  C_9
REMARK    5  A    between atoms: C_7  and  C_16
REMARK    6  A    between atoms: C_9  and  C_10
REMARK    7  A    between atoms: N_18  and  C_19
REMARK    8  A    between atoms: C_19  and  C_20
REMARK    9  A    between atoms: C_20  and  O_21
REMARK   10  A    between atoms: C_25  and  C_26
REMARK   11  A    between atoms: C_25  and  C_27
REMARK   12  A    between atoms: C_29  and  O_30
REMARK                            x       y       z     vdW  Elec       q    Type
REMARK                         _______ _______ _______ _____ _____    ______ ____
ROOT
ATOM      1  C   UNL     1       9.673   2.225  24.090  0.00  0.00    +0.097 C 
ENDROOT
BRANCH   1   8
ATOM      2  C   UNL     1       9.136  -1.413  21.927  0.00  0.00    +0.009 C 
ATOM      3  C   UNL     1       9.422  -1.494  23.442  0.00  0.00    +0.010 C 
ATOM      4  C   UNL     1       8.164  -1.874  24.305  0.00  0.00    -0.002 C 
ATOM      5  C   UNL     1       8.581  -2.160  25.777  0.00  0.00    +0.016 C 
ATOM      6  C   UNL     1       7.203  -0.654  24.311  0.00  0.00    +0.027 C 
ATOM      7  C   UNL     1       7.877   0.671  24.668  0.00  0.00    +0.085 C 
ATOM      8  N   UNL     1       9.026   0.940  23.796  0.00  0.00    -0.301 NA
ATOM      9  C   UNL     1      10.017  -0.148  23.894  0.00  0.00    +0.088 C 
BRANCH   4  10
ATOM     10  C   UNL     1       7.506  -3.162  23.761  0.00  0.00    -0.038 A 
ATOM     11  C   UNL     1       8.198  -4.383  23.672  0.00  0.00    +0.004 A 
ATOM     12  C   UNL     1       7.551  -5.559  23.273  0.00  0.00    +0.004 A 
ATOM     13  C   UNL     1       6.201  -5.537  22.948  0.00  0.00    +0.045 A 
ATOM     14  C   UNL     1       5.507  -4.338  23.006  0.00  0.00    +0.117 A 
ATOM     15  C   UNL     1       6.144  -3.160  23.392  0.00  0.00    +0.049 A 
BRANCH  14  16
ATOM     16  O   UNL     1       4.181  -4.358  22.691  0.00  0.00    -0.507 OA
ATOM     17  H   UNL     1       4.080  -4.074  21.767  0.00  0.00    +0.292 HD
ENDBRANCH  14  16
ENDBRANCH   4  10
ENDBRANCH   1   8
BRANCH   1  18
ATOM     18  C   UNL     1       8.819   3.501  23.875  0.00  0.00    +0.093 C 
BRANCH  18  19
ATOM     19  C   UNL     1       9.734   4.733  23.946  0.00  0.00    +0.218 C 
ATOM     20  N   UNL     1      10.998   4.568  23.410  0.00  0.00    -0.305 N 
ATOM     21  H   UNL     1      11.374   3.629  23.396  0.00  0.00    +0.149 HD
ATOM     22  O   UNL     1       9.403   5.821  24.402  0.00  0.00    -0.275 OA
BRANCH  20  23
ATOM     23  C   UNL     1      11.995   5.633  23.517  0.00  0.00    +0.224 C 
BRANCH  23  24
ATOM     24  C   UNL     1      13.244   5.445  22.646  0.00  0.00    +0.322 C 
ATOM     25  O   UNL     1      13.289   5.733  21.463  0.00  0.00    -0.249 OA
BRANCH  24  26
ATOM     26  O   UNL     1      14.324   4.976  23.318  0.00  0.00    -0.480 OA
ATOM     27  H   UNL     1      14.525   5.552  24.078  0.00  0.00    +0.295 HD
ENDBRANCH  24  26
ENDBRANCH  23  24
ENDBRANCH  20  23
ENDBRANCH  18  19
BRANCH  18  28
ATOM     28  C   UNL     1       8.072   3.435  22.517  0.00  0.00    +0.049 C 
BRANCH  28  29
ATOM     29  C   UNL     1       6.617   3.848  22.578  0.00  0.00    -0.047 A 
ATOM     30  C   UNL     1       5.594   2.891  22.592  0.00  0.00    +0.003 A 
ATOM     31  C   UNL     1       4.263   3.282  22.750  0.00  0.00    +0.000 A 
ATOM     32  C   UNL     1       3.937   4.630  22.874  0.00  0.00    +0.000 A 
ATOM     33  C   UNL     1       4.940   5.594  22.809  0.00  0.00    +0.000 A 
ATOM     34  C   UNL     1       6.271   5.206  22.653  0.00  0.00    +0.003 A 
ENDBRANCH  28  29
ENDBRANCH  18  28
ENDBRANCH   1  18
TORSDOF 10
ENDMDL
MODEL 5
REMARK VINA RESULT:      -7.3      3.046      8.516
REMARK  Name = 
REMARK  12 active torsions:
REMARK  status: ('A' for Active; 'I' for Inactive)
REMARK    1  A    between atoms: C_1  and  C_2
REMARK    2  A    between atoms: N_5  and  C_6
REMARK    3  A    between atoms: C_6  and  C_7
REMARK    4  A    between atoms: C_7  and  C_9
REMARK    5  A    between atoms: C_7  and  C_16
REMARK    6  A    between atoms: C_9  and  C_10
REMARK    7  A    between atoms: N_18  and  C_19
REMARK    8  A    between atoms: C_19  and  C_20
REMARK    9  A    between atoms: C_20  and  O_21
REMARK   10  A    between atoms: C_25  and  C_26
REMARK   11  A    between atoms: C_25  and  C_27
REMARK   12  A    between atoms: C_29  and  O_30
REMARK                            x       y       z     vdW  Elec       q    Type
REMARK                         _______ _______ _______ _____ _____    ______ ____
ROOT
ATOM      1  C   UNL     1       9.229   2.740  22.950  0.00  0.00    +0.097 C 
ENDROOT
BRANCH   1   8
ATOM      2  C   UNL     1       6.720  -0.130  24.866  0.00  0.00    +0.009 C 
ATOM      3  C   UNL     1       7.316  -0.480  23.486  0.00  0.00    +0.010 C 
ATOM      4  C   UNL     1       8.486  -1.527  23.547  0.00  0.00    -0.002 C 
ATOM      5  C   UNL     1       8.872  -1.997  22.115  0.00  0.00    +0.016 C 
ATOM      6  C   UNL     1       9.725  -0.825  24.168  0.00  0.00    +0.027 C 
ATOM      7  C   UNL     1      10.070   0.517  23.522  0.00  0.00    +0.085 C 
ATOM      8  N   UNL     1       8.919   1.427  23.529  0.00  0.00    -0.301 NA
ATOM      9  C   UNL     1       7.778   0.826  22.814  0.00  0.00    +0.088 C 
BRANCH   4  10
ATOM     10  C   UNL     1       8.045  -2.783  24.333  0.00  0.00    -0.038 A 
ATOM     11  C   UNL     1       6.938  -3.563  23.950  0.00  0.00    +0.004 A 
ATOM     12  C   UNL     1       6.621  -4.752  24.616  0.00  0.00    +0.004 A 
ATOM     13  C   UNL     1       7.397  -5.183  25.684  0.00  0.00    +0.045 A 
ATOM     14  C   UNL     1       8.478  -4.417  26.092  0.00  0.00    +0.117 A 
ATOM     15  C   UNL     1       8.797  -3.226  25.442  0.00  0.00    +0.049 A 
BRANCH  14  16
ATOM     16  O   UNL     1       9.223  -4.878  27.136  0.00  0.00    -0.507 OA
ATOM     17  H   UNL     1       9.388  -5.826  27.001  0.00  0.00    +0.292 HD
ENDBRANCH  14  16
ENDBRANCH   4  10
ENDBRANCH   1   8
BRANCH   1  18
ATOM     18  C   UNL     1       8.599   3.975  23.642  0.00  0.00    +0.093 C 
BRANCH  18  19
ATOM     19  C   UNL     1       9.649   5.093  23.724  0.00  0.00    +0.218 C 
ATOM     20  N   UNL     1      10.938   4.725  23.386  0.00  0.00    -0.305 N 
ATOM     21  H   UNL     1      11.189   3.753  23.511  0.00  0.00    +0.149 HD
ATOM     22  O   UNL     1       9.407   6.255  24.029  0.00  0.00    -0.275 OA
BRANCH  20  23
ATOM     23  C   UNL     1      12.044   5.673  23.531  0.00  0.00    +0.224 C 
BRANCH  23  24
ATOM     24  C   UNL     1      13.255   5.402  22.629  0.00  0.00    +0.322 C 
ATOM     25  O   UNL     1      13.260   5.611  21.429  0.00  0.00    -0.249 OA
BRANCH  24  26
ATOM     26  O   UNL     1      14.351   4.957  23.291  0.00  0.00    -0.480 OA
ATOM     27  H   UNL     1      14.885   4.382  22.713  0.00  0.00    +0.295 HD
ENDBRANCH  24  26
ENDBRANCH  23  24
ENDBRANCH  20  23
ENDBRANCH  18  19
BRANCH  18  28
ATOM     28  C   UNL     1       7.338   4.447  22.873  0.00  0.00    +0.049 C 
BRANCH  28  29
ATOM     29  C   UNL     1       6.025   3.984  23.469  0.00  0.00    -0.047 A 
ATOM     30  C   UNL     1       4.858   3.932  22.697  0.00  0.00    +0.003 A 
ATOM     31  C   UNL     1       3.679   3.408  23.231  0.00  0.00    +0.000 A 
ATOM     32  C   UNL     1       3.648   2.951  24.546  0.00  0.00    +0.000 A 
ATOM     33  C   UNL     1       4.788   3.046  25.341  0.00  0.00    +0.000 A 
ATOM     34  C   UNL     1       5.967   3.568  24.809  0.00  0.00    +0.003 A 
ENDBRANCH  28  29
ENDBRANCH  18  28
ENDBRANCH   1  18
TORSDOF 10
ENDMDL
MODEL 6
REMARK VINA RESULT:      -7.2      2.533      8.510
REMARK  Name = 
REMARK  12 active torsions:
REMARK  status: ('A' for Active; 'I' for Inactive)
REMARK    1  A    between atoms: C_1  and  C_2
REMARK    2  A    between atoms: N_5  and  C_6
REMARK    3  A    between atoms: C_6  and  C_7
REMARK    4  A    between atoms: C_7  and  C_9
REMARK    5  A    between atoms: C_7  and  C_16
REMARK    6  A    between atoms: C_9  and  C_10
REMARK    7  A    between atoms: N_18  and  C_19
REMARK    8  A    between atoms: C_19  and  C_20
REMARK    9  A    between atoms: C_20  and  O_21
REMARK   10  A    between atoms: C_25  and  C_26
REMARK   11  A    between atoms: C_25  and  C_27
REMARK   12  A    between atoms: C_29  and  O_30
REMARK                            x       y       z     vdW  Elec       q    Type
REMARK                         _______ _______ _______ _____ _____    ______ ____
ROOT
ATOM      1  C   UNL     1       8.662  -0.742  22.549  0.00  0.00    +0.097 C 
ENDROOT
BRANCH   1   8
ATOM      2  C   UNL     1       5.289  -2.570  24.414  0.00  0.00    +0.009 C 
ATOM      3  C   UNL     1       5.899  -3.250  23.170  0.00  0.00    +0.010 C 
ATOM      4  C   UNL     1       6.727  -4.546  23.497  0.00  0.00    -0.002 C 
ATOM      5  C   UNL     1       7.109  -5.293  22.186  0.00  0.00    +0.016 C 
ATOM      6  C   UNL     1       8.043  -4.109  24.197  0.00  0.00    +0.027 C 
ATOM      7  C   UNL     1       8.803  -3.005  23.462  0.00  0.00    +0.085 C 
ATOM      8  N   UNL     1       7.949  -1.836  23.220  0.00  0.00    -0.301 NA
ATOM      9  C   UNL     1       6.764  -2.215  22.429  0.00  0.00    +0.088 C 
BRANCH   4  10
ATOM     10  C   UNL     1       5.885  -5.524  24.347  0.00  0.00    -0.038 A 
ATOM     11  C   UNL     1       5.996  -5.595  25.748  0.00  0.00    +0.004 A 
ATOM     12  C   UNL     1       5.150  -6.414  26.504  0.00  0.00    +0.004 A 
ATOM     13  C   UNL     1       4.181  -7.186  25.877  0.00  0.00    +0.045 A 
ATOM     14  C   UNL     1       4.071  -7.149  24.496  0.00  0.00    +0.117 A 
ATOM     15  C   UNL     1       4.915  -6.344  23.732  0.00  0.00    +0.049 A 
BRANCH  14  16
ATOM     16  O   UNL     1       3.101  -7.912  23.917  0.00  0.00    -0.507 OA
ATOM     17  H   UNL     1       2.573  -8.323  24.620  0.00  0.00    +0.292 HD
ENDBRANCH  14  16
ENDBRANCH   4  10
ENDBRANCH   1   8
BRANCH   1  18
ATOM     18  C   UNL     1       8.868   0.560  23.364  0.00  0.00    +0.093 C 
BRANCH  18  19
ATOM     19  C   UNL     1       9.130   0.195  24.833  0.00  0.00    +0.218 C 
ATOM     20  N   UNL     1       8.005  -0.082  25.588  0.00  0.00    -0.305 N 
ATOM     21  H   UNL     1       7.136   0.346  25.295  0.00  0.00    +0.149 HD
ATOM     22  O   UNL     1      10.242   0.106  25.342  0.00  0.00    -0.275 OA
BRANCH  20  23
ATOM     23  C   UNL     1       8.117  -0.334  27.025  0.00  0.00    +0.224 C 
BRANCH  23  24
ATOM     24  C   UNL     1       7.243   0.560  27.913  0.00  0.00    +0.322 C 
ATOM     25  O   UNL     1       6.080   0.827  27.662  0.00  0.00    -0.249 OA
BRANCH  24  26
ATOM     26  O   UNL     1       7.857   0.991  29.042  0.00  0.00    -0.480 OA
ATOM     27  H   UNL     1       7.218   1.441  29.624  0.00  0.00    +0.295 HD
ENDBRANCH  24  26
ENDBRANCH  23  24
ENDBRANCH  20  23
ENDBRANCH  18  19
BRANCH  18  28
ATOM     28  C   UNL     1      10.038   1.392  22.777  0.00  0.00    +0.049 C 
BRANCH  28  29
ATOM     29  C   UNL     1      10.044   2.849  23.188  0.00  0.00    -0.047 A 
ATOM     30  C   UNL     1      11.245   3.550  23.352  0.00  0.00    +0.003 A 
ATOM     31  C   UNL     1      11.234   4.918  23.633  0.00  0.00    +0.000 A 
ATOM     32  C   UNL     1      10.025   5.595  23.774  0.00  0.00    +0.000 A 
ATOM     33  C   UNL     1       8.824   4.898  23.665  0.00  0.00    +0.000 A 
ATOM     34  C   UNL     1       8.833   3.532  23.383  0.00  0.00    +0.003 A 
ENDBRANCH  28  29
ENDBRANCH  18  28
ENDBRANCH   1  18
TORSDOF 10
ENDMDL
MODEL 7
REMARK VINA RESULT:      -7.0      3.139      8.398
REMARK  Name = 
REMARK  12 active torsions:
REMARK  status: ('A' for Active; 'I' for Inactive)
REMARK    1  A    between atoms: C_1  and  C_2
REMARK    2  A    between atoms: N_5  and  C_6
REMARK    3  A    between atoms: C_6  and  C_7
REMARK    4  A    between atoms: C_7  and  C_9
REMARK    5  A    between atoms: C_7  and  C_16
REMARK    6  A    between atoms: C_9  and  C_10
REMARK    7  A    between atoms: N_18  and  C_19
REMARK    8  A    between atoms: C_19  and  C_20
REMARK    9  A    between atoms: C_20  and  O_21
REMARK   10  A    between atoms: C_25  and  C_26
REMARK   11  A    between atoms: C_25  and  C_27
REMARK   12  A    between atoms: C_29  and  O_30
REMARK                            x       y       z     vdW  Elec       q    Type
REMARK                         _______ _______ _______ _____ _____    ______ ____
ROOT
ATOM      1  C   UNL     1       8.782   3.594  23.304  0.00  0.00    +0.097 C 
ENDROOT
BRANCH   1   8
ATOM      2  C   UNL     1       6.671  -0.043  24.023  0.00  0.00    +0.009 C 
ATOM      3  C   UNL     1       7.585   0.043  22.781  0.00  0.00    +0.010 C 
ATOM      4  C   UNL     1       8.928  -0.760  22.925  0.00  0.00    -0.002 C 
ATOM      5  C   UNL     1       9.678  -0.813  21.562  0.00  0.00    +0.016 C 
ATOM      6  C   UNL     1       9.832  -0.003  23.936  0.00  0.00    +0.027 C 
ATOM      7  C   UNL     1       9.980   1.490  23.645  0.00  0.00    +0.085 C 
ATOM      8  N   UNL     1       8.673   2.150  23.546  0.00  0.00    -0.301 NA
ATOM      9  C   UNL     1       7.858   1.529  22.485  0.00  0.00    +0.088 C 
BRANCH   4  10
ATOM     10  C   UNL     1       8.642  -2.220  23.343  0.00  0.00    -0.038 A 
ATOM     11  C   UNL     1       9.089  -2.757  24.564  0.00  0.00    +0.004 A 
ATOM     12  C   UNL     1       8.729  -4.048  24.965  0.00  0.00    +0.004 A 
ATOM     13  C   UNL     1       7.924  -4.834  24.152  0.00  0.00    +0.045 A 
ATOM     14  C   UNL     1       7.493  -4.332  22.934  0.00  0.00    +0.117 A 
ATOM     15  C   UNL     1       7.853  -3.051  22.520  0.00  0.00    +0.049 A 
BRANCH  14  16
ATOM     16  O   UNL     1       6.693  -5.128  22.168  0.00  0.00    -0.507 OA
ATOM     17  H   UNL     1       7.199  -5.916  21.912  0.00  0.00    +0.292 HD
ENDBRANCH  14  16
ENDBRANCH   4  10
ENDBRANCH   1   8
BRANCH   1  18
ATOM     18  C   UNL     1       8.686   4.518  24.544  0.00  0.00    +0.093 C 
BRANCH  18  19
ATOM     19  C   UNL     1       9.879   5.485  24.542  0.00  0.00    +0.218 C 
ATOM     20  N   UNL     1      10.915   5.152  23.689  0.00  0.00    -0.305 N 
ATOM     21  H   UNL     1      11.026   4.173  23.458  0.00  0.00    +0.149 HD
ATOM     22  O   UNL     1       9.944   6.514  25.205  0.00  0.00    -0.275 OA
BRANCH  20  23
ATOM     23  C   UNL     1      12.151   5.934  23.678  0.00  0.00    +0.224 C 
BRANCH  23  24
ATOM     24  C   UNL     1      13.219   5.450  22.689  0.00  0.00    +0.322 C 
ATOM     25  O   UNL     1      13.111   5.548  21.479  0.00  0.00    -0.249 OA
BRANCH  24  26
ATOM     26  O   UNL     1      14.331   4.945  23.277  0.00  0.00    -0.480 OA
ATOM     27  H   UNL     1      14.598   5.502  24.031  0.00  0.00    +0.295 HD
ENDBRANCH  24  26
ENDBRANCH  23  24
ENDBRANCH  20  23
ENDBRANCH  18  19
BRANCH  18  28
ATOM     28  C   UNL     1       7.340   5.290  24.547  0.00  0.00    +0.049 C 
BRANCH  28  29
ATOM     29  C   UNL     1       6.134   4.454  24.173  0.00  0.00    -0.047 A 
ATOM     30  C   UNL     1       5.587   3.532  25.074  0.00  0.00    +0.003 A 
ATOM     31  C   UNL     1       4.415   2.841  24.755  0.00  0.00    +0.000 A 
ATOM     32  C   UNL     1       3.792   3.048  23.527  0.00  0.00    +0.000 A 
ATOM     33  C   UNL     1       4.356   3.923  22.602  0.00  0.00    +0.000 A 
ATOM     34  C   UNL     1       5.525   4.615  22.919  0.00  0.00    +0.003 A 
ENDBRANCH  28  29
ENDBRANCH  18  28
ENDBRANCH   1  18
TORSDOF 10
ENDMDL
MODEL 8
REMARK VINA RESULT:      -7.0      2.139      3.023
REMARK  Name = 
REMARK  12 active torsions:
REMARK  status: ('A' for Active; 'I' for Inactive)
REMARK    1  A    between atoms: C_1  and  C_2
REMARK    2  A    between atoms: N_5  and  C_6
REMARK    3  A    between atoms: C_6  and  C_7
REMARK    4  A    between atoms: C_7  and  C_9
REMARK    5  A    between atoms: C_7  and  C_16
REMARK    6  A    between atoms: C_9  and  C_10
REMARK    7  A    between atoms: N_18  and  C_19
REMARK    8  A    between atoms: C_19  and  C_20
REMARK    9  A    between atoms: C_20  and  O_21
REMARK   10  A    between atoms: C_25  and  C_26
REMARK   11  A    between atoms: C_25  and  C_27
REMARK   12  A    between atoms: C_29  and  O_30
REMARK                            x       y       z     vdW  Elec       q    Type
REMARK                         _______ _______ _______ _____ _____    ______ ____
ROOT
ATOM      1  C   UNL     1       6.673   0.104  24.214  0.00  0.00    +0.097 C 
ENDROOT
BRANCH   1   8
ATOM      2  C   UNL     1      10.599   1.761  24.025  0.00  0.00    +0.009 C 
ATOM      3  C   UNL     1       9.493   2.391  23.152  0.00  0.00    +0.010 C 
ATOM      4  C   UNL     1       8.981   3.779  23.682  0.00  0.00    -0.002 C 
ATOM      5  C   UNL     1       8.045   4.449  22.635  0.00  0.00    +0.016 C 
ATOM      6  C   UNL     1       8.149   3.523  24.968  0.00  0.00    +0.027 C 
ATOM      7  C   UNL     1       7.084   2.437  24.817  0.00  0.00    +0.085 C 
ATOM      8  N   UNL     1       7.665   1.179  24.334  0.00  0.00    -0.301 NA
ATOM      9  C   UNL     1       8.336   1.382  23.036  0.00  0.00    +0.088 C 
BRANCH   4  10
ATOM     10  C   UNL     1      10.168   4.741  23.910  0.00  0.00    -0.038 A 
ATOM     11  C   UNL     1      10.062   5.897  24.706  0.00  0.00    +0.004 A 
ATOM     12  C   UNL     1      11.178   6.696  24.981  0.00  0.00    +0.004 A 
ATOM     13  C   UNL     1      12.421   6.363  24.460  0.00  0.00    +0.045 A 
ATOM     14  C   UNL     1      12.542   5.242  23.654  0.00  0.00    +0.117 A 
ATOM     15  C   UNL     1      11.436   4.444  23.365  0.00  0.00    +0.049 A 
BRANCH  14  16
ATOM     16  O   UNL     1      13.780   4.940  23.170  0.00  0.00    -0.507 OA
ATOM     17  H   UNL     1      14.180   4.268  23.746  0.00  0.00    +0.292 HD
ENDBRANCH  14  16
ENDBRANCH   4  10
ENDBRANCH   1   8
BRANCH   1  18
ATOM     18  C   UNL     1       7.206  -1.298  23.823  0.00  0.00    +0.093 C 
BRANCH  18  19
ATOM     19  C   UNL     1       7.262  -2.180  25.079  0.00  0.00    +0.218 C 
ATOM     20  N   UNL     1       8.459  -2.839  25.291  0.00  0.00    -0.305 N 
ATOM     21  H   UNL     1       9.026  -3.039  24.477  0.00  0.00    +0.149 HD
ATOM     22  O   UNL     1       6.351  -2.298  25.890  0.00  0.00    -0.275 OA
BRANCH  20  23
ATOM     23  C   UNL     1       8.598  -3.793  26.392  0.00  0.00    +0.224 C 
BRANCH  23  24
ATOM     24  C   UNL     1       8.409  -5.265  26.005  0.00  0.00    +0.322 C 
ATOM     25  O   UNL     1       7.337  -5.843  26.055  0.00  0.00    -0.249 OA
BRANCH  24  26
ATOM     26  O   UNL     1       9.533  -5.867  25.544  0.00  0.00    -0.480 OA
ATOM     27  H   UNL     1       9.964  -6.372  26.259  0.00  0.00    +0.295 HD
ENDBRANCH  24  26
ENDBRANCH  23  24
ENDBRANCH  20  23
ENDBRANCH  18  19
BRANCH  18  28
ATOM     28  C   UNL     1       6.310  -1.937  22.730  0.00  0.00    +0.049 C 
BRANCH  28  29
ATOM     29  C   UNL     1       6.281  -3.451  22.746  0.00  0.00    -0.047 A 
ATOM     30  C   UNL     1       5.156  -4.148  23.205  0.00  0.00    +0.003 A 
ATOM     31  C   UNL     1       5.103  -5.540  23.119  0.00  0.00    +0.000 A 
ATOM     32  C   UNL     1       6.180  -6.252  22.596  0.00  0.00    +0.000 A 
ATOM     33  C   UNL     1       7.324  -5.574  22.184  0.00  0.00    +0.000 A 
ATOM     34  C   UNL     1       7.379  -4.183  22.267  0.00  0.00    +0.003 A 
ENDBRANCH  28  29
ENDBRANCH  18  28
ENDBRANCH   1  18
TORSDOF 10
ENDMDL
MODEL 9
REMARK VINA RESULT:      -7.0      2.304      8.887
REMARK  Name = 
REMARK  12 active torsions:
REMARK  status: ('A' for Active; 'I' for Inactive)
REMARK    1  A    between atoms: C_1  and  C_2
REMARK    2  A    between atoms: N_5  and  C_6
REMARK    3  A    between atoms: C_6  and  C_7
REMARK    4  A    between atoms: C_7  and  C_9
REMARK    5  A    between atoms: C_7  and  C_16
REMARK    6  A    between atoms: C_9  and  C_10
REMARK    7  A    between atoms: N_18  and  C_19
REMARK    8  A    between atoms: C_19  and  C_20
REMARK    9  A    between atoms: C_20  and  O_21
REMARK   10  A    between atoms: C_25  and  C_26
REMARK   11  A    between atoms: C_25  and  C_27
REMARK   12  A    between atoms: C_29  and  O_30
REMARK                            x       y       z     vdW  Elec       q    Type
REMARK                         _______ _______ _______ _____ _____    ______ ____
ROOT
ATOM      1  C   UNL     1       7.754   1.796  21.695  0.00  0.00    +0.097 C 
ENDROOT
BRANCH   1   8
ATOM      2  C   UNL     1       7.529  -0.211  25.452  0.00  0.00    +0.009 C 
ATOM      3  C   UNL     1       6.836  -0.855  24.232  0.00  0.00    +0.010 C 
ATOM      4  C   UNL     1       7.594  -2.106  23.660  0.00  0.00    -0.002 C 
ATOM      5  C   UNL     1       6.723  -2.829  22.592  0.00  0.00    +0.016 C 
ATOM      6  C   UNL     1       8.886  -1.603  22.959  0.00  0.00    +0.027 C 
ATOM      7  C   UNL     1       8.655  -0.459  21.972  0.00  0.00    +0.085 C 
ATOM      8  N   UNL     1       7.956   0.665  22.607  0.00  0.00    -0.301 NA
ATOM      9  C   UNL     1       6.658   0.227  23.151  0.00  0.00    +0.088 C 
BRANCH   4  10
ATOM     10  C   UNL     1       7.874  -3.129  24.784  0.00  0.00    -0.038 A 
ATOM     11  C   UNL     1       6.925  -3.441  25.774  0.00  0.00    +0.004 A 
ATOM     12  C   UNL     1       7.163  -4.444  26.720  0.00  0.00    +0.004 A 
ATOM     13  C   UNL     1       8.357  -5.151  26.702  0.00  0.00    +0.045 A 
ATOM     14  C   UNL     1       9.316  -4.843  25.750  0.00  0.00    +0.117 A 
ATOM     15  C   UNL     1       9.093  -3.839  24.809  0.00  0.00    +0.049 A 
BRANCH  14  16
ATOM     16  O   UNL     1      10.471  -5.566  25.757  0.00  0.00    -0.507 OA
ATOM     17  H   UNL     1      11.139  -5.084  25.241  0.00  0.00    +0.292 HD
ENDBRANCH  14  16
ENDBRANCH   4  10
ENDBRANCH   1   8
BRANCH   1  18
ATOM     18  C   UNL     1       8.257   3.181  22.176  0.00  0.00    +0.093 C 
BRANCH  18  19
ATOM     19  C   UNL     1       7.060   4.134  22.301  0.00  0.00    +0.218 C 
ATOM     20  N   UNL     1       5.894   3.567  22.782  0.00  0.00    -0.305 N 
ATOM     21  H   UNL     1       5.768   2.574  22.631  0.00  0.00    +0.149 HD
ATOM     22  O   UNL     1       7.092   5.331  22.040  0.00  0.00    -0.275 OA
BRANCH  20  23
ATOM     23  C   UNL     1       4.658   4.346  22.842  0.00  0.00    +0.224 C 
BRANCH  23  24
ATOM     24  C   UNL     1       3.403   3.614  22.350  0.00  0.00    +0.322 C 
ATOM     25  O   UNL     1       2.710   2.910  23.065  0.00  0.00    -0.249 OA
BRANCH  24  26
ATOM     26  O   UNL     1       3.089   3.858  21.054  0.00  0.00    -0.480 OA
ATOM     27  H   UNL     1       3.901   3.956  20.523  0.00  0.00    +0.295 HD
ENDBRANCH  24  26
ENDBRANCH  23  24
ENDBRANCH  20  23
ENDBRANCH  18  19
BRANCH  18  28
ATOM     28  C   UNL     1       9.010   3.048  23.526  0.00  0.00    +0.049 C 
BRANCH  28  29
ATOM     29  C   UNL     1      10.114   4.063  23.735  0.00  0.00    -0.047 A 
ATOM     30  C   UNL     1      11.417   3.816  23.285  0.00  0.00    +0.003 A 
ATOM     31  C   UNL     1      12.401   4.801  23.393  0.00  0.00    +0.000 A 
ATOM     32  C   UNL     1      12.100   6.032  23.971  0.00  0.00    +0.000 A 
ATOM     33  C   UNL     1      10.822   6.270  24.470  0.00  0.00    +0.000 A 
ATOM     34  C   UNL     1       9.837   5.288  24.361  0.00  0.00    +0.003 A 
ENDBRANCH  28  29
ENDBRANCH  18  28
ENDBRANCH   1  18
TORSDOF 10
ENDMDL
