MODEL 1
REMARK VINA RESULT:      -7.1      0.000      0.000
REMARK  Name = 
REMARK  7 active torsions:
REMARK  status: ('A' for Active; 'I' for Inactive)
REMARK    1  A    between atoms: C_1  and  N_2
REMARK    2  A    between atoms: N_2  and  C_3
REMARK    3  A    between atoms: N_2  and  S_13
REMARK    4  A    between atoms: C_6  and  C_9
REMARK    5  A    between atoms: N_11  and  O_12
REMARK    6  A    between atoms: S_13  and  C_16
REMARK    7  A    between atoms: C_19  and  C_21
REMARK                            x       y       z     vdW  Elec       q    Type
REMARK                         _______ _______ _______ _____ _____    ______ ____
ROOT
ATOM      1  C   UNL     1       9.776  -1.293  24.514  0.00  0.00    +0.157 C 
ATOM      2  N   UNL     1       8.485  -1.976  24.415  0.00  0.00    -0.206 N 
ENDROOT
BRANCH   2   3
ATOM      3  C   UNL     1       8.062  -2.859  25.452  0.00  0.00    +0.051 A 
ATOM      4  C   UNL     1       6.897  -2.538  26.149  0.00  0.00    +0.025 A 
ATOM      5  C   UNL     1       6.357  -3.432  27.072  0.00  0.00    +0.015 A 
ATOM      6  C   UNL     1       6.968  -4.673  27.283  0.00  0.00    +0.039 A 
ATOM      7  C   UNL     1       8.185  -4.958  26.650  0.00  0.00    +0.015 A 
ATOM      8  C   UNL     1       8.741  -4.045  25.745  0.00  0.00    +0.025 A 
BRANCH   6   9
ATOM      9  C   UNL     1       6.331  -5.717  28.132  0.00  0.00    +0.267 C 
ATOM     10  N   UNL     1       5.668  -6.724  27.461  0.00  0.00    -0.193 N 
ATOM     11  H   UNL     1       5.845  -6.930  26.486  0.00  0.00    +0.183 HD
ATOM     12  O   UNL     1       6.459  -5.719  29.353  0.00  0.00    -0.268 OA
BRANCH  10  13
ATOM     13  O   UNL     1       5.280  -7.829  28.259  0.00  0.00    -0.295 OA
ATOM     14  H   UNL     1       6.094  -8.379  28.264  0.00  0.00    +0.241 HD
ENDBRANCH  10  13
ENDBRANCH   6   9
ENDBRANCH   2   3
BRANCH   2  15
ATOM     15  S   UNL     1       7.729  -2.059  22.892  0.00  0.00    +0.081 S 
ATOM     16  O   UNL     1       8.772  -2.086  21.884  0.00  0.00    -0.149 OA
ATOM     17  O   UNL     1       6.657  -1.088  22.821  0.00  0.00    -0.149 OA
BRANCH  15  18
ATOM     18  C   UNL     1       6.926  -3.645  22.702  0.00  0.00    +0.146 A 
ATOM     19  S   UNL     1       5.251  -3.696  23.010  0.00  0.00    -0.067 S 
ATOM     20  C   UNL     1       5.206  -5.409  22.965  0.00  0.00    +0.039 A 
ATOM     21  C   UNL     1       6.400  -5.904  22.468  0.00  0.00    +0.019 A 
ATOM     22  C   UNL     1       7.388  -4.886  22.302  0.00  0.00    +0.037 A 
BRANCH  20  23
ATOM     23  C   UNL     1       4.042  -6.142  23.477  0.00  0.00    +0.078 A 
ATOM     24  C   UNL     1       2.726  -5.841  23.136  0.00  0.00    +0.029 A 
ATOM     25  C   UNL     1       1.693  -6.511  23.788  0.00  0.00    +0.004 A 
ATOM     26  C   UNL     1       2.001  -7.459  24.755  0.00  0.00    +0.020 A 
ATOM     27  C   UNL     1       3.335  -7.712  25.020  0.00  0.00    +0.111 A 
ATOM     28  N   UNL     1       4.358  -7.082  24.402  0.00  0.00    -0.254 NA
ENDBRANCH  20  23
ENDBRANCH  15  18
ENDBRANCH   2  15
TORSDOF 6
ENDMDL
MODEL 2
REMARK VINA RESULT:      -7.1      3.900      7.855
REMARK  Name = 
REMARK  7 active torsions:
REMARK  status: ('A' for Active; 'I' for Inactive)
REMARK    1  A    between atoms: C_1  and  N_2
REMARK    2  A    between atoms: N_2  and  C_3
REMARK    3  A    between atoms: N_2  and  S_13
REMARK    4  A    between atoms: C_6  and  C_9
REMARK    5  A    between atoms: N_11  and  O_12
REMARK    6  A    between atoms: S_13  and  C_16
REMARK    7  A    between atoms: C_19  and  C_21
REMARK                            x       y       z     vdW  Elec       q    Type
REMARK                         _______ _______ _______ _____ _____    ______ ____
ROOT
ATOM      1  C   UNL     1       6.789  -0.917  23.056  0.00  0.00    +0.157 C 
ATOM      2  N   UNL     1       7.612  -2.066  23.434  0.00  0.00    -0.206 N 
ENDROOT
BRANCH   2   3
ATOM      3  C   UNL     1       6.994  -3.289  23.830  0.00  0.00    +0.051 A 
ATOM      4  C   UNL     1       6.391  -3.339  25.086  0.00  0.00    +0.025 A 
ATOM      5  C   UNL     1       5.649  -4.456  25.470  0.00  0.00    +0.015 A 
ATOM      6  C   UNL     1       5.484  -5.524  24.582  0.00  0.00    +0.039 A 
ATOM      7  C   UNL     1       6.164  -5.513  23.356  0.00  0.00    +0.015 A 
ATOM      8  C   UNL     1       6.932  -4.401  22.986  0.00  0.00    +0.025 A 
BRANCH   6   9
ATOM      9  C   UNL     1       4.567  -6.655  24.889  0.00  0.00    +0.267 C 
ATOM     10  N   UNL     1       3.783  -7.103  23.845  0.00  0.00    -0.193 N 
ATOM     11  H   UNL     1       4.011  -6.909  22.878  0.00  0.00    +0.183 HD
ATOM     12  O   UNL     1       4.568  -7.204  25.987  0.00  0.00    -0.268 OA
BRANCH  10  13
ATOM     13  O   UNL     1       3.100  -8.321  24.081  0.00  0.00    -0.295 OA
ATOM     14  H   UNL     1       3.814  -8.896  24.434  0.00  0.00    +0.241 HD
ENDBRANCH  10  13
ENDBRANCH   6   9
ENDBRANCH   2   3
BRANCH   2  15
ATOM     15  S   UNL     1       9.247  -1.796  23.823  0.00  0.00    +0.081 S 
ATOM     16  O   UNL     1      10.042  -2.738  23.058  0.00  0.00    -0.149 OA
ATOM     17  O   UNL     1       9.401  -1.692  25.259  0.00  0.00    -0.149 OA
BRANCH  15  18
ATOM     18  C   UNL     1       9.765  -0.207  23.188  0.00  0.00    +0.146 A 
ATOM     19  S   UNL     1      10.356   0.916  24.327  0.00  0.00    -0.067 S 
ATOM     20  C   UNL     1      10.356   2.200  23.191  0.00  0.00    +0.039 A 
ATOM     21  C   UNL     1      10.155   1.706  21.913  0.00  0.00    +0.019 A 
ATOM     22  C   UNL     1       9.827   0.316  21.909  0.00  0.00    +0.037 A 
BRANCH  20  23
ATOM     23  C   UNL     1      10.486   3.593  23.636  0.00  0.00    +0.078 A 
ATOM     24  C   UNL     1       9.443   4.329  24.190  0.00  0.00    +0.029 A 
ATOM     25  C   UNL     1       9.641   5.685  24.448  0.00  0.00    +0.004 A 
ATOM     26  C   UNL     1      10.868   6.262  24.150  0.00  0.00    +0.020 A 
ATOM     27  C   UNL     1      11.858   5.454  23.619  0.00  0.00    +0.111 A 
ATOM     28  N   UNL     1      11.698   4.138  23.361  0.00  0.00    -0.254 NA
ENDBRANCH  20  23
ENDBRANCH  15  18
ENDBRANCH   2  15
TORSDOF 6
ENDMDL
MODEL 3
REMARK VINA RESULT:      -7.1      3.529      7.517
REMARK  Name = 
REMARK  7 active torsions:
REMARK  status: ('A' for Active; 'I' for Inactive)
REMARK    1  A    between atoms: C_1  and  N_2
REMARK    2  A    between atoms: N_2  and  C_3
REMARK    3  A    between atoms: N_2  and  S_13
REMARK    4  A    between atoms: C_6  and  C_9
REMARK    5  A    between atoms: N_11  and  O_12
REMARK    6  A    between atoms: S_13  and  C_16
REMARK    7  A    between atoms: C_19  and  C_21
REMARK                            x       y       z     vdW  Elec       q    Type
REMARK                         _______ _______ _______ _____ _____    ______ ____
ROOT
ATOM      1  C   UNL     1       6.635  -2.409  22.304  0.00  0.00    +0.157 C 
ATOM      2  N   UNL     1       7.762  -2.720  23.184  0.00  0.00    -0.206 N 
ENDROOT
BRANCH   2   3
ATOM      3  C   UNL     1       7.549  -3.455  24.388  0.00  0.00    +0.051 A 
ATOM      4  C   UNL     1       6.993  -2.782  25.475  0.00  0.00    +0.025 A 
ATOM      5  C   UNL     1       6.630  -3.479  26.627  0.00  0.00    +0.015 A 
ATOM      6  C   UNL     1       6.796  -4.867  26.686  0.00  0.00    +0.039 A 
ATOM      7  C   UNL     1       7.436  -5.529  25.630  0.00  0.00    +0.015 A 
ATOM      8  C   UNL     1       7.827  -4.822  24.486  0.00  0.00    +0.025 A 
BRANCH   6   9
ATOM      9  C   UNL     1       6.269  -5.664  27.827  0.00  0.00    +0.267 C 
ATOM     10  N   UNL     1       5.665  -6.862  27.504  0.00  0.00    -0.193 N 
ATOM     11  H   UNL     1       5.827  -7.325  26.619  0.00  0.00    +0.183 HD
ATOM     12  O   UNL     1       6.434  -5.309  28.991  0.00  0.00    -0.268 OA
BRANCH  10  13
ATOM     13  O   UNL     1       5.388  -7.715  28.600  0.00  0.00    -0.295 OA
ATOM     14  H   UNL     1       6.243  -7.717  29.084  0.00  0.00    +0.241 HD
ENDBRANCH  10  13
ENDBRANCH   6   9
ENDBRANCH   2   3
BRANCH   2  15
ATOM     15  S   UNL     1       9.203  -1.833  22.996  0.00  0.00    +0.081 S 
ATOM     16  O   UNL     1       9.492  -1.759  21.577  0.00  0.00    -0.149 OA
ATOM     17  O   UNL     1      10.200  -2.311  23.931  0.00  0.00    -0.149 OA
BRANCH  15  18
ATOM     18  C   UNL     1       8.925  -0.126  23.452  0.00  0.00    +0.146 A 
ATOM     19  S   UNL     1       9.867   1.044  22.645  0.00  0.00    -0.067 S 
ATOM     20  C   UNL     1       9.368   2.299  23.700  0.00  0.00    +0.039 A 
ATOM     21  C   UNL     1       8.309   1.872  24.483  0.00  0.00    +0.019 A 
ATOM     22  C   UNL     1       8.044   0.477  24.331  0.00  0.00    +0.037 A 
BRANCH  20  23
ATOM     23  C   UNL     1      10.087   3.579  23.733  0.00  0.00    +0.078 A 
ATOM     24  C   UNL     1       9.474   4.804  23.979  0.00  0.00    +0.029 A 
ATOM     25  C   UNL     1      10.228   5.970  23.849  0.00  0.00    +0.004 A 
ATOM     26  C   UNL     1      11.564   5.879  23.483  0.00  0.00    +0.020 A 
ATOM     27  C   UNL     1      12.100   4.620  23.276  0.00  0.00    +0.111 A 
ATOM     28  N   UNL     1      11.397   3.473  23.397  0.00  0.00    -0.254 NA
ENDBRANCH  20  23
ENDBRANCH  15  18
ENDBRANCH   2  15
TORSDOF 6
ENDMDL
MODEL 4
REMARK VINA RESULT:      -7.1      3.800      8.055
REMARK  Name = 
REMARK  7 active torsions:
REMARK  status: ('A' for Active; 'I' for Inactive)
REMARK    1  A    between atoms: C_1  and  N_2
REMARK    2  A    between atoms: N_2  and  C_3
REMARK    3  A    between atoms: N_2  and  S_13
REMARK    4  A    between atoms: C_6  and  C_9
REMARK    5  A    between atoms: N_11  and  O_12
REMARK    6  A    between atoms: S_13  and  C_16
REMARK    7  A    between atoms: C_19  and  C_21
REMARK                            x       y       z     vdW  Elec       q    Type
REMARK                         _______ _______ _______ _____ _____    ______ ____
ROOT
ATOM      1  C   UNL     1       9.621  -3.638  24.656  0.00  0.00    +0.157 C 
ATOM      2  N   UNL     1       8.700  -3.001  23.714  0.00  0.00    -0.206 N 
ENDROOT
BRANCH   2   3
ATOM      3  C   UNL     1       7.443  -3.610  23.420  0.00  0.00    +0.051 A 
ATOM      4  C   UNL     1       7.447  -4.923  22.951  0.00  0.00    +0.025 A 
ATOM      5  C   UNL     1       6.249  -5.616  22.784  0.00  0.00    +0.015 A 
ATOM      6  C   UNL     1       5.035  -5.005  23.114  0.00  0.00    +0.039 A 
ATOM      7  C   UNL     1       5.025  -3.657  23.500  0.00  0.00    +0.015 A 
ATOM      8  C   UNL     1       6.228  -2.954  23.639  0.00  0.00    +0.025 A 
BRANCH   6   9
ATOM      9  C   UNL     1       3.755  -5.765  23.108  0.00  0.00    +0.267 C 
ATOM     10  N   UNL     1       3.841  -7.101  23.443  0.00  0.00    -0.193 N 
ATOM     11  H   UNL     1       4.632  -7.480  23.949  0.00  0.00    +0.183 HD
ATOM     12  O   UNL     1       2.680  -5.214  22.893  0.00  0.00    -0.268 OA
BRANCH  10  13
ATOM     13  O   UNL     1       2.602  -7.749  23.668  0.00  0.00    -0.295 OA
ATOM     14  H   UNL     1       2.115  -7.088  24.207  0.00  0.00    +0.241 HD
ENDBRANCH  10  13
ENDBRANCH   6   9
ENDBRANCH   2   3
BRANCH   2  15
ATOM     15  S   UNL     1       9.313  -1.811  22.663  0.00  0.00    +0.081 S 
ATOM     16  O   UNL     1       8.434  -1.747  21.511  0.00  0.00    -0.149 OA
ATOM     17  O   UNL     1      10.740  -1.989  22.496  0.00  0.00    -0.149 OA
BRANCH  15  18
ATOM     18  C   UNL     1       9.135  -0.196  23.410  0.00  0.00    +0.146 A 
ATOM     19  S   UNL     1       9.719   1.130  22.513  0.00  0.00    -0.067 S 
ATOM     20  C   UNL     1       9.544   2.211  23.832  0.00  0.00    +0.039 A 
ATOM     21  C   UNL     1       8.813   1.613  24.845  0.00  0.00    +0.019 A 
ATOM     22  C   UNL     1       8.564   0.229  24.597  0.00  0.00    +0.037 A 
BRANCH  20  23
ATOM     23  C   UNL     1      10.186   3.531  23.809  0.00  0.00    +0.078 A 
ATOM     24  C   UNL     1       9.506   4.727  24.025  0.00  0.00    +0.029 A 
ATOM     25  C   UNL     1      10.187   5.929  23.842  0.00  0.00    +0.004 A 
ATOM     26  C   UNL     1      11.521   5.903  23.454  0.00  0.00    +0.020 A 
ATOM     27  C   UNL     1      12.127   4.672  23.279  0.00  0.00    +0.111 A 
ATOM     28  N   UNL     1      11.494   3.490  23.452  0.00  0.00    -0.254 NA
ENDBRANCH  20  23
ENDBRANCH  15  18
ENDBRANCH   2  15
TORSDOF 6
ENDMDL
MODEL 5
REMARK VINA RESULT:      -7.0      3.713      7.657
REMARK  Name = 
REMARK  7 active torsions:
REMARK  status: ('A' for Active; 'I' for Inactive)
REMARK    1  A    between atoms: C_1  and  N_2
REMARK    2  A    between atoms: N_2  and  C_3
REMARK    3  A    between atoms: N_2  and  S_13
REMARK    4  A    between atoms: C_6  and  C_9
REMARK    5  A    between atoms: N_11  and  O_12
REMARK    6  A    between atoms: S_13  and  C_16
REMARK    7  A    between atoms: C_19  and  C_21
REMARK                            x       y       z     vdW  Elec       q    Type
REMARK                         _______ _______ _______ _____ _____    ______ ____
ROOT
ATOM      1  C   UNL     1       9.864  -2.633  23.814  0.00  0.00    +0.157 C 
ATOM      2  N   UNL     1       8.511  -2.461  24.342  0.00  0.00    -0.206 N 
ENDROOT
BRANCH   2   3
ATOM      3  C   UNL     1       7.827  -3.565  24.934  0.00  0.00    +0.051 A 
ATOM      4  C   UNL     1       7.868  -3.689  26.322  0.00  0.00    +0.025 A 
ATOM      5  C   UNL     1       7.103  -4.661  26.967  0.00  0.00    +0.015 A 
ATOM      6  C   UNL     1       6.267  -5.501  26.222  0.00  0.00    +0.039 A 
ATOM      7  C   UNL     1       6.296  -5.435  24.822  0.00  0.00    +0.015 A 
ATOM      8  C   UNL     1       7.087  -4.477  24.177  0.00  0.00    +0.025 A 
BRANCH   6   9
ATOM      9  C   UNL     1       5.315  -6.434  26.884  0.00  0.00    +0.267 C 
ATOM     10  N   UNL     1       5.698  -6.917  28.118  0.00  0.00    -0.193 N 
ATOM     11  H   UNL     1       6.403  -6.459  28.682  0.00  0.00    +0.183 HD
ATOM     12  O   UNL     1       4.221  -6.693  26.392  0.00  0.00    -0.268 OA
BRANCH  10  13
ATOM     13  O   UNL     1       4.689  -7.603  28.838  0.00  0.00    -0.295 OA
ATOM     14  H   UNL     1       5.171  -8.389  29.176  0.00  0.00    +0.241 HD
ENDBRANCH  10  13
ENDBRANCH   6   9
ENDBRANCH   2   3
BRANCH   2  15
ATOM     15  S   UNL     1       7.617  -1.099  23.848  0.00  0.00    +0.081 S 
ATOM     16  O   UNL     1       7.035  -0.501  25.034  0.00  0.00    -0.149 OA
ATOM     17  O   UNL     1       6.791  -1.439  22.709  0.00  0.00    -0.149 OA
BRANCH  15  18
ATOM     18  C   UNL     1       8.728   0.167  23.248  0.00  0.00    +0.146 A 
ATOM     19  S   UNL     1       9.375   1.231  24.412  0.00  0.00    -0.067 S 
ATOM     20  C   UNL     1      10.023   2.280  23.221  0.00  0.00    +0.039 A 
ATOM     21  C   UNL     1       9.961   1.681  21.974  0.00  0.00    +0.019 A 
ATOM     22  C   UNL     1       9.227   0.456  21.990  0.00  0.00    +0.037 A 
BRANCH  20  23
ATOM     23  C   UNL     1      10.479   3.629  23.579  0.00  0.00    +0.078 A 
ATOM     24  C   UNL     1       9.634   4.636  24.037  0.00  0.00    +0.029 A 
ATOM     25  C   UNL     1      10.152   5.918  24.214  0.00  0.00    +0.004 A 
ATOM     26  C   UNL     1      11.491   6.156  23.934  0.00  0.00    +0.020 A 
ATOM     27  C   UNL     1      12.266   5.095  23.501  0.00  0.00    +0.111 A 
ATOM     28  N   UNL     1      11.794   3.841  23.323  0.00  0.00    -0.254 NA
ENDBRANCH  20  23
ENDBRANCH  15  18
ENDBRANCH   2  15
TORSDOF 6
ENDMDL
MODEL 6
REMARK VINA RESULT:      -7.0      3.928      7.648
REMARK  Name = 
REMARK  7 active torsions:
REMARK  status: ('A' for Active; 'I' for Inactive)
REMARK    1  A    between atoms: C_1  and  N_2
REMARK    2  A    between atoms: N_2  and  C_3
REMARK    3  A    between atoms: N_2  and  S_13
REMARK    4  A    between atoms: C_6  and  C_9
REMARK    5  A    between atoms: N_11  and  O_12
REMARK    6  A    between atoms: S_13  and  C_16
REMARK    7  A    between atoms: C_19  and  C_21
REMARK                            x       y       z     vdW  Elec       q    Type
REMARK                         _______ _______ _______ _____ _____    ______ ____
ROOT
ATOM      1  C   UNL     1       8.672  -2.649  25.629  0.00  0.00    +0.157 C 
ATOM      2  N   UNL     1       8.178  -2.549  24.256  0.00  0.00    -0.206 N 
ENDROOT
BRANCH   2   3
ATOM      3  C   UNL     1       7.058  -3.329  23.839  0.00  0.00    +0.051 A 
ATOM      4  C   UNL     1       7.292  -4.643  23.435  0.00  0.00    +0.025 A 
ATOM      5  C   UNL     1       6.225  -5.496  23.155  0.00  0.00    +0.015 A 
ATOM      6  C   UNL     1       4.909  -5.044  23.306  0.00  0.00    +0.039 A 
ATOM      7  C   UNL     1       4.676  -3.699  23.626  0.00  0.00    +0.015 A 
ATOM      8  C   UNL     1       5.750  -2.837  23.878  0.00  0.00    +0.025 A 
BRANCH   6   9
ATOM      9  C   UNL     1       3.751  -5.969  23.179  0.00  0.00    +0.267 C 
ATOM     10  N   UNL     1       3.952  -7.259  23.626  0.00  0.00    -0.193 N 
ATOM     11  H   UNL     1       4.699  -7.497  24.266  0.00  0.00    +0.183 HD
ATOM     12  O   UNL     1       2.659  -5.582  22.772  0.00  0.00    -0.268 OA
BRANCH  10  13
ATOM     13  O   UNL     1       2.784  -8.055  23.724  0.00  0.00    -0.295 OA
ATOM     14  H   UNL     1       3.062  -8.889  23.285  0.00  0.00    +0.241 HD
ENDBRANCH  10  13
ENDBRANCH   6   9
ENDBRANCH   2   3
BRANCH   2  15
ATOM     15  S   UNL     1       9.197  -1.863  23.078  0.00  0.00    +0.081 S 
ATOM     16  O   UNL     1       8.438  -1.759  21.846  0.00  0.00    -0.149 OA
ATOM     17  O   UNL     1      10.487  -2.521  23.099  0.00  0.00    -0.149 OA
BRANCH  15  18
ATOM     18  C   UNL     1       9.543  -0.159  23.496  0.00  0.00    +0.146 A 
ATOM     19  S   UNL     1       8.225   0.921  23.456  0.00  0.00    -0.067 S 
ATOM     20  C   UNL     1       9.235   2.296  23.623  0.00  0.00    +0.039 A 
ATOM     21  C   UNL     1      10.520   1.906  23.960  0.00  0.00    +0.019 A 
ATOM     22  C   UNL     1      10.696   0.490  23.901  0.00  0.00    +0.037 A 
BRANCH  20  23
ATOM     23  C   UNL     1       8.718   3.642  23.348  0.00  0.00    +0.078 A 
ATOM     24  C   UNL     1       7.586   3.895  22.578  0.00  0.00    +0.029 A 
ATOM     25  C   UNL     1       7.266   5.215  22.267  0.00  0.00    +0.004 A 
ATOM     26  C   UNL     1       8.079   6.240  22.733  0.00  0.00    +0.020 A 
ATOM     27  C   UNL     1       9.175   5.904  23.509  0.00  0.00    +0.111 A 
ATOM     28  N   UNL     1       9.508   4.634  23.830  0.00  0.00    -0.254 NA
ENDBRANCH  20  23
ENDBRANCH  15  18
ENDBRANCH   2  15
TORSDOF 6
ENDMDL
MODEL 7
REMARK VINA RESULT:      -6.8      2.862      6.255
REMARK  Name = 
REMARK  7 active torsions:
REMARK  status: ('A' for Active; 'I' for Inactive)
REMARK    1  A    between atoms: C_1  and  N_2
REMARK    2  A    between atoms: N_2  and  C_3
REMARK    3  A    between atoms: N_2  and  S_13
REMARK    4  A    between atoms: C_6  and  C_9
REMARK    5  A    between atoms: N_11  and  O_12
REMARK    6  A    between atoms: S_13  and  C_16
REMARK    7  A    between atoms: C_19  and  C_21
REMARK                            x       y       z     vdW  Elec       q    Type
REMARK                         _______ _______ _______ _____ _____    ______ ____
ROOT
ATOM      1  C   UNL     1       7.160  -6.004  22.192  0.00  0.00    +0.157 C 
ATOM      2  N   UNL     1       6.560  -4.998  23.068  0.00  0.00    -0.206 N 
ENDROOT
BRANCH   2   3
ATOM      3  C   UNL     1       6.092  -5.365  24.366  0.00  0.00    +0.051 A 
ATOM      4  C   UNL     1       4.986  -6.209  24.446  0.00  0.00    +0.025 A 
ATOM      5  C   UNL     1       4.573  -6.716  25.678  0.00  0.00    +0.015 A 
ATOM      6  C   UNL     1       5.286  -6.400  26.839  0.00  0.00    +0.039 A 
ATOM      7  C   UNL     1       6.342  -5.481  26.770  0.00  0.00    +0.015 A 
ATOM      8  C   UNL     1       6.736  -4.951  25.535  0.00  0.00    +0.025 A 
BRANCH   6   9
ATOM      9  C   UNL     1       4.978  -7.052  28.141  0.00  0.00    +0.267 C 
ATOM     10  N   UNL     1       3.644  -7.119  28.486  0.00  0.00    -0.193 N 
ATOM     11  H   UNL     1       2.905  -7.024  27.801  0.00  0.00    +0.183 HD
ATOM     12  O   UNL     1       5.857  -7.567  28.827  0.00  0.00    -0.268 OA
BRANCH  10  13
ATOM     13  O   UNL     1       3.347  -7.946  29.597  0.00  0.00    -0.295 OA
ATOM     14  H   UNL     1       2.377  -8.075  29.508  0.00  0.00    +0.241 HD
ENDBRANCH  10  13
ENDBRANCH   6   9
ENDBRANCH   2   3
BRANCH   2  15
ATOM     15  S   UNL     1       6.025  -3.537  22.375  0.00  0.00    +0.081 S 
ATOM     16  O   UNL     1       4.961  -3.017  23.211  0.00  0.00    -0.149 OA
ATOM     17  O   UNL     1       5.830  -3.711  20.951  0.00  0.00    -0.149 OA
BRANCH  15  18
ATOM     18  C   UNL     1       7.307  -2.298  22.515  0.00  0.00    +0.146 A 
ATOM     19  S   UNL     1       6.899  -0.868  23.349  0.00  0.00    -0.067 S 
ATOM     20  C   UNL     1       8.338  -0.073  22.865  0.00  0.00    +0.039 A 
ATOM     21  C   UNL     1       9.217  -0.979  22.296  0.00  0.00    +0.019 A 
ATOM     22  C   UNL     1       8.628  -2.267  22.107  0.00  0.00    +0.037 A 
BRANCH  20  23
ATOM     23  C   UNL     1       8.476   1.381  23.013  0.00  0.00    +0.078 A 
ATOM     24  C   UNL     1       9.285   1.989  23.970  0.00  0.00    +0.029 A 
ATOM     25  C   UNL     1       9.233   3.374  24.112  0.00  0.00    +0.004 A 
ATOM     26  C   UNL     1       8.383   4.110  23.297  0.00  0.00    +0.020 A 
ATOM     27  C   UNL     1       7.627   3.430  22.358  0.00  0.00    +0.111 A 
ATOM     28  N   UNL     1       7.658   2.089  22.195  0.00  0.00    -0.254 NA
ENDBRANCH  20  23
ENDBRANCH  15  18
ENDBRANCH   2  15
TORSDOF 6
ENDMDL
MODEL 8
REMARK VINA RESULT:      -6.8      3.477      6.805
REMARK  Name = 
REMARK  7 active torsions:
REMARK  status: ('A' for Active; 'I' for Inactive)
REMARK    1  A    between atoms: C_1  and  N_2
REMARK    2  A    between atoms: N_2  and  C_3
REMARK    3  A    between atoms: N_2  and  S_13
REMARK    4  A    between atoms: C_6  and  C_9
REMARK    5  A    between atoms: N_11  and  O_12
REMARK    6  A    between atoms: S_13  and  C_16
REMARK    7  A    between atoms: C_19  and  C_21
REMARK                            x       y       z     vdW  Elec       q    Type
REMARK                         _______ _______ _______ _____ _____    ______ ____
ROOT
ATOM      1  C   UNL     1       6.442  -0.792  23.801  0.00  0.00    +0.157 C 
ATOM      2  N   UNL     1       7.876  -0.928  23.546  0.00  0.00    -0.206 N 
ENDROOT
BRANCH   2   3
ATOM      3  C   UNL     1       8.704   0.232  23.481  0.00  0.00    +0.051 A 
ATOM      4  C   UNL     1       8.638   1.019  22.332  0.00  0.00    +0.025 A 
ATOM      5  C   UNL     1       9.313   2.238  22.271  0.00  0.00    +0.015 A 
ATOM      6  C   UNL     1      10.041   2.690  23.376  0.00  0.00    +0.039 A 
ATOM      7  C   UNL     1      10.181   1.859  24.496  0.00  0.00    +0.015 A 
ATOM      8  C   UNL     1       9.525   0.622  24.543  0.00  0.00    +0.025 A 
BRANCH   6   9
ATOM      9  C   UNL     1      10.635   4.055  23.409  0.00  0.00    +0.267 C 
ATOM     10  N   UNL     1      11.777   4.238  22.657  0.00  0.00    -0.193 N 
ATOM     11  H   UNL     1      12.031   3.614  21.902  0.00  0.00    +0.183 HD
ATOM     12  O   UNL     1      10.092   4.978  24.009  0.00  0.00    -0.268 OA
BRANCH  10  13
ATOM     13  O   UNL     1      12.190   5.585  22.503  0.00  0.00    -0.295 OA
ATOM     14  H   UNL     1      11.816   5.819  21.626  0.00  0.00    +0.241 HD
ENDBRANCH  10  13
ENDBRANCH   6   9
ENDBRANCH   2   3
BRANCH   2  15
ATOM     15  S   UNL     1       8.446  -2.394  22.894  0.00  0.00    +0.081 S 
ATOM     16  O   UNL     1       9.857  -2.225  22.601  0.00  0.00    -0.149 OA
ATOM     17  O   UNL     1       7.531  -2.870  21.878  0.00  0.00    -0.149 OA
BRANCH  15  18
ATOM     18  C   UNL     1       8.434  -3.661  24.155  0.00  0.00    +0.146 A 
ATOM     19  S   UNL     1       6.951  -4.458  24.424  0.00  0.00    -0.067 S 
ATOM     20  C   UNL     1       7.524  -5.231  25.843  0.00  0.00    +0.039 A 
ATOM     21  C   UNL     1       8.896  -5.076  25.949  0.00  0.00    +0.019 A 
ATOM     22  C   UNL     1       9.424  -4.182  24.969  0.00  0.00    +0.037 A 
BRANCH  20  23
ATOM     23  C   UNL     1       6.589  -5.870  26.777  0.00  0.00    +0.078 A 
ATOM     24  C   UNL     1       5.309  -6.288  26.426  0.00  0.00    +0.029 A 
ATOM     25  C   UNL     1       4.457  -6.755  27.425  0.00  0.00    +0.004 A 
ATOM     26  C   UNL     1       4.906  -6.794  28.739  0.00  0.00    +0.020 A 
ATOM     27  C   UNL     1       6.199  -6.377  28.999  0.00  0.00    +0.111 A 
ATOM     28  N   UNL     1       7.049  -5.923  28.052  0.00  0.00    -0.254 NA
ENDBRANCH  20  23
ENDBRANCH  15  18
ENDBRANCH   2  15
TORSDOF 6
ENDMDL
MODEL 9
REMARK VINA RESULT:      -6.8      3.235      6.145
REMARK  Name = 
REMARK  7 active torsions:
REMARK  status: ('A' for Active; 'I' for Inactive)
REMARK    1  A    between atoms: C_1  and  N_2
REMARK    2  A    between atoms: N_2  and  C_3
REMARK    3  A    between atoms: N_2  and  S_13
REMARK    4  A    between atoms: C_6  and  C_9
REMARK    5  A    between atoms: N_11  and  O_12
REMARK    6  A    between atoms: S_13  and  C_16
REMARK    7  A    between atoms: C_19  and  C_21
REMARK                            x       y       z     vdW  Elec       q    Type
REMARK                         _______ _______ _______ _____ _____    ______ ____
ROOT
ATOM      1  C   UNL     1       8.762  -1.792  26.344  0.00  0.00    +0.157 C 
ATOM      2  N   UNL     1       9.245  -1.529  24.988  0.00  0.00    -0.206 N 
ENDROOT
BRANCH   2   3
ATOM      3  C   UNL     1       9.373  -0.187  24.522  0.00  0.00    +0.051 A 
ATOM      4  C   UNL     1       8.208   0.501  24.183  0.00  0.00    +0.025 A 
ATOM      5  C   UNL     1       8.257   1.856  23.859  0.00  0.00    +0.015 A 
ATOM      6  C   UNL     1       9.476   2.541  23.899  0.00  0.00    +0.039 A 
ATOM      7  C   UNL     1      10.658   1.830  24.152  0.00  0.00    +0.015 A 
ATOM      8  C   UNL     1      10.608   0.462  24.449  0.00  0.00    +0.025 A 
BRANCH   6   9
ATOM      9  C   UNL     1       9.543   4.018  23.724  0.00  0.00    +0.267 C 
ATOM     10  N   UNL     1      10.779   4.534  23.389  0.00  0.00    -0.193 N 
ATOM     11  H   UNL     1      11.512   3.961  22.990  0.00  0.00    +0.183 HD
ATOM     12  O   UNL     1       8.540   4.721  23.797  0.00  0.00    -0.268 OA
BRANCH  10  13
ATOM     13  O   UNL     1      10.778   5.893  22.990  0.00  0.00    -0.295 OA
ATOM     14  H   UNL     1      11.318   6.317  23.693  0.00  0.00    +0.241 HD
ENDBRANCH  10  13
ENDBRANCH   6   9
ENDBRANCH   2   3
BRANCH   2  15
ATOM     15  S   UNL     1       9.216  -2.803  23.859  0.00  0.00    +0.081 S 
ATOM     16  O   UNL     1       9.666  -4.003  24.538  0.00  0.00    -0.149 OA
ATOM     17  O   UNL     1       9.834  -2.376  22.621  0.00  0.00    -0.149 OA
BRANCH  15  18
ATOM     18  C   UNL     1       7.525  -3.184  23.422  0.00  0.00    +0.146 A 
ATOM     19  S   UNL     1       6.632  -4.101  24.547  0.00  0.00    -0.067 S 
ATOM     20  C   UNL     1       5.339  -4.351  23.450  0.00  0.00    +0.039 A 
ATOM     21  C   UNL     1       5.486  -3.530  22.345  0.00  0.00    +0.019 A 
ATOM     22  C   UNL     1       6.740  -2.846  22.333  0.00  0.00    +0.037 A 
BRANCH  20  23
ATOM     23  C   UNL     1       4.318  -5.372  23.715  0.00  0.00    +0.078 A 
ATOM     24  C   UNL     1       4.507  -6.450  24.575  0.00  0.00    +0.029 A 
ATOM     25  C   UNL     1       3.522  -7.434  24.645  0.00  0.00    +0.004 A 
ATOM     26  C   UNL     1       2.381  -7.311  23.862  0.00  0.00    +0.020 A 
ATOM     27  C   UNL     1       2.263  -6.198  23.049  0.00  0.00    +0.111 A 
ATOM     28  N   UNL     1       3.199  -5.227  22.962  0.00  0.00    -0.254 NA
ENDBRANCH  20  23
ENDBRANCH  15  18
ENDBRANCH   2  15
TORSDOF 6
ENDMDL
