MODEL 1
REMARK VINA RESULT:      -7.9      0.000      0.000
REMARK  Name = 
REMARK  9 active torsions:
REMARK  status: ('A' for Active; 'I' for Inactive)
REMARK    1  A    between atoms: O_1  and  C_2
REMARK    2  A    between atoms: C_2  and  C_4
REMARK    3  A    between atoms: C_5  and  C_29
REMARK    4  A    between atoms: C_7  and  O_8
REMARK    5  A    between atoms: O_8  and  C_9
REMARK    6  A    between atoms: C_10  and  N_11
REMARK    7  A    between atoms: C_12  and  C_14
REMARK    8  A    between atoms: C_16  and  N_20
REMARK    9  A    between atoms: C_29  and  O_30
REMARK                            x       y       z     vdW  Elec       q    Type
REMARK                         _______ _______ _______ _____ _____    ______ ____
ROOT
ATOM      1  C   UNL     1       9.519   0.519  23.750  0.00  0.00    +0.150 A 
ATOM      2  C   UNL     1      10.103   1.808  23.685  0.00  0.00    +0.048 A 
ATOM      3  C   UNL     1       9.553   2.825  22.911  0.00  0.00    +0.004 A 
ATOM      4  C   UNL     1       8.353   2.605  22.260  0.00  0.00    +0.002 A 
ATOM      5  C   UNL     1       7.726   1.363  22.361  0.00  0.00    +0.027 A 
ATOM      6  C   UNL     1       8.294   0.285  23.084  0.00  0.00    +0.076 A 
ENDROOT
BRANCH   6   7
ATOM      7  N   UNL     1       7.526  -0.917  23.009  0.00  0.00    -0.279 N 
ATOM      8  H   UNL     1       7.923  -1.609  22.389  0.00  0.00    +0.155 HD
ATOM      9  C   UNL     1       6.343  -1.257  23.632  0.00  0.00    +0.249 C 
ATOM     10  O   UNL     1       5.675  -0.526  24.354  0.00  0.00    -0.270 OA
BRANCH   9  11
ATOM     11  C   UNL     1       5.791  -2.645  23.389  0.00  0.00    +0.043 A 
ATOM     12  C   UNL     1       4.671  -3.008  24.163  0.00  0.00    +0.013 A 
ATOM     13  C   UNL     1       4.048  -4.247  24.029  0.00  0.00    +0.007 A 
ATOM     14  C   UNL     1       4.526  -5.163  23.099  0.00  0.00    +0.084 A 
ATOM     15  C   UNL     1       5.643  -4.830  22.322  0.00  0.00    +0.274 A 
ATOM     16  C   UNL     1       6.291  -3.584  22.466  0.00  0.00    +0.097 A 
BRANCH  15  17
ATOM     17  N   UNL     1       6.126  -5.809  21.335  0.00  0.00    +0.080 N 
ATOM     18  O   UNL     1       5.906  -5.588  20.138  0.00  0.00    +0.041 OA
ATOM     19  O   UNL     1       6.739  -6.800  21.765  0.00  0.00    -0.576 OA
ENDBRANCH  15  17
ENDBRANCH   9  11
ENDBRANCH   6   7
BRANCH   1  20
ATOM     20  O   UNL     1      10.151  -0.471  24.493  0.00  0.00    -0.454 OA
BRANCH  20  24
ATOM     21  C   UNL     1       8.009  -3.538  26.381  0.00  0.00    +0.073 A 
ATOM     22  C   UNL     1       7.921  -2.209  26.842  0.00  0.00    +0.019 A 
ATOM     23  C   UNL     1       8.654  -1.189  26.217  0.00  0.00    +0.047 A 
ATOM     24  C   UNL     1       9.389  -1.474  25.067  0.00  0.00    +0.129 A 
ATOM     25  C   UNL     1       9.382  -2.774  24.565  0.00  0.00    +0.062 A 
ATOM     26  C   UNL     1       8.856  -3.841  25.308  0.00  0.00    +0.076 A 
BRANCH  21  27
ATOM     27  C   UNL     1       7.194  -4.570  27.047  0.00  0.00    +0.338 C 
ATOM     28  O   UNL     1       6.005  -4.429  27.277  0.00  0.00    -0.245 OA
BRANCH  27  29
ATOM     29  O   UNL     1       7.910  -5.617  27.498  0.00  0.00    -0.477 OA
ATOM     30  H   UNL     1       8.368  -5.491  28.353  0.00  0.00    +0.295 HD
ENDBRANCH  27  29
ENDBRANCH  21  27
BRANCH  26  31
ATOM     31  C   UNL     1       9.479  -5.154  24.948  0.00  0.00    +0.338 C 
ATOM     32  O   UNL     1       9.050  -5.776  23.982  0.00  0.00    -0.245 OA
BRANCH  31  33
ATOM     33  O   UNL     1      10.477  -5.654  25.685  0.00  0.00    -0.477 OA
ATOM     34  H   UNL     1      11.337  -5.176  25.660  0.00  0.00    +0.295 HD
ENDBRANCH  31  33
ENDBRANCH  26  31
ENDBRANCH  20  24
ENDBRANCH   1  20
TORSDOF 9
ENDMDL
MODEL 2
REMARK VINA RESULT:      -7.9      1.336      1.614
REMARK  Name = 
REMARK  9 active torsions:
REMARK  status: ('A' for Active; 'I' for Inactive)
REMARK    1  A    between atoms: O_1  and  C_2
REMARK    2  A    between atoms: C_2  and  C_4
REMARK    3  A    between atoms: C_5  and  C_29
REMARK    4  A    between atoms: C_7  and  O_8
REMARK    5  A    between atoms: O_8  and  C_9
REMARK    6  A    between atoms: C_10  and  N_11
REMARK    7  A    between atoms: C_12  and  C_14
REMARK    8  A    between atoms: C_16  and  N_20
REMARK    9  A    between atoms: C_29  and  O_30
REMARK                            x       y       z     vdW  Elec       q    Type
REMARK                         _______ _______ _______ _____ _____    ______ ____
ROOT
ATOM      1  C   UNL     1       9.550   0.394  23.572  0.00  0.00    +0.150 A 
ATOM      2  C   UNL     1      10.063   1.714  23.595  0.00  0.00    +0.048 A 
ATOM      3  C   UNL     1       9.509   2.730  22.820  0.00  0.00    +0.004 A 
ATOM      4  C   UNL     1       8.371   2.471  22.081  0.00  0.00    +0.002 A 
ATOM      5  C   UNL     1       7.809   1.194  22.093  0.00  0.00    +0.027 A 
ATOM      6  C   UNL     1       8.387   0.121  22.815  0.00  0.00    +0.076 A 
ENDROOT
BRANCH   6   7
ATOM      7  N   UNL     1       7.696  -1.117  22.644  0.00  0.00    -0.279 N 
ATOM      8  H   UNL     1       8.121  -1.723  21.955  0.00  0.00    +0.155 HD
ATOM      9  C   UNL     1       6.552  -1.589  23.255  0.00  0.00    +0.249 C 
ATOM     10  O   UNL     1       5.857  -0.972  24.053  0.00  0.00    -0.270 OA
BRANCH   9  11
ATOM     11  C   UNL     1       6.084  -2.982  22.895  0.00  0.00    +0.043 A 
ATOM     12  C   UNL     1       6.931  -3.716  22.041  0.00  0.00    +0.013 A 
ATOM     13  C   UNL     1       6.635  -5.019  21.643  0.00  0.00    +0.007 A 
ATOM     14  C   UNL     1       5.477  -5.634  22.103  0.00  0.00    +0.084 A 
ATOM     15  C   UNL     1       4.613  -4.924  22.948  0.00  0.00    +0.274 A 
ATOM     16  C   UNL     1       4.897  -3.598  23.338  0.00  0.00    +0.097 A 
BRANCH  15  17
ATOM     17  N   UNL     1       3.398  -5.598  23.433  0.00  0.00    +0.080 N 
ATOM     18  O   UNL     1       2.335  -5.378  22.843  0.00  0.00    +0.041 OA
ATOM     19  O   UNL     1       3.518  -6.361  24.406  0.00  0.00    -0.576 OA
ENDBRANCH  15  17
ENDBRANCH   9  11
ENDBRANCH   6   7
BRANCH   1  20
ATOM     20  O   UNL     1      10.185  -0.589  24.321  0.00  0.00    -0.454 OA
BRANCH  20  24
ATOM     21  C   UNL     1       8.041  -3.563  26.350  0.00  0.00    +0.073 A 
ATOM     22  C   UNL     1       7.947  -2.212  26.744  0.00  0.00    +0.019 A 
ATOM     23  C   UNL     1       8.681  -1.223  26.072  0.00  0.00    +0.047 A 
ATOM     24  C   UNL     1       9.423  -1.564  24.942  0.00  0.00    +0.129 A 
ATOM     25  C   UNL     1       9.421  -2.888  24.506  0.00  0.00    +0.062 A 
ATOM     26  C   UNL     1       8.894  -3.918  25.298  0.00  0.00    +0.076 A 
BRANCH  21  27
ATOM     27  C   UNL     1       7.224  -4.562  27.063  0.00  0.00    +0.338 C 
ATOM     28  O   UNL     1       6.056  -4.376  27.357  0.00  0.00    -0.245 OA
BRANCH  27  29
ATOM     29  O   UNL     1       7.924  -5.635  27.479  0.00  0.00    -0.477 OA
ATOM     30  H   UNL     1       8.426  -6.116  26.792  0.00  0.00    +0.295 HD
ENDBRANCH  27  29
ENDBRANCH  21  27
BRANCH  26  31
ATOM     31  C   UNL     1       9.522  -5.246  25.008  0.00  0.00    +0.338 C 
ATOM     32  O   UNL     1       9.104  -5.912  24.068  0.00  0.00    -0.245 OA
BRANCH  31  33
ATOM     33  O   UNL     1      10.511  -5.709  25.780  0.00  0.00    -0.477 OA
ATOM     34  H   UNL     1      10.329  -5.789  26.744  0.00  0.00    +0.295 HD
ENDBRANCH  31  33
ENDBRANCH  26  31
ENDBRANCH  20  24
ENDBRANCH   1  20
TORSDOF 9
ENDMDL
MODEL 3
REMARK VINA RESULT:      -7.7      2.086      2.925
REMARK  Name = 
REMARK  9 active torsions:
REMARK  status: ('A' for Active; 'I' for Inactive)
REMARK    1  A    between atoms: O_1  and  C_2
REMARK    2  A    between atoms: C_2  and  C_4
REMARK    3  A    between atoms: C_5  and  C_29
REMARK    4  A    between atoms: C_7  and  O_8
REMARK    5  A    between atoms: O_8  and  C_9
REMARK    6  A    between atoms: C_10  and  N_11
REMARK    7  A    between atoms: C_12  and  C_14
REMARK    8  A    between atoms: C_16  and  N_20
REMARK    9  A    between atoms: C_29  and  O_30
REMARK                            x       y       z     vdW  Elec       q    Type
REMARK                         _______ _______ _______ _____ _____    ______ ____
ROOT
ATOM      1  C   UNL     1       8.453   0.119  22.214  0.00  0.00    +0.150 A 
ATOM      2  C   UNL     1       9.372   1.102  21.770  0.00  0.00    +0.048 A 
ATOM      3  C   UNL     1       9.251   2.439  22.138  0.00  0.00    +0.004 A 
ATOM      4  C   UNL     1       8.266   2.807  23.036  0.00  0.00    +0.002 A 
ATOM      5  C   UNL     1       7.389   1.844  23.536  0.00  0.00    +0.027 A 
ATOM      6  C   UNL     1       7.440   0.488  23.129  0.00  0.00    +0.076 A 
ENDROOT
BRANCH   6   7
ATOM      7  N   UNL     1       6.414  -0.319  23.709  0.00  0.00    -0.279 N 
ATOM      8  H   UNL     1       5.617  -0.452  23.102  0.00  0.00    +0.155 HD
ATOM      9  C   UNL     1       6.348  -0.917  24.951  0.00  0.00    +0.249 C 
ATOM     10  O   UNL     1       7.177  -0.806  25.847  0.00  0.00    -0.270 OA
BRANCH   9  11
ATOM     11  C   UNL     1       5.134  -1.764  25.262  0.00  0.00    +0.043 A 
ATOM     12  C   UNL     1       4.382  -1.375  26.388  0.00  0.00    +0.013 A 
ATOM     13  C   UNL     1       3.228  -2.052  26.778  0.00  0.00    +0.007 A 
ATOM     14  C   UNL     1       2.784  -3.143  26.040  0.00  0.00    +0.084 A 
ATOM     15  C   UNL     1       3.519  -3.555  24.920  0.00  0.00    +0.274 A 
ATOM     16  C   UNL     1       4.698  -2.886  24.530  0.00  0.00    +0.097 A 
BRANCH  15  17
ATOM     17  N   UNL     1       3.025  -4.705  24.145  0.00  0.00    +0.080 N 
ATOM     18  O   UNL     1       3.413  -4.831  22.978  0.00  0.00    +0.041 OA
ATOM     19  O   UNL     1       2.252  -5.491  24.717  0.00  0.00    -0.576 OA
ENDBRANCH  15  17
ENDBRANCH   9  11
ENDBRANCH   6   7
BRANCH   1  20
ATOM     20  O   UNL     1       8.592  -1.187  21.761  0.00  0.00    -0.454 OA
BRANCH  20  24
ATOM     21  C   UNL     1       8.718  -4.431  24.410  0.00  0.00    +0.073 A 
ATOM     22  C   UNL     1       9.640  -3.370  24.527  0.00  0.00    +0.019 A 
ATOM     23  C   UNL     1       9.604  -2.295  23.626  0.00  0.00    +0.047 A 
ATOM     24  C   UNL     1       8.584  -2.224  22.678  0.00  0.00    +0.129 A 
ATOM     25  C   UNL     1       7.620  -3.231  22.645  0.00  0.00    +0.062 A 
ATOM     26  C   UNL     1       7.781  -4.420  23.371  0.00  0.00    +0.076 A 
BRANCH  21  27
ATOM     27  C   UNL     1       8.772  -5.521  25.401  0.00  0.00    +0.338 C 
ATOM     28  O   UNL     1       7.821  -5.834  26.095  0.00  0.00    -0.245 OA
BRANCH  27  29
ATOM     29  O   UNL     1      10.003  -6.045  25.562  0.00  0.00    -0.477 OA
ATOM     30  H   UNL     1      10.387  -6.494  24.783  0.00  0.00    +0.295 HD
ENDBRANCH  27  29
ENDBRANCH  21  27
BRANCH  26  31
ATOM     31  C   UNL     1       7.052  -5.573  22.753  0.00  0.00    +0.338 C 
ATOM     32  O   UNL     1       7.417  -5.997  21.663  0.00  0.00    -0.245 OA
BRANCH  31  33
ATOM     33  O   UNL     1       6.000  -6.118  23.374  0.00  0.00    -0.477 OA
ATOM     34  H   UNL     1       5.886  -5.912  24.330  0.00  0.00    +0.295 HD
ENDBRANCH  31  33
ENDBRANCH  26  31
ENDBRANCH  20  24
ENDBRANCH   1  20
TORSDOF 9
ENDMDL
MODEL 4
REMARK VINA RESULT:      -7.7      0.788      2.119
REMARK  Name = 
REMARK  9 active torsions:
REMARK  status: ('A' for Active; 'I' for Inactive)
REMARK    1  A    between atoms: O_1  and  C_2
REMARK    2  A    between atoms: C_2  and  C_4
REMARK    3  A    between atoms: C_5  and  C_29
REMARK    4  A    between atoms: C_7  and  O_8
REMARK    5  A    between atoms: O_8  and  C_9
REMARK    6  A    between atoms: C_10  and  N_11
REMARK    7  A    between atoms: C_12  and  C_14
REMARK    8  A    between atoms: C_16  and  N_20
REMARK    9  A    between atoms: C_29  and  O_30
REMARK                            x       y       z     vdW  Elec       q    Type
REMARK                         _______ _______ _______ _____ _____    ______ ____
ROOT
ATOM      1  C   UNL     1       8.338   1.158  24.426  0.00  0.00    +0.150 A 
ATOM      2  C   UNL     1       8.848   2.473  24.293  0.00  0.00    +0.048 A 
ATOM      3  C   UNL     1       8.619   3.238  23.153  0.00  0.00    +0.004 A 
ATOM      4  C   UNL     1       7.795   2.741  22.161  0.00  0.00    +0.002 A 
ATOM      5  C   UNL     1       7.229   1.472  22.299  0.00  0.00    +0.027 A 
ATOM      6  C   UNL     1       7.497   0.641  23.414  0.00  0.00    +0.076 A 
ENDROOT
BRANCH   6   7
ATOM      7  N   UNL     1       6.873  -0.641  23.331  0.00  0.00    -0.279 N 
ATOM      8  H   UNL     1       7.214  -1.205  22.566  0.00  0.00    +0.155 HD
ATOM      9  C   UNL     1       5.886  -1.202  24.116  0.00  0.00    +0.249 C 
ATOM     10  O   UNL     1       5.297  -0.647  25.036  0.00  0.00    -0.270 OA
BRANCH   9  11
ATOM     11  C   UNL     1       5.459  -2.620  23.805  0.00  0.00    +0.043 A 
ATOM     12  C   UNL     1       4.377  -3.117  24.558  0.00  0.00    +0.013 A 
ATOM     13  C   UNL     1       3.866  -4.399  24.363  0.00  0.00    +0.007 A 
ATOM     14  C   UNL     1       4.422  -5.224  23.393  0.00  0.00    +0.084 A 
ATOM     15  C   UNL     1       5.505  -4.756  22.636  0.00  0.00    +0.274 A 
ATOM     16  C   UNL     1       6.040  -3.466  22.841  0.00  0.00    +0.097 A 
BRANCH  15  17
ATOM     17  N   UNL     1       6.072  -5.641  21.605  0.00  0.00    +0.080 N 
ATOM     18  O   UNL     1       6.655  -6.666  21.973  0.00  0.00    +0.041 OA
ATOM     19  O   UNL     1       5.919  -5.307  20.418  0.00  0.00    -0.576 OA
ENDBRANCH  15  17
ENDBRANCH   9  11
ENDBRANCH   6   7
BRANCH   1  20
ATOM     20  O   UNL     1       8.654   0.425  25.563  0.00  0.00    -0.454 OA
BRANCH  20  24
ATOM     21  C   UNL     1       9.273  -3.689  25.064  0.00  0.00    +0.073 A 
ATOM     22  C   UNL     1       9.806  -2.764  24.144  0.00  0.00    +0.019 A 
ATOM     23  C   UNL     1       9.580  -1.388  24.307  0.00  0.00    +0.047 A 
ATOM     24  C   UNL     1       8.917  -0.929  25.443  0.00  0.00    +0.129 A 
ATOM     25  C   UNL     1       8.488  -1.852  26.395  0.00  0.00    +0.062 A 
ATOM     26  C   UNL     1       8.492  -3.229  26.131  0.00  0.00    +0.076 A 
BRANCH  21  27
ATOM     27  C   UNL     1       9.566  -5.121  24.872  0.00  0.00    +0.338 C 
ATOM     28  O   UNL     1       9.001  -5.807  24.038  0.00  0.00    -0.245 OA
BRANCH  27  29
ATOM     29  O   UNL     1      10.410  -5.628  25.791  0.00  0.00    -0.477 OA
ATOM     30  H   UNL     1      10.163  -5.492  26.727  0.00  0.00    +0.295 HD
ENDBRANCH  27  29
ENDBRANCH  21  27
BRANCH  26  31
ATOM     31  C   UNL     1       7.462  -3.970  26.927  0.00  0.00    +0.338 C 
ATOM     32  O   UNL     1       7.737  -5.075  27.380  0.00  0.00    -0.245 OA
BRANCH  31  33
ATOM     33  O   UNL     1       6.249  -3.442  27.120  0.00  0.00    -0.477 OA
ATOM     34  H   UNL     1       5.809  -3.630  27.980  0.00  0.00    +0.295 HD
ENDBRANCH  31  33
ENDBRANCH  26  31
ENDBRANCH  20  24
ENDBRANCH   1  20
TORSDOF 9
ENDMDL
MODEL 5
REMARK VINA RESULT:      -7.7      3.600      6.981
REMARK  Name = 
REMARK  9 active torsions:
REMARK  status: ('A' for Active; 'I' for Inactive)
REMARK    1  A    between atoms: O_1  and  C_2
REMARK    2  A    between atoms: C_2  and  C_4
REMARK    3  A    between atoms: C_5  and  C_29
REMARK    4  A    between atoms: C_7  and  O_8
REMARK    5  A    between atoms: O_8  and  C_9
REMARK    6  A    between atoms: C_10  and  N_11
REMARK    7  A    between atoms: C_12  and  C_14
REMARK    8  A    between atoms: C_16  and  N_20
REMARK    9  A    between atoms: C_29  and  O_30
REMARK                            x       y       z     vdW  Elec       q    Type
REMARK                         _______ _______ _______ _____ _____    ______ ____
ROOT
ATOM      1  C   UNL     1       5.729   4.807  24.209  0.00  0.00    +0.150 A 
ATOM      2  C   UNL     1       5.026   5.988  23.867  0.00  0.00    +0.048 A 
ATOM      3  C   UNL     1       4.063   6.005  22.862  0.00  0.00    +0.004 A 
ATOM      4  C   UNL     1       3.712   4.820  22.243  0.00  0.00    +0.002 A 
ATOM      5  C   UNL     1       4.346   3.631  22.608  0.00  0.00    +0.027 A 
ATOM      6  C   UNL     1       5.379   3.591  23.577  0.00  0.00    +0.076 A 
ENDROOT
BRANCH   6   7
ATOM      7  N   UNL     1       5.939   2.290  23.757  0.00  0.00    -0.279 N 
ATOM      8  H   UNL     1       5.632   1.834  24.604  0.00  0.00    +0.155 HD
ATOM      9  C   UNL     1       6.829   1.589  22.969  0.00  0.00    +0.249 C 
ATOM     10  O   UNL     1       7.370   2.004  21.951  0.00  0.00    -0.270 OA
BRANCH   9  11
ATOM     11  C   UNL     1       7.204   0.189  23.404  0.00  0.00    +0.043 A 
ATOM     12  C   UNL     1       6.195  -0.545  24.058  0.00  0.00    +0.013 A 
ATOM     13  C   UNL     1       6.394  -1.853  24.495  0.00  0.00    +0.007 A 
ATOM     14  C   UNL     1       7.619  -2.474  24.278  0.00  0.00    +0.084 A 
ATOM     15  C   UNL     1       8.642  -1.764  23.637  0.00  0.00    +0.274 A 
ATOM     16  C   UNL     1       8.453  -0.432  23.209  0.00  0.00    +0.097 A 
BRANCH  15  17
ATOM     17  N   UNL     1       9.927  -2.443  23.406  0.00  0.00    +0.080 N 
ATOM     18  O   UNL     1      10.684  -1.983  22.544  0.00  0.00    +0.041 OA
ATOM     19  O   UNL     1      10.181  -3.439  24.104  0.00  0.00    -0.576 OA
ENDBRANCH  15  17
ENDBRANCH   9  11
ENDBRANCH   6   7
BRANCH   1  20
ATOM     20  O   UNL     1       6.722   4.870  25.179  0.00  0.00    -0.454 OA
BRANCH  20  24
ATOM     21  C   UNL     1      10.647   5.313  23.780  0.00  0.00    +0.073 A 
ATOM     22  C   UNL     1       9.855   6.442  24.074  0.00  0.00    +0.019 A 
ATOM     23  C   UNL     1       8.536   6.288  24.525  0.00  0.00    +0.047 A 
ATOM     24  C   UNL     1       8.042   5.011  24.786  0.00  0.00    +0.129 A 
ATOM     25  C   UNL     1       8.874   3.910  24.588  0.00  0.00    +0.062 A 
ATOM     26  C   UNL     1      10.099   4.032  23.916  0.00  0.00    +0.076 A 
BRANCH  21  27
ATOM     27  C   UNL     1      12.039   5.524  23.342  0.00  0.00    +0.338 C 
ATOM     28  O   UNL     1      12.440   5.211  22.235  0.00  0.00    -0.245 OA
BRANCH  27  29
ATOM     29  O   UNL     1      12.852   5.966  24.320  0.00  0.00    -0.477 OA
ATOM     30  H   UNL     1      13.272   5.280  24.876  0.00  0.00    +0.295 HD
ENDBRANCH  27  29
ENDBRANCH  21  27
BRANCH  26  31
ATOM     31  C   UNL     1      10.519   2.758  23.251  0.00  0.00    +0.338 C 
ATOM     32  O   UNL     1      10.939   1.834  23.939  0.00  0.00    -0.245 OA
BRANCH  31  33
ATOM     33  O   UNL     1      10.459   2.638  21.920  0.00  0.00    -0.477 OA
ATOM     34  H   UNL     1       9.569   2.504  21.521  0.00  0.00    +0.295 HD
ENDBRANCH  31  33
ENDBRANCH  26  31
ENDBRANCH  20  24
ENDBRANCH   1  20
TORSDOF 9
ENDMDL
MODEL 6
REMARK VINA RESULT:      -7.4      1.764      2.746
REMARK  Name = 
REMARK  9 active torsions:
REMARK  status: ('A' for Active; 'I' for Inactive)
REMARK    1  A    between atoms: O_1  and  C_2
REMARK    2  A    between atoms: C_2  and  C_4
REMARK    3  A    between atoms: C_5  and  C_29
REMARK    4  A    between atoms: C_7  and  O_8
REMARK    5  A    between atoms: O_8  and  C_9
REMARK    6  A    between atoms: C_10  and  N_11
REMARK    7  A    between atoms: C_12  and  C_14
REMARK    8  A    between atoms: C_16  and  N_20
REMARK    9  A    between atoms: C_29  and  O_30
REMARK                            x       y       z     vdW  Elec       q    Type
REMARK                         _______ _______ _______ _____ _____    ______ ____
ROOT
ATOM      1  C   UNL     1       9.863  -0.098  23.356  0.00  0.00    +0.150 A 
ATOM      2  C   UNL     1      10.424   1.203  23.345  0.00  0.00    +0.048 A 
ATOM      3  C   UNL     1       9.920   2.213  22.531  0.00  0.00    +0.004 A 
ATOM      4  C   UNL     1       8.782   1.973  21.782  0.00  0.00    +0.002 A 
ATOM      5  C   UNL     1       8.174   0.718  21.826  0.00  0.00    +0.027 A 
ATOM      6  C   UNL     1       8.702  -0.352  22.590  0.00  0.00    +0.076 A 
ENDROOT
BRANCH   6   7
ATOM      7  N   UNL     1       7.968  -1.569  22.446  0.00  0.00    -0.279 N 
ATOM      8  H   UNL     1       8.459  -2.273  21.913  0.00  0.00    +0.155 HD
ATOM      9  C   UNL     1       6.712  -1.909  22.905  0.00  0.00    +0.249 C 
ATOM     10  O   UNL     1       5.939  -1.168  23.499  0.00  0.00    -0.270 OA
BRANCH   9  11
ATOM     11  C   UNL     1       6.218  -3.313  22.632  0.00  0.00    +0.043 A 
ATOM     12  C   UNL     1       7.088  -4.140  21.894  0.00  0.00    +0.013 A 
ATOM     13  C   UNL     1       6.772  -5.463  21.587  0.00  0.00    +0.007 A 
ATOM     14  C   UNL     1       5.568  -6.003  22.024  0.00  0.00    +0.084 A 
ATOM     15  C   UNL     1       4.681  -5.200  22.753  0.00  0.00    +0.274 A 
ATOM     16  C   UNL     1       4.987  -3.854  23.050  0.00  0.00    +0.097 A 
BRANCH  15  17
ATOM     17  N   UNL     1       3.417  -5.795  23.217  0.00  0.00    +0.080 N 
ATOM     18  O   UNL     1       2.359  -5.252  22.879  0.00  0.00    +0.041 OA
ATOM     19  O   UNL     1       3.490  -6.820  23.915  0.00  0.00    -0.576 OA
ENDBRANCH  15  17
ENDBRANCH   9  11
ENDBRANCH   6   7
BRANCH   1  20
ATOM     20  O   UNL     1      10.451  -1.079  24.144  0.00  0.00    -0.454 OA
BRANCH  20  24
ATOM     21  C   UNL     1       7.861  -3.714  26.122  0.00  0.00    +0.073 A 
ATOM     22  C   UNL     1       8.847  -4.200  25.238  0.00  0.00    +0.019 A 
ATOM     23  C   UNL     1       9.699  -3.312  24.565  0.00  0.00    +0.047 A 
ATOM     24  C   UNL     1       9.642  -1.949  24.855  0.00  0.00    +0.129 A 
ATOM     25  C   UNL     1       8.732  -1.498  25.809  0.00  0.00    +0.062 A 
ATOM     26  C   UNL     1       7.720  -2.333  26.305  0.00  0.00    +0.076 A 
BRANCH  21  27
ATOM     27  C   UNL     1       7.012  -4.686  26.833  0.00  0.00    +0.338 C 
ATOM     28  O   UNL     1       7.380  -5.285  27.829  0.00  0.00    -0.245 OA
BRANCH  27  29
ATOM     29  O   UNL     1       5.851  -4.952  26.204  0.00  0.00    -0.477 OA
ATOM     30  H   UNL     1       5.042  -4.595  26.621  0.00  0.00    +0.295 HD
ENDBRANCH  27  29
ENDBRANCH  21  27
BRANCH  26  31
ATOM     31  C   UNL     1       6.521  -1.567  26.773  0.00  0.00    +0.338 C 
ATOM     32  O   UNL     1       6.680  -0.590  27.495  0.00  0.00    -0.245 OA
BRANCH  31  33
ATOM     33  O   UNL     1       5.291  -1.961  26.426  0.00  0.00    -0.477 OA
ATOM     34  H   UNL     1       5.073  -2.913  26.545  0.00  0.00    +0.295 HD
ENDBRANCH  31  33
ENDBRANCH  26  31
ENDBRANCH  20  24
ENDBRANCH   1  20
TORSDOF 9
ENDMDL
MODEL 7
REMARK VINA RESULT:      -7.4      2.326      4.054
REMARK  Name = 
REMARK  9 active torsions:
REMARK  status: ('A' for Active; 'I' for Inactive)
REMARK    1  A    between atoms: O_1  and  C_2
REMARK    2  A    between atoms: C_2  and  C_4
REMARK    3  A    between atoms: C_5  and  C_29
REMARK    4  A    between atoms: C_7  and  O_8
REMARK    5  A    between atoms: O_8  and  C_9
REMARK    6  A    between atoms: C_10  and  N_11
REMARK    7  A    between atoms: C_12  and  C_14
REMARK    8  A    between atoms: C_16  and  N_20
REMARK    9  A    between atoms: C_29  and  O_30
REMARK                            x       y       z     vdW  Elec       q    Type
REMARK                         _______ _______ _______ _____ _____    ______ ____
ROOT
ATOM      1  C   UNL     1       9.368   0.155  24.725  0.00  0.00    +0.150 A 
ATOM      2  C   UNL     1       9.997   1.346  24.285  0.00  0.00    +0.048 A 
ATOM      3  C   UNL     1       9.413   2.596  24.471  0.00  0.00    +0.004 A 
ATOM      4  C   UNL     1       8.234   2.692  25.186  0.00  0.00    +0.002 A 
ATOM      5  C   UNL     1       7.629   1.536  25.685  0.00  0.00    +0.027 A 
ATOM      6  C   UNL     1       8.160   0.244  25.454  0.00  0.00    +0.076 A 
ENDROOT
BRANCH   6   7
ATOM      7  N   UNL     1       7.355  -0.806  25.992  0.00  0.00    -0.279 N 
ATOM      8  H   UNL     1       7.751  -1.232  26.818  0.00  0.00    +0.155 HD
ATOM      9  C   UNL     1       6.153  -1.320  25.551  0.00  0.00    +0.249 C 
ATOM     10  O   UNL     1       5.561  -0.989  24.531  0.00  0.00    -0.270 OA
BRANCH   9  11
ATOM     11  C   UNL     1       5.511  -2.415  26.374  0.00  0.00    +0.043 A 
ATOM     12  C   UNL     1       4.112  -2.536  26.255  0.00  0.00    +0.013 A 
ATOM     13  C   UNL     1       3.391  -3.513  26.940  0.00  0.00    +0.007 A 
ATOM     14  C   UNL     1       4.057  -4.412  27.763  0.00  0.00    +0.084 A 
ATOM     15  C   UNL     1       5.448  -4.309  27.905  0.00  0.00    +0.274 A 
ATOM     16  C   UNL     1       6.181  -3.310  27.230  0.00  0.00    +0.097 A 
BRANCH  15  17
ATOM     17  N   UNL     1       6.136  -5.279  28.772  0.00  0.00    +0.080 N 
ATOM     18  O   UNL     1       6.976  -6.027  28.259  0.00  0.00    +0.041 OA
ATOM     19  O   UNL     1       5.838  -5.280  29.978  0.00  0.00    -0.576 OA
ENDBRANCH  15  17
ENDBRANCH   9  11
ENDBRANCH   6   7
BRANCH   1  20
ATOM     20  O   UNL     1       9.974  -1.066  24.455  0.00  0.00    -0.454 OA
BRANCH  20  24
ATOM     21  C   UNL     1       7.576  -3.987  22.645  0.00  0.00    +0.073 A 
ATOM     22  C   UNL     1       7.753  -2.725  22.041  0.00  0.00    +0.019 A 
ATOM     23  C   UNL     1       8.543  -1.745  22.661  0.00  0.00    +0.047 A 
ATOM     24  C   UNL     1       9.243  -2.058  23.825  0.00  0.00    +0.129 A 
ATOM     25  C   UNL     1       9.138  -3.344  24.352  0.00  0.00    +0.062 A 
ATOM     26  C   UNL     1       8.173  -4.249  23.884  0.00  0.00    +0.076 A 
BRANCH  21  27
ATOM     27  C   UNL     1       6.767  -4.997  21.940  0.00  0.00    +0.338 C 
ATOM     28  O   UNL     1       7.227  -6.048  21.531  0.00  0.00    -0.245 OA
BRANCH  27  29
ATOM     29  O   UNL     1       5.511  -4.591  21.671  0.00  0.00    -0.477 OA
ATOM     30  H   UNL     1       5.048  -5.066  20.952  0.00  0.00    +0.295 HD
ENDBRANCH  27  29
ENDBRANCH  21  27
BRANCH  26  31
ATOM     31  C   UNL     1       7.781  -5.257  24.919  0.00  0.00    +0.338 C 
ATOM     32  O   UNL     1       6.633  -5.686  24.931  0.00  0.00    -0.245 OA
BRANCH  31  33
ATOM     33  O   UNL     1       8.667  -5.667  25.833  0.00  0.00    -0.477 OA
ATOM     34  H   UNL     1       8.678  -5.188  26.694  0.00  0.00    +0.295 HD
ENDBRANCH  31  33
ENDBRANCH  26  31
ENDBRANCH  20  24
ENDBRANCH   1  20
TORSDOF 9
ENDMDL
MODEL 8
REMARK VINA RESULT:      -7.3      2.288      3.548
REMARK  Name = 
REMARK  9 active torsions:
REMARK  status: ('A' for Active; 'I' for Inactive)
REMARK    1  A    between atoms: O_1  and  C_2
REMARK    2  A    between atoms: C_2  and  C_4
REMARK    3  A    between atoms: C_5  and  C_29
REMARK    4  A    between atoms: C_7  and  O_8
REMARK    5  A    between atoms: O_8  and  C_9
REMARK    6  A    between atoms: C_10  and  N_11
REMARK    7  A    between atoms: C_12  and  C_14
REMARK    8  A    between atoms: C_16  and  N_20
REMARK    9  A    between atoms: C_29  and  O_30
REMARK                            x       y       z     vdW  Elec       q    Type
REMARK                         _______ _______ _______ _____ _____    ______ ____
ROOT
ATOM      1  C   UNL     1       9.785  -0.163  24.245  0.00  0.00    +0.150 A 
ATOM      2  C   UNL     1      10.410   1.104  24.146  0.00  0.00    +0.048 A 
ATOM      3  C   UNL     1      10.497   1.787  22.936  0.00  0.00    +0.004 A 
ATOM      4  C   UNL     1       9.875   1.263  21.818  0.00  0.00    +0.002 A 
ATOM      5  C   UNL     1       9.198   0.046  21.907  0.00  0.00    +0.027 A 
ATOM      6  C   UNL     1       9.150  -0.708  23.105  0.00  0.00    +0.076 A 
ENDROOT
BRANCH   6   7
ATOM      7  N   UNL     1       8.464  -1.953  22.966  0.00  0.00    -0.279 N 
ATOM      8  H   UNL     1       9.084  -2.740  22.831  0.00  0.00    +0.155 HD
ATOM      9  C   UNL     1       7.112  -2.229  22.975  0.00  0.00    +0.249 C 
ATOM     10  O   UNL     1       6.210  -1.403  23.048  0.00  0.00    -0.270 OA
BRANCH   9  11
ATOM     11  C   UNL     1       6.688  -3.676  22.853  0.00  0.00    +0.043 A 
ATOM     12  C   UNL     1       7.034  -4.321  21.649  0.00  0.00    +0.013 A 
ATOM     13  C   UNL     1       6.724  -5.659  21.409  0.00  0.00    +0.007 A 
ATOM     14  C   UNL     1       6.062  -6.399  22.382  0.00  0.00    +0.084 A 
ATOM     15  C   UNL     1       5.700  -5.779  23.585  0.00  0.00    +0.274 A 
ATOM     16  C   UNL     1       5.993  -4.420  23.827  0.00  0.00    +0.097 A 
BRANCH  15  17
ATOM     17  N   UNL     1       5.010  -6.584  24.607  0.00  0.00    +0.080 N 
ATOM     18  O   UNL     1       5.214  -6.315  25.796  0.00  0.00    +0.041 OA
ATOM     19  O   UNL     1       4.251  -7.484  24.210  0.00  0.00    -0.576 OA
ENDBRANCH  15  17
ENDBRANCH   9  11
ENDBRANCH   6   7
BRANCH   1  20
ATOM     20  O   UNL     1       9.785  -0.821  25.469  0.00  0.00    -0.454 OA
BRANCH  20  24
ATOM     21  C   UNL     1       6.072  -2.086  26.941  0.00  0.00    +0.073 A 
ATOM     22  C   UNL     1       7.139  -2.997  26.801  0.00  0.00    +0.019 A 
ATOM     23  C   UNL     1       8.375  -2.571  26.291  0.00  0.00    +0.047 A 
ATOM     24  C   UNL     1       8.581  -1.219  26.023  0.00  0.00    +0.129 A 
ATOM     25  C   UNL     1       7.547  -0.316  26.266  0.00  0.00    +0.062 A 
ATOM     26  C   UNL     1       6.244  -0.755  26.543  0.00  0.00    +0.076 A 
BRANCH  21  27
ATOM     27  C   UNL     1       4.804  -2.572  27.514  0.00  0.00    +0.338 C 
ATOM     28  O   UNL     1       4.333  -2.134  28.550  0.00  0.00    -0.245 OA
BRANCH  27  29
ATOM     29  O   UNL     1       4.287  -3.632  26.864  0.00  0.00    -0.477 OA
ATOM     30  H   UNL     1       4.772  -4.476  26.960  0.00  0.00    +0.295 HD
ENDBRANCH  27  29
ENDBRANCH  21  27
BRANCH  26  31
ATOM     31  C   UNL     1       5.203   0.246  26.147  0.00  0.00    +0.338 C 
ATOM     32  O   UNL     1       4.594   0.853  27.020  0.00  0.00    -0.245 OA
BRANCH  31  33
ATOM     33  O   UNL     1       4.926   0.459  24.856  0.00  0.00    -0.477 OA
ATOM     34  H   UNL     1       5.468   1.132  24.385  0.00  0.00    +0.295 HD
ENDBRANCH  31  33
ENDBRANCH  26  31
ENDBRANCH  20  24
ENDBRANCH   1  20
TORSDOF 9
ENDMDL
MODEL 9
REMARK VINA RESULT:      -7.1      2.975      5.618
REMARK  Name = 
REMARK  9 active torsions:
REMARK  status: ('A' for Active; 'I' for Inactive)
REMARK    1  A    between atoms: O_1  and  C_2
REMARK    2  A    between atoms: C_2  and  C_4
REMARK    3  A    between atoms: C_5  and  C_29
REMARK    4  A    between atoms: C_7  and  O_8
REMARK    5  A    between atoms: O_8  and  C_9
REMARK    6  A    between atoms: C_10  and  N_11
REMARK    7  A    between atoms: C_12  and  C_14
REMARK    8  A    between atoms: C_16  and  N_20
REMARK    9  A    between atoms: C_29  and  O_30
REMARK                            x       y       z     vdW  Elec       q    Type
REMARK                         _______ _______ _______ _____ _____    ______ ____
ROOT
ATOM      1  C   UNL     1       6.356   1.907  26.809  0.00  0.00    +0.150 A 
ATOM      2  C   UNL     1       6.253   3.185  27.410  0.00  0.00    +0.048 A 
ATOM      3  C   UNL     1       6.598   3.401  28.741  0.00  0.00    +0.004 A 
ATOM      4  C   UNL     1       7.145   2.363  29.474  0.00  0.00    +0.002 A 
ATOM      5  C   UNL     1       7.316   1.110  28.883  0.00  0.00    +0.027 A 
ATOM      6  C   UNL     1       6.911   0.840  27.552  0.00  0.00    +0.076 A 
ENDROOT
BRANCH   6   7
ATOM      7  N   UNL     1       7.113  -0.519  27.162  0.00  0.00    -0.279 N 
ATOM      8  H   UNL     1       6.280  -1.086  27.237  0.00  0.00    +0.155 HD
ATOM      9  C   UNL     1       8.255  -1.158  26.724  0.00  0.00    +0.249 C 
ATOM     10  O   UNL     1       9.371  -0.660  26.643  0.00  0.00    -0.270 OA
BRANCH   9  11
ATOM     11  C   UNL     1       8.141  -2.615  26.331  0.00  0.00    +0.043 A 
ATOM     12  C   UNL     1       8.887  -3.009  25.203  0.00  0.00    +0.013 A 
ATOM     13  C   UNL     1       8.892  -4.325  24.741  0.00  0.00    +0.007 A 
ATOM     14  C   UNL     1       8.153  -5.294  25.409  0.00  0.00    +0.084 A 
ATOM     15  C   UNL     1       7.396  -4.926  26.530  0.00  0.00    +0.274 A 
ATOM     16  C   UNL     1       7.371  -3.592  26.991  0.00  0.00    +0.097 A 
BRANCH  15  17
ATOM     17  N   UNL     1       6.630  -5.969  27.230  0.00  0.00    +0.080 N 
ATOM     18  O   UNL     1       6.922  -6.218  28.404  0.00  0.00    +0.041 OA
ATOM     19  O   UNL     1       5.721  -6.532  26.597  0.00  0.00    -0.576 OA
ENDBRANCH  15  17
ENDBRANCH   9  11
ENDBRANCH   6   7
BRANCH   1  20
ATOM     20  O   UNL     1       5.938   1.745  25.494  0.00  0.00    -0.454 OA
BRANCH  20  24
ATOM     21  C   UNL     1       8.611  -0.146  22.878  0.00  0.00    +0.073 A 
ATOM     22  C   UNL     1       7.300  -0.637  23.048  0.00  0.00    +0.019 A 
ATOM     23  C   UNL     1       6.415  -0.010  23.939  0.00  0.00    +0.047 A 
ATOM     24  C   UNL     1       6.800   1.167  24.577  0.00  0.00    +0.129 A 
ATOM     25  C   UNL     1       8.063   1.696  24.318  0.00  0.00    +0.062 A 
ATOM     26  C   UNL     1       9.036   0.959  23.626  0.00  0.00    +0.076 A 
BRANCH  21  27
ATOM     27  C   UNL     1       9.493  -0.816  21.906  0.00  0.00    +0.338 C 
ATOM     28  O   UNL     1      10.320  -1.652  22.227  0.00  0.00    -0.245 OA
BRANCH  27  29
ATOM     29  O   UNL     1       9.395  -0.323  20.657  0.00  0.00    -0.477 OA
ATOM     30  H   UNL     1       9.993   0.420  20.438  0.00  0.00    +0.295 HD
ENDBRANCH  27  29
ENDBRANCH  21  27
BRANCH  26  31
ATOM     31  C   UNL     1      10.430   1.365  23.987  0.00  0.00    +0.338 C 
ATOM     32  O   UNL     1      10.878   2.420  23.552  0.00  0.00    -0.245 OA
BRANCH  31  33
ATOM     33  O   UNL     1      11.186   0.575  24.758  0.00  0.00    -0.477 OA
ATOM     34  H   UNL     1      10.765  -0.239  25.116  0.00  0.00    +0.295 HD
ENDBRANCH  31  33
ENDBRANCH  26  31
ENDBRANCH  20  24
ENDBRANCH   1  20
TORSDOF 9
ENDMDL
