MODEL 1
REMARK VINA RESULT:      -6.5      0.000      0.000
REMARK  Name = 
REMARK  16 active torsions:
REMARK  status: ('A' for Active; 'I' for Inactive)
REMARK    1  A    between atoms: C_2  and  C_3
REMARK    2  A    between atoms: C_2  and  C_8
REMARK    3  A    between atoms: C_2  and  C_13
REMARK    4  A    between atoms: C_3  and  C_4
REMARK    5  A    between atoms: C_4  and  C_5
REMARK    6  A    between atoms: C_5  and  C_6
REMARK    7  A    between atoms: C_6  and  C_7
REMARK    8  A    between atoms: C_8  and  C_9
REMARK    9  A    between atoms: N_11  and  O_12
REMARK   10  A    between atoms: N_15  and  CA_16
REMARK   11  A    between atoms: CA_16  and  CB_18
REMARK   12  A    between atoms: CA_16  and  C_21
REMARK   13  A    between atoms: CB_18  and  CG1_19
REMARK   14  A    between atoms: CB_18  and  CG2_20
REMARK   15  A    between atoms: CA_27  and  C_29
REMARK   16  A    between atoms: C_29  and  O_30
REMARK                            x       y       z     vdW  Elec       q    Type
REMARK                         _______ _______ _______ _____ _____    ______ ____
ROOT
ATOM      1  C   UNK A   0       9.466  -0.723  22.616  0.00  0.00    +0.217 C 
ATOM      2  N   VAL A   1       8.688  -0.894  23.735  0.00  0.00    -0.304 N 
ATOM      3  H   VAL A   1       8.298  -0.092  24.221  0.00  0.00    +0.149 HD
ATOM      4  O   UNK A   0       9.844  -1.669  21.926  0.00  0.00    -0.275 OA
ENDROOT
BRANCH   1   5
ATOM      5  C   UNK A   0       9.808   0.726  22.262  0.00  0.00    +0.084 C 
BRANCH   5   6
ATOM      6  C   UNK A   0       8.749   1.221  21.257  0.00  0.00    +0.110 C 
BRANCH   6   7
ATOM      7  C   UNK A   0       7.598   1.984  21.875  0.00  0.00    +0.236 C 
ATOM      8  N   UNK A   0       6.605   1.170  22.372  0.00  0.00    -0.197 N 
ATOM      9  H   UNK A   0       6.501   0.191  22.129  0.00  0.00    +0.182 HD
ATOM     10  O   UNK A   0       7.525   3.209  21.931  0.00  0.00    -0.274 OA
BRANCH   8  11
ATOM     11  O   UNK A   0       5.472   1.818  22.916  0.00  0.00    -0.295 OA
ATOM     12  H   UNK A   0       5.030   1.092  23.409  0.00  0.00    +0.241 HD
ENDBRANCH   8  11
ENDBRANCH   6   7
ENDBRANCH   5   6
BRANCH   5  13
ATOM     13  C   UNK A   0       9.798   1.596  23.530  0.00  0.00    +0.013 C 
BRANCH  13  14
ATOM     14  C   UNK A   0      10.757   2.787  23.471  0.00  0.00    +0.001 C 
BRANCH  14  15
ATOM     15  C   UNK A   0      10.063   4.085  23.878  0.00  0.00    -0.000 C 
BRANCH  15  16
ATOM     16  C   UNK A   0      10.982   5.280  23.638  0.00  0.00    -0.003 C 
ATOM     17  C   UNK A   0      12.382   4.832  23.264  0.00  0.00    +0.004 C 
ENDBRANCH  15  16
ENDBRANCH  14  15
ENDBRANCH  13  14
ENDBRANCH   5  13
ENDBRANCH   1   5
BRANCH   2  18
ATOM     18  CA  VAL A   1       8.278  -2.215  24.238  0.00  0.00    +0.162 C 
BRANCH  18  19
ATOM     19  C   VAL A   1       6.947  -2.622  23.529  0.00  0.00    +0.236 C 
ATOM     20  N   PRO A   2       6.710  -3.954  23.226  0.00  0.00    -0.295 N 
ATOM     21  CA  PRO A   2       5.477  -4.369  22.524  0.00  0.00    +0.101 C 
ATOM     22  CB  PRO A   2       5.773  -5.782  21.994  0.00  0.00    +0.026 C 
ATOM     23  CG  PRO A   2       7.288  -5.892  22.031  0.00  0.00    +0.021 C 
ATOM     24  CD  PRO A   2       7.681  -5.037  23.228  0.00  0.00    +0.108 C 
ATOM     25  O   VAL A   1       6.093  -1.760  23.289  0.00  0.00    -0.274 OA
BRANCH  21  26
ATOM     26  C   PRO A   2       4.229  -4.360  23.424  0.00  0.00    +0.178 C 
BRANCH  26  27
ATOM     27  O   PRO A   2       3.197  -5.192  22.884  0.00  0.00    -0.393 OA
ATOM     28  H   PRO A   2       3.308  -6.061  23.308  0.00  0.00    +0.209 HD
ENDBRANCH  26  27
ENDBRANCH  21  26
ENDBRANCH  18  19
BRANCH  18  29
ATOM     29  CB  VAL A   1       8.109  -2.214  25.781  0.00  0.00    +0.012 C 
ATOM     30  CG2 VAL A   1       8.784  -1.005  26.440  0.00  0.00    +0.009 C 
ATOM     31  CG1 VAL A   1       8.636  -3.497  26.438  0.00  0.00    +0.009 C 
ENDBRANCH  18  29
ENDBRANCH   2  18
TORSDOF 13
ENDMDL
MODEL 2
REMARK VINA RESULT:      -6.3      2.014      3.121
REMARK  Name = 
REMARK  16 active torsions:
REMARK  status: ('A' for Active; 'I' for Inactive)
REMARK    1  A    between atoms: C_2  and  C_3
REMARK    2  A    between atoms: C_2  and  C_8
REMARK    3  A    between atoms: C_2  and  C_13
REMARK    4  A    between atoms: C_3  and  C_4
REMARK    5  A    between atoms: C_4  and  C_5
REMARK    6  A    between atoms: C_5  and  C_6
REMARK    7  A    between atoms: C_6  and  C_7
REMARK    8  A    between atoms: C_8  and  C_9
REMARK    9  A    between atoms: N_11  and  O_12
REMARK   10  A    between atoms: N_15  and  CA_16
REMARK   11  A    between atoms: CA_16  and  CB_18
REMARK   12  A    between atoms: CA_16  and  C_21
REMARK   13  A    between atoms: CB_18  and  CG1_19
REMARK   14  A    between atoms: CB_18  and  CG2_20
REMARK   15  A    between atoms: CA_27  and  C_29
REMARK   16  A    between atoms: C_29  and  O_30
REMARK                            x       y       z     vdW  Elec       q    Type
REMARK                         _______ _______ _______ _____ _____    ______ ____
ROOT
ATOM      1  C   UNK A   0       9.295   0.943  24.718  0.00  0.00    +0.217 C 
ATOM      2  N   VAL A   1       7.987   0.520  24.711  0.00  0.00    -0.304 N 
ATOM      3  H   VAL A   1       7.286   1.015  24.168  0.00  0.00    +0.149 HD
ATOM      4  O   UNK A   0      10.193   0.296  25.253  0.00  0.00    -0.275 OA
ENDROOT
BRANCH   1   5
ATOM      5  C   UNK A   0       9.567   2.260  23.988  0.00  0.00    +0.084 C 
BRANCH   5   6
ATOM      6  C   UNK A   0      10.357   1.926  22.707  0.00  0.00    +0.110 C 
BRANCH   6   7
ATOM      7  C   UNK A   0       9.784   0.791  21.888  0.00  0.00    +0.236 C 
ATOM      8  N   UNK A   0      10.384  -0.423  22.137  0.00  0.00    -0.197 N 
ATOM      9  H   UNK A   0      11.278  -0.526  22.604  0.00  0.00    +0.182 HD
ATOM     10  O   UNK A   0       8.880   0.913  21.065  0.00  0.00    -0.274 OA
BRANCH   8  11
ATOM     11  O   UNK A   0       9.935  -1.519  21.366  0.00  0.00    -0.295 OA
ATOM     12  H   UNK A   0      10.229  -1.275  20.461  0.00  0.00    +0.241 HD
ENDBRANCH   8  11
ENDBRANCH   6   7
ENDBRANCH   5   6
BRANCH   5  13
ATOM     13  C   UNK A   0       8.242   2.957  23.639  0.00  0.00    +0.013 C 
BRANCH  13  14
ATOM     14  C   UNK A   0       8.374   4.464  23.410  0.00  0.00    +0.001 C 
BRANCH  14  15
ATOM     15  C   UNK A   0       9.335   5.099  24.412  0.00  0.00    -0.000 C 
BRANCH  15  16
ATOM     16  C   UNK A   0      10.267   6.083  23.710  0.00  0.00    -0.003 C 
ATOM     17  C   UNK A   0      11.668   5.514  23.578  0.00  0.00    +0.004 C 
ENDBRANCH  15  16
ENDBRANCH  14  15
ENDBRANCH  13  14
ENDBRANCH   5  13
ENDBRANCH   1   5
BRANCH   2  18
ATOM     18  CA  VAL A   1       7.535  -0.711  25.379  0.00  0.00    +0.162 C 
BRANCH  18  19
ATOM     19  C   VAL A   1       7.825  -1.921  24.434  0.00  0.00    +0.236 C 
ATOM     20  N   PRO A   2       8.052  -3.177  24.976  0.00  0.00    -0.295 N 
ATOM     21  CA  PRO A   2       8.364  -4.335  24.112  0.00  0.00    +0.101 C 
ATOM     22  CB  PRO A   2       8.964  -5.390  25.057  0.00  0.00    +0.026 C 
ATOM     23  CG  PRO A   2       9.373  -4.605  26.293  0.00  0.00    +0.021 C 
ATOM     24  CD  PRO A   2       8.340  -3.489  26.368  0.00  0.00    +0.108 C 
ATOM     25  O   VAL A   1       7.800  -1.759  23.208  0.00  0.00    -0.274 OA
BRANCH  21  26
ATOM     26  C   PRO A   2       7.138  -4.888  23.366  0.00  0.00    +0.178 C 
BRANCH  26  27
ATOM     27  O   PRO A   2       7.118  -4.443  22.005  0.00  0.00    -0.393 OA
ATOM     28  H   PRO A   2       6.307  -3.914  21.911  0.00  0.00    +0.209 HD
ENDBRANCH  26  27
ENDBRANCH  21  26
ENDBRANCH  18  19
BRANCH  18  29
ATOM     29  CB  VAL A   1       6.029  -0.643  25.749  0.00  0.00    +0.012 C 
ATOM     30  CG2 VAL A   1       5.395   0.699  25.361  0.00  0.00    +0.009 C 
ATOM     31  CG1 VAL A   1       5.770  -0.903  27.239  0.00  0.00    +0.009 C 
ENDBRANCH  18  29
ENDBRANCH   2  18
TORSDOF 13
ENDMDL
MODEL 3
REMARK VINA RESULT:      -6.1      2.456      7.845
REMARK  Name = 
REMARK  16 active torsions:
REMARK  status: ('A' for Active; 'I' for Inactive)
REMARK    1  A    between atoms: C_2  and  C_3
REMARK    2  A    between atoms: C_2  and  C_8
REMARK    3  A    between atoms: C_2  and  C_13
REMARK    4  A    between atoms: C_3  and  C_4
REMARK    5  A    between atoms: C_4  and  C_5
REMARK    6  A    between atoms: C_5  and  C_6
REMARK    7  A    between atoms: C_6  and  C_7
REMARK    8  A    between atoms: C_8  and  C_9
REMARK    9  A    between atoms: N_11  and  O_12
REMARK   10  A    between atoms: N_15  and  CA_16
REMARK   11  A    between atoms: CA_16  and  CB_18
REMARK   12  A    between atoms: CA_16  and  C_21
REMARK   13  A    between atoms: CB_18  and  CG1_19
REMARK   14  A    between atoms: CB_18  and  CG2_20
REMARK   15  A    between atoms: CA_27  and  C_29
REMARK   16  A    between atoms: C_29  and  O_30
REMARK                            x       y       z     vdW  Elec       q    Type
REMARK                         _______ _______ _______ _____ _____    ______ ____
ROOT
ATOM      1  C   UNK A   0       8.087  -1.681  24.478  0.00  0.00    +0.217 C 
ATOM      2  N   VAL A   1       7.802  -0.667  23.596  0.00  0.00    -0.304 N 
ATOM      3  H   VAL A   1       6.996  -0.728  22.980  0.00  0.00    +0.149 HD
ATOM      4  O   UNK A   0       8.970  -1.585  25.329  0.00  0.00    -0.275 OA
ENDROOT
BRANCH   1   5
ATOM      5  C   UNK A   0       7.211  -2.930  24.355  0.00  0.00    +0.084 C 
BRANCH   5   6
ATOM      6  C   UNK A   0       7.154  -3.596  25.744  0.00  0.00    +0.110 C 
BRANCH   6   7
ATOM      7  C   UNK A   0       8.004  -4.839  25.886  0.00  0.00    +0.236 C 
ATOM      8  N   UNK A   0       9.223  -4.745  25.252  0.00  0.00    -0.197 N 
ATOM      9  H   UNK A   0       9.441  -4.051  24.546  0.00  0.00    +0.182 HD
ATOM     10  O   UNK A   0       7.662  -5.852  26.492  0.00  0.00    -0.274 OA
BRANCH   8  11
ATOM     11  O   UNK A   0      10.047  -5.893  25.297  0.00  0.00    -0.295 OA
ATOM     12  H   UNK A   0      10.897  -5.529  25.631  0.00  0.00    +0.241 HD
ENDBRANCH   8  11
ENDBRANCH   6   7
ENDBRANCH   5   6
BRANCH   5  13
ATOM     13  C   UNK A   0       5.800  -2.543  23.884  0.00  0.00    +0.013 C 
BRANCH  13  14
ATOM     14  C   UNK A   0       5.234  -3.463  22.800  0.00  0.00    +0.001 C 
BRANCH  14  15
ATOM     15  C   UNK A   0       6.262  -3.735  21.704  0.00  0.00    -0.000 C 
BRANCH  15  16
ATOM     16  C   UNK A   0       6.669  -5.206  21.707  0.00  0.00    -0.003 C 
ATOM     17  C   UNK A   0       5.799  -6.016  22.650  0.00  0.00    +0.004 C 
ENDBRANCH  15  16
ENDBRANCH  14  15
ENDBRANCH  13  14
ENDBRANCH   5  13
ENDBRANCH   1   5
BRANCH   2  18
ATOM     18  CA  VAL A   1       8.552   0.599  23.553  0.00  0.00    +0.162 C 
BRANCH  18  19
ATOM     19  C   VAL A   1       7.558   1.750  23.195  0.00  0.00    +0.236 C 
ATOM     20  N   PRO A   2       7.615   2.948  23.891  0.00  0.00    -0.295 N 
ATOM     21  CA  PRO A   2       6.666   4.044  23.601  0.00  0.00    +0.101 C 
ATOM     22  CB  PRO A   2       6.748   4.978  24.820  0.00  0.00    +0.026 C 
ATOM     23  CG  PRO A   2       7.383   4.129  25.909  0.00  0.00    +0.021 C 
ATOM     24  CD  PRO A   2       8.314   3.199  25.142  0.00  0.00    +0.108 C 
ATOM     25  O   VAL A   1       6.763   1.602  22.259  0.00  0.00    -0.274 OA
BRANCH  21  26
ATOM     26  C   PRO A   2       6.983   4.797  22.298  0.00  0.00    +0.178 C 
BRANCH  26  27
ATOM     27  O   PRO A   2       8.311   5.332  22.321  0.00  0.00    -0.393 OA
ATOM     28  H   PRO A   2       8.772   4.931  21.564  0.00  0.00    +0.209 HD
ENDBRANCH  26  27
ENDBRANCH  21  26
ENDBRANCH  18  19
BRANCH  18  29
ATOM     29  CB  VAL A   1       9.723   0.538  22.536  0.00  0.00    +0.012 C 
ATOM     30  CG2 VAL A   1      10.164   1.932  22.073  0.00  0.00    +0.009 C 
ATOM     31  CG1 VAL A   1       9.395  -0.315  21.303  0.00  0.00    +0.009 C 
ENDBRANCH  18  29
ENDBRANCH   2  18
TORSDOF 13
ENDMDL
MODEL 4
REMARK VINA RESULT:      -6.0      2.214      7.458
REMARK  Name = 
REMARK  16 active torsions:
REMARK  status: ('A' for Active; 'I' for Inactive)
REMARK    1  A    between atoms: C_2  and  C_3
REMARK    2  A    between atoms: C_2  and  C_8
REMARK    3  A    between atoms: C_2  and  C_13
REMARK    4  A    between atoms: C_3  and  C_4
REMARK    5  A    between atoms: C_4  and  C_5
REMARK    6  A    between atoms: C_5  and  C_6
REMARK    7  A    between atoms: C_6  and  C_7
REMARK    8  A    between atoms: C_8  and  C_9
REMARK    9  A    between atoms: N_11  and  O_12
REMARK   10  A    between atoms: N_15  and  CA_16
REMARK   11  A    between atoms: CA_16  and  CB_18
REMARK   12  A    between atoms: CA_16  and  C_21
REMARK   13  A    between atoms: CB_18  and  CG1_19
REMARK   14  A    between atoms: CB_18  and  CG2_20
REMARK   15  A    between atoms: CA_27  and  C_29
REMARK   16  A    between atoms: C_29  and  O_30
REMARK                            x       y       z     vdW  Elec       q    Type
REMARK                         _______ _______ _______ _____ _____    ______ ____
ROOT
ATOM      1  C   UNK A   0       7.309  -1.782  24.471  0.00  0.00    +0.217 C 
ATOM      2  N   VAL A   1       7.481  -0.896  23.436  0.00  0.00    -0.304 N 
ATOM      3  H   VAL A   1       6.952  -0.997  22.574  0.00  0.00    +0.149 HD
ATOM      4  O   UNK A   0       7.828  -1.616  25.574  0.00  0.00    -0.275 OA
ENDROOT
BRANCH   1   5
ATOM      5  C   UNK A   0       6.402  -2.978  24.174  0.00  0.00    +0.084 C 
BRANCH   5   6
ATOM      6  C   UNK A   0       7.122  -3.860  23.133  0.00  0.00    +0.110 C 
BRANCH   6   7
ATOM      7  C   UNK A   0       6.319  -4.145  21.883  0.00  0.00    +0.236 C 
ATOM      8  N   UNK A   0       6.627  -5.352  21.297  0.00  0.00    -0.197 N 
ATOM      9  H   UNK A   0       7.468  -5.881  21.500  0.00  0.00    +0.182 HD
ATOM     10  O   UNK A   0       5.478  -3.386  21.408  0.00  0.00    -0.274 OA
BRANCH   8  11
ATOM     11  O   UNK A   0       5.953  -5.658  20.092  0.00  0.00    -0.295 OA
ATOM     12  H   UNK A   0       5.011  -5.665  20.373  0.00  0.00    +0.241 HD
ENDBRANCH   8  11
ENDBRANCH   6   7
ENDBRANCH   5   6
BRANCH   5  13
ATOM     13  C   UNK A   0       6.135  -3.774  25.462  0.00  0.00    +0.013 C 
BRANCH  13  14
ATOM     14  C   UNK A   0       6.847  -5.128  25.514  0.00  0.00    +0.001 C 
BRANCH  14  15
ATOM     15  C   UNK A   0       7.688  -5.270  26.780  0.00  0.00    -0.000 C 
BRANCH  15  16
ATOM     16  C   UNK A   0       9.028  -4.558  26.614  0.00  0.00    -0.003 C 
ATOM     17  C   UNK A   0       9.761  -5.047  25.379  0.00  0.00    +0.004 C 
ENDBRANCH  15  16
ENDBRANCH  14  15
ENDBRANCH  13  14
ENDBRANCH   5  13
ENDBRANCH   1   5
BRANCH   2  18
ATOM     18  CA  VAL A   1       8.334   0.301  23.532  0.00  0.00    +0.162 C 
BRANCH  18  19
ATOM     19  C   VAL A   1       7.473   1.551  23.165  0.00  0.00    +0.236 C 
ATOM     20  N   PRO A   2       7.687   2.750  23.828  0.00  0.00    -0.295 N 
ATOM     21  CA  PRO A   2       6.866   3.943  23.531  0.00  0.00    +0.101 C 
ATOM     22  CB  PRO A   2       7.088   4.891  24.722  0.00  0.00    +0.026 C 
ATOM     23  CG  PRO A   2       7.647   3.999  25.818  0.00  0.00    +0.021 C 
ATOM     24  CD  PRO A   2       8.443   2.948  25.056  0.00  0.00    +0.108 C 
ATOM     25  O   VAL A   1       6.641   1.476  22.252  0.00  0.00    -0.274 OA
BRANCH  21  26
ATOM     26  C   PRO A   2       7.235   4.622  22.201  0.00  0.00    +0.178 C 
BRANCH  26  27
ATOM     27  O   PRO A   2       8.233   5.630  22.395  0.00  0.00    -0.393 OA
ATOM     28  H   PRO A   2       8.328   5.726  23.359  0.00  0.00    +0.209 HD
ENDBRANCH  26  27
ENDBRANCH  21  26
ENDBRANCH  18  19
BRANCH  18  29
ATOM     29  CB  VAL A   1       9.578   0.193  22.611  0.00  0.00    +0.012 C 
ATOM     30  CG2 VAL A   1       9.948   1.538  21.973  0.00  0.00    +0.009 C 
ATOM     31  CG1 VAL A   1       9.408  -0.853  21.501  0.00  0.00    +0.009 C 
ENDBRANCH  18  29
ENDBRANCH   2  18
TORSDOF 13
ENDMDL
MODEL 5
REMARK VINA RESULT:      -6.0      2.484      7.698
REMARK  Name = 
REMARK  16 active torsions:
REMARK  status: ('A' for Active; 'I' for Inactive)
REMARK    1  A    between atoms: C_2  and  C_3
REMARK    2  A    between atoms: C_2  and  C_8
REMARK    3  A    between atoms: C_2  and  C_13
REMARK    4  A    between atoms: C_3  and  C_4
REMARK    5  A    between atoms: C_4  and  C_5
REMARK    6  A    between atoms: C_5  and  C_6
REMARK    7  A    between atoms: C_6  and  C_7
REMARK    8  A    between atoms: C_8  and  C_9
REMARK    9  A    between atoms: N_11  and  O_12
REMARK   10  A    between atoms: N_15  and  CA_16
REMARK   11  A    between atoms: CA_16  and  CB_18
REMARK   12  A    between atoms: CA_16  and  C_21
REMARK   13  A    between atoms: CB_18  and  CG1_19
REMARK   14  A    between atoms: CB_18  and  CG2_20
REMARK   15  A    between atoms: CA_27  and  C_29
REMARK   16  A    between atoms: C_29  and  O_30
REMARK                            x       y       z     vdW  Elec       q    Type
REMARK                         _______ _______ _______ _____ _____    ______ ____
ROOT
ATOM      1  C   UNK A   0       6.584  -3.560  23.530  0.00  0.00    +0.217 C 
ATOM      2  N   VAL A   1       7.037  -2.750  24.543  0.00  0.00    -0.304 N 
ATOM      3  H   VAL A   1       7.514  -3.145  25.348  0.00  0.00    +0.149 HD
ATOM      4  O   UNK A   0       6.124  -3.110  22.482  0.00  0.00    -0.275 OA
ENDROOT
BRANCH   1   5
ATOM      5  C   UNK A   0       6.717  -5.065  23.777  0.00  0.00    +0.084 C 
BRANCH   5   6
ATOM      6  C   UNK A   0       6.600  -5.298  25.296  0.00  0.00    +0.110 C 
BRANCH   6   7
ATOM      7  C   UNK A   0       7.920  -5.341  26.034  0.00  0.00    +0.236 C 
ATOM      8  N   UNK A   0       9.003  -5.542  25.210  0.00  0.00    -0.197 N 
ATOM      9  H   UNK A   0       8.934  -5.891  24.260  0.00  0.00    +0.182 HD
ATOM     10  O   UNK A   0       8.040  -5.222  27.251  0.00  0.00    -0.274 OA
BRANCH   8  11
ATOM     11  O   UNK A   0      10.264  -5.647  25.839  0.00  0.00    -0.295 OA
ATOM     12  H   UNK A   0      10.648  -4.755  25.694  0.00  0.00    +0.241 HD
ENDBRANCH   8  11
ENDBRANCH   6   7
ENDBRANCH   5   6
BRANCH   5  13
ATOM     13  C   UNK A   0       5.611  -5.825  23.026  0.00  0.00    +0.013 C 
BRANCH  13  14
ATOM     14  C   UNK A   0       4.356  -6.080  23.864  0.00  0.00    +0.001 C 
BRANCH  14  15
ATOM     15  C   UNK A   0       3.205  -5.172  23.438  0.00  0.00    -0.000 C 
BRANCH  15  16
ATOM     16  C   UNK A   0       2.515  -4.575  24.662  0.00  0.00    -0.003 C 
ATOM     17  C   UNK A   0       3.289  -3.389  25.205  0.00  0.00    +0.004 C 
ENDBRANCH  15  16
ENDBRANCH  14  15
ENDBRANCH  13  14
ENDBRANCH   5  13
ENDBRANCH   1   5
BRANCH   2  18
ATOM     18  CA  VAL A   1       6.970  -1.280  24.491  0.00  0.00    +0.162 C 
BRANCH  18  19
ATOM     19  C   VAL A   1       8.383  -0.735  24.106  0.00  0.00    +0.236 C 
ATOM     20  N   PRO A   2       8.492   0.453  23.399  0.00  0.00    -0.295 N 
ATOM     21  CA  PRO A   2       9.811   0.978  22.989  0.00  0.00    +0.101 C 
ATOM     22  CB  PRO A   2       9.508   2.016  21.896  0.00  0.00    +0.026 C 
ATOM     23  CG  PRO A   2       8.096   1.686  21.440  0.00  0.00    +0.021 C 
ATOM     24  CD  PRO A   2       7.426   1.154  22.699  0.00  0.00    +0.108 C 
ATOM     25  O   VAL A   1       9.395  -1.342  24.479  0.00  0.00    -0.274 OA
BRANCH  21  26
ATOM     26  C   PRO A   2      10.606   1.604  24.148  0.00  0.00    +0.178 C 
BRANCH  26  27
ATOM     27  O   PRO A   2      11.496   0.650  24.738  0.00  0.00    -0.393 OA
ATOM     28  H   PRO A   2      11.457   0.810  25.698  0.00  0.00    +0.209 HD
ENDBRANCH  26  27
ENDBRANCH  21  26
ENDBRANCH  18  19
BRANCH  18  29
ATOM     29  CB  VAL A   1       6.490  -0.680  25.839  0.00  0.00    +0.012 C 
ATOM     30  CG2 VAL A   1       6.178  -1.762  26.880  0.00  0.00    +0.009 C 
ATOM     31  CG1 VAL A   1       5.264   0.229  25.683  0.00  0.00    +0.009 C 
ENDBRANCH  18  29
ENDBRANCH   2  18
TORSDOF 13
ENDMDL
MODEL 6
REMARK VINA RESULT:      -5.9      3.196      5.053
REMARK  Name = 
REMARK  16 active torsions:
REMARK  status: ('A' for Active; 'I' for Inactive)
REMARK    1  A    between atoms: C_2  and  C_3
REMARK    2  A    between atoms: C_2  and  C_8
REMARK    3  A    between atoms: C_2  and  C_13
REMARK    4  A    between atoms: C_3  and  C_4
REMARK    5  A    between atoms: C_4  and  C_5
REMARK    6  A    between atoms: C_5  and  C_6
REMARK    7  A    between atoms: C_6  and  C_7
REMARK    8  A    between atoms: C_8  and  C_9
REMARK    9  A    between atoms: N_11  and  O_12
REMARK   10  A    between atoms: N_15  and  CA_16
REMARK   11  A    between atoms: CA_16  and  CB_18
REMARK   12  A    between atoms: CA_16  and  C_21
REMARK   13  A    between atoms: CB_18  and  CG1_19
REMARK   14  A    between atoms: CB_18  and  CG2_20
REMARK   15  A    between atoms: CA_27  and  C_29
REMARK   16  A    between atoms: C_29  and  O_30
REMARK                            x       y       z     vdW  Elec       q    Type
REMARK                         _______ _______ _______ _____ _____    ______ ____
ROOT
ATOM      1  C   UNK A   0       6.953  -2.186  24.003  0.00  0.00    +0.217 C 
ATOM      2  N   VAL A   1       7.204  -3.502  24.308  0.00  0.00    -0.304 N 
ATOM      3  H   VAL A   1       8.156  -3.831  24.437  0.00  0.00    +0.149 HD
ATOM      4  O   UNK A   0       5.815  -1.722  23.971  0.00  0.00    -0.275 OA
ENDROOT
BRANCH   1   5
ATOM      5  C   UNK A   0       8.188  -1.323  23.733  0.00  0.00    +0.084 C 
BRANCH   5   6
ATOM      6  C   UNK A   0       9.106  -1.428  24.968  0.00  0.00    +0.110 C 
BRANCH   6   7
ATOM      7  C   UNK A   0       8.723  -0.528  26.121  0.00  0.00    +0.236 C 
ATOM      8  N   UNK A   0       8.292   0.718  25.725  0.00  0.00    -0.197 N 
ATOM      9  H   UNK A   0       8.456   1.106  24.802  0.00  0.00    +0.182 HD
ATOM     10  O   UNK A   0       8.790  -0.847  27.305  0.00  0.00    -0.274 OA
BRANCH   8  11
ATOM     11  O   UNK A   0       7.970   1.631  26.754  0.00  0.00    -0.295 OA
ATOM     12  H   UNK A   0       7.796   1.037  27.517  0.00  0.00    +0.241 HD
ENDBRANCH   8  11
ENDBRANCH   6   7
ENDBRANCH   5   6
BRANCH   5  13
ATOM     13  C   UNK A   0       8.917  -1.819  22.474  0.00  0.00    +0.013 C 
BRANCH  13  14
ATOM     14  C   UNK A   0       9.339  -0.700  21.520  0.00  0.00    +0.001 C 
BRANCH  14  15
ATOM     15  C   UNK A   0      10.148   0.375  22.242  0.00  0.00    -0.000 C 
BRANCH  15  16
ATOM     16  C   UNK A   0       9.588   1.761  21.937  0.00  0.00    -0.003 C 
ATOM     17  C   UNK A   0       8.120   1.690  21.560  0.00  0.00    +0.004 C 
ENDBRANCH  15  16
ENDBRANCH  14  15
ENDBRANCH  13  14
ENDBRANCH   5  13
ENDBRANCH   1   5
BRANCH   2  18
ATOM     18  CA  VAL A   1       6.140  -4.484  24.576  0.00  0.00    +0.162 C 
BRANCH  18  19
ATOM     19  C   VAL A   1       6.330  -5.034  26.026  0.00  0.00    +0.236 C 
ATOM     20  N   PRO A   2       5.398  -4.727  27.005  0.00  0.00    -0.295 N 
ATOM     21  CA  PRO A   2       5.566  -5.202  28.395  0.00  0.00    +0.101 C 
ATOM     22  CB  PRO A   2       4.621  -4.327  29.235  0.00  0.00    +0.026 C 
ATOM     23  CG  PRO A   2       4.327  -3.127  28.351  0.00  0.00    +0.021 C 
ATOM     24  CD  PRO A   2       4.369  -3.700  26.941  0.00  0.00    +0.108 C 
ATOM     25  O   VAL A   1       7.285  -5.781  26.277  0.00  0.00    -0.274 OA
BRANCH  21  26
ATOM     26  C   PRO A   2       5.248  -6.697  28.572  0.00  0.00    +0.178 C 
BRANCH  26  27
ATOM     27  O   PRO A   2       6.423  -7.437  28.923  0.00  0.00    -0.393 OA
ATOM     28  H   PRO A   2       7.122  -6.774  29.060  0.00  0.00    +0.209 HD
ENDBRANCH  26  27
ENDBRANCH  21  26
ENDBRANCH  18  19
BRANCH  18  29
ATOM     29  CB  VAL A   1       6.149  -5.637  23.538  0.00  0.00    +0.012 C 
ATOM     30  CG2 VAL A   1       7.370  -5.575  22.611  0.00  0.00    +0.009 C 
ATOM     31  CG1 VAL A   1       4.876  -5.677  22.682  0.00  0.00    +0.009 C 
ENDBRANCH  18  29
ENDBRANCH   2  18
TORSDOF 13
ENDMDL
MODEL 7
REMARK VINA RESULT:      -5.9      3.003      5.679
REMARK  Name = 
REMARK  16 active torsions:
REMARK  status: ('A' for Active; 'I' for Inactive)
REMARK    1  A    between atoms: C_2  and  C_3
REMARK    2  A    between atoms: C_2  and  C_8
REMARK    3  A    between atoms: C_2  and  C_13
REMARK    4  A    between atoms: C_3  and  C_4
REMARK    5  A    between atoms: C_4  and  C_5
REMARK    6  A    between atoms: C_5  and  C_6
REMARK    7  A    between atoms: C_6  and  C_7
REMARK    8  A    between atoms: C_8  and  C_9
REMARK    9  A    between atoms: N_11  and  O_12
REMARK   10  A    between atoms: N_15  and  CA_16
REMARK   11  A    between atoms: CA_16  and  CB_18
REMARK   12  A    between atoms: CA_16  and  C_21
REMARK   13  A    between atoms: CB_18  and  CG1_19
REMARK   14  A    between atoms: CB_18  and  CG2_20
REMARK   15  A    between atoms: CA_27  and  C_29
REMARK   16  A    between atoms: C_29  and  O_30
REMARK                            x       y       z     vdW  Elec       q    Type
REMARK                         _______ _______ _______ _____ _____    ______ ____
ROOT
ATOM      1  C   UNK A   0       5.990  -3.117  23.569  0.00  0.00    +0.217 C 
ATOM      2  N   VAL A   1       5.736  -4.419  23.928  0.00  0.00    -0.304 N 
ATOM      3  H   VAL A   1       5.937  -4.745  24.869  0.00  0.00    +0.149 HD
ATOM      4  O   UNK A   0       5.639  -2.652  22.487  0.00  0.00    -0.275 OA
ENDROOT
BRANCH   1   5
ATOM      5  C   UNK A   0       6.714  -2.272  24.619  0.00  0.00    +0.084 C 
BRANCH   5   6
ATOM      6  C   UNK A   0       8.222  -2.567  24.495  0.00  0.00    +0.110 C 
BRANCH   6   7
ATOM      7  C   UNK A   0       8.750  -3.591  25.476  0.00  0.00    +0.236 C 
ATOM      8  N   UNK A   0       9.744  -4.387  24.957  0.00  0.00    -0.197 N 
ATOM      9  H   UNK A   0       9.933  -4.481  23.965  0.00  0.00    +0.182 HD
ATOM     10  O   UNK A   0       8.340  -3.727  26.627  0.00  0.00    -0.274 OA
BRANCH   8  11
ATOM     11  O   UNK A   0      10.246  -5.403  25.802  0.00  0.00    -0.295 OA
ATOM     12  H   UNK A   0      10.485  -6.111  25.163  0.00  0.00    +0.241 HD
ENDBRANCH   8  11
ENDBRANCH   6   7
ENDBRANCH   5   6
BRANCH   5  13
ATOM     13  C   UNK A   0       6.435  -0.778  24.381  0.00  0.00    +0.013 C 
BRANCH  13  14
ATOM     14  C   UNK A   0       7.630  -0.006  23.820  0.00  0.00    +0.001 C 
BRANCH  14  15
ATOM     15  C   UNK A   0       7.259   0.751  22.547  0.00  0.00    -0.000 C 
BRANCH  15  16
ATOM     16  C   UNK A   0       8.511   1.295  21.864  0.00  0.00    -0.003 C 
ATOM     17  C   UNK A   0       9.461   0.174  21.485  0.00  0.00    +0.004 C 
ENDBRANCH  15  16
ENDBRANCH  14  15
ENDBRANCH  13  14
ENDBRANCH   5  13
ENDBRANCH   1   5
BRANCH   2  18
ATOM     18  CA  VAL A   1       5.068  -5.384  23.039  0.00  0.00    +0.162 C 
BRANCH  18  19
ATOM     19  C   VAL A   1       4.193  -6.337  23.914  0.00  0.00    +0.236 C 
ATOM     20  N   PRO A   2       2.812  -6.217  23.889  0.00  0.00    -0.295 N 
ATOM     21  CA  PRO A   2       1.956  -7.079  24.732  0.00  0.00    +0.101 C 
ATOM     22  CB  PRO A   2       0.588  -6.376  24.765  0.00  0.00    +0.026 C 
ATOM     23  CG  PRO A   2       0.882  -4.951  24.327  0.00  0.00    +0.021 C 
ATOM     24  CD  PRO A   2       2.041  -5.106  23.352  0.00  0.00    +0.108 C 
ATOM     25  O   VAL A   1       4.736  -7.225  24.583  0.00  0.00    -0.274 OA
BRANCH  21  26
ATOM     26  C   PRO A   2       1.831  -8.518  24.203  0.00  0.00    +0.178 C 
BRANCH  26  27
ATOM     27  O   PRO A   2       2.510  -9.443  25.060  0.00  0.00    -0.393 OA
ATOM     28  H   PRO A   2       3.455  -9.216  24.999  0.00  0.00    +0.209 HD
ENDBRANCH  26  27
ENDBRANCH  21  26
ENDBRANCH  18  19
BRANCH  18  29
ATOM     29  CB  VAL A   1       6.092  -6.189  22.194  0.00  0.00    +0.012 C 
ATOM     30  CG2 VAL A   1       7.527  -6.030  22.713  0.00  0.00    +0.009 C 
ATOM     31  CG1 VAL A   1       6.058  -5.817  20.705  0.00  0.00    +0.009 C 
ENDBRANCH  18  29
ENDBRANCH   2  18
TORSDOF 13
ENDMDL
MODEL 8
REMARK VINA RESULT:      -5.8      1.669      2.314
REMARK  Name = 
REMARK  16 active torsions:
REMARK  status: ('A' for Active; 'I' for Inactive)
REMARK    1  A    between atoms: C_2  and  C_3
REMARK    2  A    between atoms: C_2  and  C_8
REMARK    3  A    between atoms: C_2  and  C_13
REMARK    4  A    between atoms: C_3  and  C_4
REMARK    5  A    between atoms: C_4  and  C_5
REMARK    6  A    between atoms: C_5  and  C_6
REMARK    7  A    between atoms: C_6  and  C_7
REMARK    8  A    between atoms: C_8  and  C_9
REMARK    9  A    between atoms: N_11  and  O_12
REMARK   10  A    between atoms: N_15  and  CA_16
REMARK   11  A    between atoms: CA_16  and  CB_18
REMARK   12  A    between atoms: CA_16  and  C_21
REMARK   13  A    between atoms: CB_18  and  CG1_19
REMARK   14  A    between atoms: CB_18  and  CG2_20
REMARK   15  A    between atoms: CA_27  and  C_29
REMARK   16  A    between atoms: C_29  and  O_30
REMARK                            x       y       z     vdW  Elec       q    Type
REMARK                         _______ _______ _______ _____ _____    ______ ____
ROOT
ATOM      1  C   UNK A   0       7.963  -0.713  22.749  0.00  0.00    +0.217 C 
ATOM      2  N   VAL A   1       7.634  -1.223  23.982  0.00  0.00    -0.304 N 
ATOM      3  H   VAL A   1       7.085  -0.675  24.639  0.00  0.00    +0.149 HD
ATOM      4  O   UNK A   0       8.508  -1.392  21.880  0.00  0.00    -0.275 OA
ENDROOT
BRANCH   1   5
ATOM      5  C   UNK A   0       7.577   0.749  22.513  0.00  0.00    +0.084 C 
BRANCH   5   6
ATOM      6  C   UNK A   0       7.056   1.313  23.850  0.00  0.00    +0.110 C 
BRANCH   6   7
ATOM      7  C   UNK A   0       5.603   1.736  23.835  0.00  0.00    +0.236 C 
ATOM      8  N   UNK A   0       5.231   2.380  22.677  0.00  0.00    -0.197 N 
ATOM      9  H   UNK A   0       5.889   2.776  22.014  0.00  0.00    +0.182 HD
ATOM     10  O   UNK A   0       4.813   1.545  24.756  0.00  0.00    -0.274 OA
BRANCH   8  11
ATOM     11  O   UNK A   0       3.900   2.852  22.617  0.00  0.00    -0.295 OA
ATOM     12  H   UNK A   0       3.997   3.694  22.119  0.00  0.00    +0.241 HD
ENDBRANCH   8  11
ENDBRANCH   6   7
ENDBRANCH   5   6
BRANCH   5  13
ATOM     13  C   UNK A   0       8.799   1.548  22.030  0.00  0.00    +0.013 C 
BRANCH  13  14
ATOM     14  C   UNK A   0       9.159   2.733  22.928  0.00  0.00    +0.001 C 
BRANCH  14  15
ATOM     15  C   UNK A   0      10.525   2.544  23.584  0.00  0.00    -0.000 C 
BRANCH  15  16
ATOM     16  C   UNK A   0      10.907   1.066  23.606  0.00  0.00    -0.003 C 
ATOM     17  C   UNK A   0      10.723   0.471  24.990  0.00  0.00    +0.004 C 
ENDBRANCH  15  16
ENDBRANCH  14  15
ENDBRANCH  13  14
ENDBRANCH   5  13
ENDBRANCH   1   5
BRANCH   2  18
ATOM     18  CA  VAL A   1       7.945  -2.601  24.394  0.00  0.00    +0.162 C 
BRANCH  18  19
ATOM     19  C   VAL A   1       6.620  -3.428  24.391  0.00  0.00    +0.236 C 
ATOM     20  N   PRO A   2       6.542  -4.598  23.650  0.00  0.00    -0.295 N 
ATOM     21  CA  PRO A   2       5.292  -5.385  23.597  0.00  0.00    +0.101 C 
ATOM     22  CB  PRO A   2       5.453  -6.312  22.381  0.00  0.00    +0.026 C 
ATOM     23  CG  PRO A   2       6.567  -5.679  21.564  0.00  0.00    +0.021 C 
ATOM     24  CD  PRO A   2       7.465  -5.041  22.616  0.00  0.00    +0.108 C 
ATOM     25  O   VAL A   1       5.667  -3.060  25.089  0.00  0.00    -0.274 OA
BRANCH  21  26
ATOM     26  C   PRO A   2       5.022  -6.189  24.880  0.00  0.00    +0.178 C 
BRANCH  26  27
ATOM     27  O   PRO A   2       4.079  -5.517  25.722  0.00  0.00    -0.393 OA
ATOM     28  H   PRO A   2       3.693  -4.811  25.176  0.00  0.00    +0.209 HD
ENDBRANCH  26  27
ENDBRANCH  21  26
ENDBRANCH  18  19
BRANCH  18  29
ATOM     29  CB  VAL A   1       8.624  -2.644  25.789  0.00  0.00    +0.012 C 
ATOM     30  CG2 VAL A   1       8.444  -4.000  26.482  0.00  0.00    +0.009 C 
ATOM     31  CG1 VAL A   1       8.127  -1.536  26.726  0.00  0.00    +0.009 C 
ENDBRANCH  18  29
ENDBRANCH   2  18
TORSDOF 13
ENDMDL
MODEL 9
REMARK VINA RESULT:      -5.8      2.778      7.783
REMARK  Name = 
REMARK  16 active torsions:
REMARK  status: ('A' for Active; 'I' for Inactive)
REMARK    1  A    between atoms: C_2  and  C_3
REMARK    2  A    between atoms: C_2  and  C_8
REMARK    3  A    between atoms: C_2  and  C_13
REMARK    4  A    between atoms: C_3  and  C_4
REMARK    5  A    between atoms: C_4  and  C_5
REMARK    6  A    between atoms: C_5  and  C_6
REMARK    7  A    between atoms: C_6  and  C_7
REMARK    8  A    between atoms: C_8  and  C_9
REMARK    9  A    between atoms: N_11  and  O_12
REMARK   10  A    between atoms: N_15  and  CA_16
REMARK   11  A    between atoms: CA_16  and  CB_18
REMARK   12  A    between atoms: CA_16  and  C_21
REMARK   13  A    between atoms: CB_18  and  CG1_19
REMARK   14  A    between atoms: CB_18  and  CG2_20
REMARK   15  A    between atoms: CA_27  and  C_29
REMARK   16  A    between atoms: C_29  and  O_30
REMARK                            x       y       z     vdW  Elec       q    Type
REMARK                         _______ _______ _______ _____ _____    ______ ____
ROOT
ATOM      1  C   UNK A   0       6.723  -2.408  26.001  0.00  0.00    +0.217 C 
ATOM      2  N   VAL A   1       7.461  -2.275  24.850  0.00  0.00    -0.304 N 
ATOM      3  H   VAL A   1       7.313  -2.903  24.064  0.00  0.00    +0.149 HD
ATOM      4  O   UNK A   0       6.780  -1.589  26.917  0.00  0.00    -0.275 OA
ENDROOT
BRANCH   1   5
ATOM      5  C   UNK A   0       5.800  -3.627  26.058  0.00  0.00    +0.084 C 
BRANCH   5   6
ATOM      6  C   UNK A   0       5.679  -4.050  27.536  0.00  0.00    +0.110 C 
BRANCH   6   7
ATOM      7  C   UNK A   0       6.150  -5.456  27.832  0.00  0.00    +0.236 C 
ATOM      8  N   UNK A   0       5.122  -6.343  28.060  0.00  0.00    -0.197 N 
ATOM      9  H   UNK A   0       4.172  -6.063  28.275  0.00  0.00    +0.182 HD
ATOM     10  O   UNK A   0       7.329  -5.799  27.883  0.00  0.00    -0.274 OA
BRANCH   8  11
ATOM     11  O   UNK A   0       5.492  -7.665  28.397  0.00  0.00    -0.295 OA
ATOM     12  H   UNK A   0       5.422  -7.660  29.377  0.00  0.00    +0.241 HD
ENDBRANCH   8  11
ENDBRANCH   6   7
ENDBRANCH   5   6
BRANCH   5  13
ATOM     13  C   UNK A   0       4.419  -3.272  25.483  0.00  0.00    +0.013 C 
BRANCH  13  14
ATOM     14  C   UNK A   0       3.972  -4.181  24.336  0.00  0.00    +0.001 C 
BRANCH  14  15
ATOM     15  C   UNK A   0       4.858  -4.006  23.106  0.00  0.00    -0.000 C 
BRANCH  15  16
ATOM     16  C   UNK A   0       5.509  -5.332  22.721  0.00  0.00    -0.003 C 
ATOM     17  C   UNK A   0       7.022  -5.218  22.708  0.00  0.00    +0.004 C 
ENDBRANCH  15  16
ENDBRANCH  14  15
ENDBRANCH  13  14
ENDBRANCH   5  13
ENDBRANCH   1   5
BRANCH   2  18
ATOM     18  CA  VAL A   1       8.417  -1.178  24.626  0.00  0.00    +0.162 C 
BRANCH  18  19
ATOM     19  C   VAL A   1       7.733  -0.104  23.721  0.00  0.00    +0.236 C 
ATOM     20  N   PRO A   2       8.165   1.212  23.771  0.00  0.00    -0.295 N 
ATOM     21  CA  PRO A   2       7.516   2.260  22.955  0.00  0.00    +0.101 C 
ATOM     22  CB  PRO A   2       7.953   3.591  23.589  0.00  0.00    +0.026 C 
ATOM     23  CG  PRO A   2       8.439   3.209  24.978  0.00  0.00    +0.021 C 
ATOM     24  CD  PRO A   2       9.018   1.815  24.785  0.00  0.00    +0.108 C 
ATOM     25  O   VAL A   1       6.844  -0.445  22.931  0.00  0.00    -0.274 OA
BRANCH  21  26
ATOM     26  C   PRO A   2       7.899   2.199  21.466  0.00  0.00    +0.178 C 
BRANCH  26  27
ATOM     27  O   PRO A   2       9.313   2.043  21.303  0.00  0.00    -0.393 OA
ATOM     28  H   PRO A   2       9.430   1.251  20.750  0.00  0.00    +0.209 HD
ENDBRANCH  26  27
ENDBRANCH  21  26
ENDBRANCH  18  19
BRANCH  18  29
ATOM     29  CB  VAL A   1       9.735  -1.687  23.984  0.00  0.00    +0.012 C 
ATOM     30  CG2 VAL A   1       9.828  -1.341  22.493  0.00  0.00    +0.009 C 
ATOM     31  CG1 VAL A   1       9.936  -3.199  24.157  0.00  0.00    +0.009 C 
ENDBRANCH  18  29
ENDBRANCH   2  18
TORSDOF 13
ENDMDL
