MODEL 1
REMARK VINA RESULT:      -7.5      0.000      0.000
REMARK  Name = 
REMARK  13 active torsions:
REMARK  status: ('A' for Active; 'I' for Inactive)
REMARK    1  A    between atoms: N_8  and  C_9
REMARK    2  A    between atoms: C_12  and  O_14
REMARK    3  A    between atoms: C_15  and  C_17
REMARK    4  A    between atoms: C_17  and  O_18
REMARK    5  A    between atoms: O_18  and  P_19
REMARK    6  A    between atoms: P_19  and  O_20
REMARK    7  A    between atoms: P_19  and  O_22
REMARK    8  A    between atoms: O_22  and  P_23
REMARK    9  A    between atoms: P_23  and  O_24
REMARK   10  A    between atoms: P_23  and  O_26
REMARK   11  A    between atoms: O_26  and  P_27
REMARK   12  A    between atoms: P_27  and  O_28
REMARK   13  A    between atoms: P_27  and  O_29
REMARK                            x       y       z     vdW  Elec       q    Type
REMARK                         _______ _______ _______ _____ _____    ______ ____
ROOT
ATOM      1  C   UNL     1       9.087   1.192  23.189  0.00  0.00    +0.225 C 
ATOM      2  O   UNL     1       9.917   0.460  24.118  0.00  0.00    -0.348 OA
ATOM      3  C   UNL     1      10.134  -0.851  23.544  0.00  0.00    +0.175 C 
ATOM      4  C   UNL     1       9.489  -0.838  22.149  0.00  0.00    +0.150 C 
ATOM      5  C   UNL     1       9.450   0.638  21.829  0.00  0.00    +0.088 C 
ENDROOT
BRANCH   1  17
ATOM      6  N   UNL     1       5.031   4.344  22.237  0.00  0.00    -0.329 N 
ATOM      7  H   UNL     1       4.387   5.020  22.624  0.00  0.00    +0.145 HD
ATOM      8  H   UNL     1       4.668   3.396  22.255  0.00  0.00    +0.145 HD
ATOM      9  C   UNL     1       6.327   4.415  22.625  0.00  0.00    +0.195 A 
ATOM     10  N   UNL     1       6.809   5.678  22.908  0.00  0.00    -0.293 N 
ATOM     11  H   UNL     1       6.224   6.487  22.773  0.00  0.00    +0.172 HD
ATOM     12  C   UNL     1       8.110   5.956  23.308  0.00  0.00    +0.280 A 
ATOM     13  O   UNL     1       8.490   7.100  23.525  0.00  0.00    -0.265 OA
ATOM     14  C   UNL     1       8.912   4.757  23.424  0.00  0.00    +0.172 A 
ATOM     15  N   UNL     1      10.221   4.581  23.791  0.00  0.00    -0.229 NA
ATOM     16  C   UNL     1      10.410   3.277  23.732  0.00  0.00    +0.203 A 
ATOM     17  N   UNL     1       9.279   2.613  23.338  0.00  0.00    -0.288 N 
ATOM     18  C   UNL     1       8.310   3.556  23.131  0.00  0.00    +0.171 A 
ATOM     19  N   UNL     1       7.039   3.323  22.727  0.00  0.00    -0.196 NA
ENDBRANCH   1  17
BRANCH   4  20
ATOM     20  O   UNL     1      10.198  -1.563  21.161  0.00  0.00    -0.389 OA
ATOM     21  H   UNL     1      11.093  -1.197  21.068  0.00  0.00    +0.210 HD
ENDBRANCH   4  20
BRANCH   3  22
ATOM     22  C   UNL     1       9.528  -1.894  24.479  0.00  0.00    +0.206 C 
BRANCH  22  23
ATOM     23  O   UNL     1       9.803  -3.211  24.033  0.00  0.00    -0.284 OA
BRANCH  23  24
ATOM     24  P   UNL     1       8.888  -4.403  24.888  0.00  0.00    +0.483 P 
ATOM     25  O   UNL     1       9.055  -3.584  26.165  0.00  0.00    -0.227 OA
BRANCH  24  26
ATOM     26  O   UNL     1      10.195  -5.385  24.887  0.00  0.00    -0.302 OA
ATOM     27  H   UNL     1       9.871  -6.260  24.592  0.00  0.00    +0.222 HD
ENDBRANCH  24  26
BRANCH  24  28
ATOM     28  O   UNL     1       7.974  -5.596  25.745  0.00  0.00    -0.186 OA
BRANCH  28  29
ATOM     29  P   UNL     1       6.298  -5.202  25.573  0.00  0.00    +0.492 P 
ATOM     30  O   UNL     1       5.931  -4.205  26.672  0.00  0.00    -0.226 OA
BRANCH  29  31
ATOM     31  O   UNL     1       6.716  -3.871  24.550  0.00  0.00    -0.302 OA
ATOM     32  H   UNL     1       6.653  -3.079  25.121  0.00  0.00    +0.222 HD
ENDBRANCH  29  31
BRANCH  29  33
ATOM     33  O   UNL     1       5.879  -6.533  26.596  0.00  0.00    -0.186 OA
BRANCH  33  34
ATOM     34  P   UNL     1       5.850  -6.007  28.244  0.00  0.00    +0.481 P 
ATOM     35  O   UNL     1       5.823  -5.535  29.719  0.00  0.00    -0.227 OA
BRANCH  34  36
ATOM     36  O   UNL     1       7.440  -6.393  28.237  0.00  0.00    -0.302 OA
ATOM     37  H   UNL     1       7.932  -5.801  27.641  0.00  0.00    +0.222 HD
ENDBRANCH  34  36
BRANCH  34  38
ATOM     38  O   UNL     1       5.331  -7.516  28.610  0.00  0.00    -0.302 OA
ATOM     39  H   UNL     1       4.829  -7.385  29.449  0.00  0.00    +0.222 HD
ENDBRANCH  34  38
ENDBRANCH  33  34
ENDBRANCH  29  33
ENDBRANCH  28  29
ENDBRANCH  24  28
ENDBRANCH  23  24
ENDBRANCH  22  23
ENDBRANCH   3  22
TORSDOF 13
ENDMDL
MODEL 2
REMARK VINA RESULT:      -7.5      0.775      2.053
REMARK  Name = 
REMARK  13 active torsions:
REMARK  status: ('A' for Active; 'I' for Inactive)
REMARK    1  A    between atoms: N_8  and  C_9
REMARK    2  A    between atoms: C_12  and  O_14
REMARK    3  A    between atoms: C_15  and  C_17
REMARK    4  A    between atoms: C_17  and  O_18
REMARK    5  A    between atoms: O_18  and  P_19
REMARK    6  A    between atoms: P_19  and  O_20
REMARK    7  A    between atoms: P_19  and  O_22
REMARK    8  A    between atoms: O_22  and  P_23
REMARK    9  A    between atoms: P_23  and  O_24
REMARK   10  A    between atoms: P_23  and  O_26
REMARK   11  A    between atoms: O_26  and  P_27
REMARK   12  A    between atoms: P_27  and  O_28
REMARK   13  A    between atoms: P_27  and  O_29
REMARK                            x       y       z     vdW  Elec       q    Type
REMARK                         _______ _______ _______ _____ _____    ______ ____
ROOT
ATOM      1  C   UNL     1       8.202   1.022  23.222  0.00  0.00    +0.225 C 
ATOM      2  O   UNL     1       9.142   0.622  24.243  0.00  0.00    -0.348 OA
ATOM      3  C   UNL     1       9.793  -0.580  23.766  0.00  0.00    +0.175 C 
ATOM      4  C   UNL     1       9.284  -0.824  22.337  0.00  0.00    +0.150 C 
ATOM      5  C   UNL     1       8.820   0.553  21.924  0.00  0.00    +0.088 C 
ENDROOT
BRANCH   1  17
ATOM      6  N   UNL     1      12.276   4.286  23.408  0.00  0.00    -0.329 N 
ATOM      7  H   UNL     1      12.772   5.034  22.943  0.00  0.00    +0.145 HD
ATOM      8  H   UNL     1      12.646   3.367  23.185  0.00  0.00    +0.145 HD
ATOM      9  C   UNL     1      10.923   4.323  23.392  0.00  0.00    +0.195 A 
ATOM     10  N   UNL     1      10.348   5.578  23.396  0.00  0.00    -0.293 N 
ATOM     11  H   UNL     1      10.925   6.401  23.460  0.00  0.00    +0.172 HD
ATOM     12  C   UNL     1       8.980   5.821  23.393  0.00  0.00    +0.280 A 
ATOM     13  O   UNL     1       8.524   6.958  23.419  0.00  0.00    -0.265 OA
ATOM     14  C   UNL     1       8.209   4.597  23.360  0.00  0.00    +0.172 A 
ATOM     15  N   UNL     1       6.855   4.385  23.339  0.00  0.00    -0.229 NA
ATOM     16  C   UNL     1       6.725   3.073  23.296  0.00  0.00    +0.203 A 
ATOM     17  N   UNL     1       7.938   2.438  23.294  0.00  0.00    -0.288 N 
ATOM     18  C   UNL     1       8.901   3.408  23.341  0.00  0.00    +0.171 A 
ATOM     19  N   UNL     1      10.239   3.208  23.360  0.00  0.00    -0.196 NA
ENDBRANCH   1  17
BRANCH   4  20
ATOM     20  O   UNL     1      10.254  -1.334  21.441  0.00  0.00    -0.389 OA
ATOM     21  H   UNL     1      10.243  -0.815  20.619  0.00  0.00    +0.210 HD
ENDBRANCH   4  20
BRANCH   3  22
ATOM     22  C   UNL     1       9.464  -1.720  24.726  0.00  0.00    +0.206 C 
BRANCH  22  23
ATOM     23  O   UNL     1       9.734  -2.983  24.140  0.00  0.00    -0.284 OA
BRANCH  23  24
ATOM     24  P   UNL     1       8.847  -4.263  24.892  0.00  0.00    +0.483 P 
ATOM     25  O   UNL     1       9.013  -3.561  26.236  0.00  0.00    -0.227 OA
BRANCH  24  26
ATOM     26  O   UNL     1      10.169  -5.218  24.791  0.00  0.00    -0.302 OA
ATOM     27  H   UNL     1      10.769  -4.919  25.505  0.00  0.00    +0.222 HD
ENDBRANCH  24  26
BRANCH  24  28
ATOM     28  O   UNL     1       7.960  -5.544  25.645  0.00  0.00    -0.186 OA
BRANCH  28  29
ATOM     29  P   UNL     1       6.279  -5.146  25.558  0.00  0.00    +0.492 P 
ATOM     30  O   UNL     1       5.965  -4.169  26.690  0.00  0.00    -0.226 OA
BRANCH  29  31
ATOM     31  O   UNL     1       6.651  -3.797  24.541  0.00  0.00    -0.302 OA
ATOM     32  H   UNL     1       5.829  -3.266  24.508  0.00  0.00    +0.222 HD
ENDBRANCH  29  31
BRANCH  29  33
ATOM     33  O   UNL     1       5.906  -6.495  26.575  0.00  0.00    -0.186 OA
BRANCH  33  34
ATOM     34  P   UNL     1       5.884  -5.983  28.227  0.00  0.00    +0.481 P 
ATOM     35  O   UNL     1       5.863  -5.524  29.706  0.00  0.00    -0.227 OA
BRANCH  34  36
ATOM     36  O   UNL     1       7.488  -6.302  28.190  0.00  0.00    -0.302 OA
ATOM     37  H   UNL     1       7.793  -6.620  29.059  0.00  0.00    +0.222 HD
ENDBRANCH  34  36
BRANCH  34  38
ATOM     38  O   UNL     1       5.435  -7.515  28.590  0.00  0.00    -0.302 OA
ATOM     39  H   UNL     1       4.450  -7.476  28.551  0.00  0.00    +0.222 HD
ENDBRANCH  34  38
ENDBRANCH  33  34
ENDBRANCH  29  33
ENDBRANCH  28  29
ENDBRANCH  24  28
ENDBRANCH  23  24
ENDBRANCH  22  23
ENDBRANCH   3  22
TORSDOF 13
ENDMDL
MODEL 3
REMARK VINA RESULT:      -7.4      2.094      3.023
REMARK  Name = 
REMARK  13 active torsions:
REMARK  status: ('A' for Active; 'I' for Inactive)
REMARK    1  A    between atoms: N_8  and  C_9
REMARK    2  A    between atoms: C_12  and  O_14
REMARK    3  A    between atoms: C_15  and  C_17
REMARK    4  A    between atoms: C_17  and  O_18
REMARK    5  A    between atoms: O_18  and  P_19
REMARK    6  A    between atoms: P_19  and  O_20
REMARK    7  A    between atoms: P_19  and  O_22
REMARK    8  A    between atoms: O_22  and  P_23
REMARK    9  A    between atoms: P_23  and  O_24
REMARK   10  A    between atoms: P_23  and  O_26
REMARK   11  A    between atoms: O_26  and  P_27
REMARK   12  A    between atoms: P_27  and  O_28
REMARK   13  A    between atoms: P_27  and  O_29
REMARK                            x       y       z     vdW  Elec       q    Type
REMARK                         _______ _______ _______ _____ _____    ______ ____
ROOT
ATOM      1  C   UNL     1       9.039  -0.386  22.962  0.00  0.00    +0.225 C 
ATOM      2  O   UNL     1       7.747  -0.552  23.586  0.00  0.00    -0.348 OA
ATOM      3  C   UNL     1       7.533  -1.976  23.738  0.00  0.00    +0.175 C 
ATOM      4  C   UNL     1       8.826  -2.670  23.281  0.00  0.00    +0.150 C 
ATOM      5  C   UNL     1       9.851  -1.571  23.436  0.00  0.00    +0.088 C 
ENDROOT
BRANCH   1  17
ATOM      6  N   UNL     1       6.247   3.875  21.806  0.00  0.00    -0.329 N 
ATOM      7  H   UNL     1       5.770   4.688  22.171  0.00  0.00    +0.145 HD
ATOM      8  H   UNL     1       5.632   3.079  21.679  0.00  0.00    +0.145 HD
ATOM      9  C   UNL     1       7.432   3.537  22.367  0.00  0.00    +0.195 A 
ATOM     10  N   UNL     1       8.203   4.582  22.839  0.00  0.00    -0.293 N 
ATOM     11  H   UNL     1       7.900   5.534  22.711  0.00  0.00    +0.172 HD
ATOM     12  C   UNL     1       9.450   4.438  23.434  0.00  0.00    +0.280 A 
ATOM     13  O   UNL     1      10.101   5.403  23.816  0.00  0.00    -0.265 OA
ATOM     14  C   UNL     1       9.850   3.051  23.533  0.00  0.00    +0.172 A 
ATOM     15  N   UNL     1      10.980   2.474  24.051  0.00  0.00    -0.229 NA
ATOM     16  C   UNL     1      10.798   1.177  23.885  0.00  0.00    +0.203 A 
ATOM     17  N   UNL     1       9.601   0.903  23.279  0.00  0.00    -0.288 N 
ATOM     18  C   UNL     1       8.985   2.101  23.042  0.00  0.00    +0.171 A 
ATOM     19  N   UNL     1       7.780   2.279  22.451  0.00  0.00    -0.196 NA
ENDBRANCH   1  17
BRANCH   4  20
ATOM     20  O   UNL     1       9.180  -3.817  24.031  0.00  0.00    -0.389 OA
ATOM     21  H   UNL     1       9.962  -4.237  23.635  0.00  0.00    +0.210 HD
ENDBRANCH   4  20
BRANCH   3  22
ATOM     22  C   UNL     1       6.312  -2.371  22.913  0.00  0.00    +0.206 C 
BRANCH  22  23
ATOM     23  O   UNL     1       6.633  -3.374  21.963  0.00  0.00    -0.284 OA
BRANCH  23  24
ATOM     24  P   UNL     1       5.949  -4.910  22.366  0.00  0.00    +0.483 P 
ATOM     25  O   UNL     1       5.974  -5.285  20.887  0.00  0.00    -0.227 OA
BRANCH  24  26
ATOM     26  O   UNL     1       4.493  -4.194  22.557  0.00  0.00    -0.302 OA
ATOM     27  H   UNL     1       4.080  -4.189  21.669  0.00  0.00    +0.222 HD
ENDBRANCH  24  26
BRANCH  24  28
ATOM     28  O   UNL     1       5.264  -6.447  22.768  0.00  0.00    -0.186 OA
BRANCH  28  29
ATOM     29  P   UNL     1       5.076  -6.509  24.487  0.00  0.00    +0.492 P 
ATOM     30  O   UNL     1       4.022  -5.476  24.885  0.00  0.00    -0.226 OA
BRANCH  29  31
ATOM     31  O   UNL     1       3.814  -7.679  24.307  0.00  0.00    -0.302 OA
ATOM     32  H   UNL     1       3.523  -7.884  25.219  0.00  0.00    +0.222 HD
ENDBRANCH  29  31
BRANCH  29  33
ATOM     33  O   UNL     1       6.338  -5.340  24.668  0.00  0.00    -0.186 OA
BRANCH  33  34
ATOM     34  P   UNL     1       6.715  -5.152  26.346  0.00  0.00    +0.481 P 
ATOM     35  O   UNL     1       7.052  -4.984  27.848  0.00  0.00    -0.227 OA
BRANCH  34  36
ATOM     36  O   UNL     1       8.128  -5.876  25.953  0.00  0.00    -0.302 OA
ATOM     37  H   UNL     1       8.876  -5.272  26.109  0.00  0.00    +0.222 HD
ENDBRANCH  34  36
BRANCH  34  38
ATOM     38  O   UNL     1       5.892  -6.548  26.582  0.00  0.00    -0.302 OA
ATOM     39  H   UNL     1       6.166  -7.104  25.814  0.00  0.00    +0.222 HD
ENDBRANCH  34  38
ENDBRANCH  33  34
ENDBRANCH  29  33
ENDBRANCH  28  29
ENDBRANCH  24  28
ENDBRANCH  23  24
ENDBRANCH  22  23
ENDBRANCH   3  22
TORSDOF 13
ENDMDL
MODEL 4
REMARK VINA RESULT:      -7.3      5.956      9.638
REMARK  Name = 
REMARK  13 active torsions:
REMARK  status: ('A' for Active; 'I' for Inactive)
REMARK    1  A    between atoms: N_8  and  C_9
REMARK    2  A    between atoms: C_12  and  O_14
REMARK    3  A    between atoms: C_15  and  C_17
REMARK    4  A    between atoms: C_17  and  O_18
REMARK    5  A    between atoms: O_18  and  P_19
REMARK    6  A    between atoms: P_19  and  O_20
REMARK    7  A    between atoms: P_19  and  O_22
REMARK    8  A    between atoms: O_22  and  P_23
REMARK    9  A    between atoms: P_23  and  O_24
REMARK   10  A    between atoms: P_23  and  O_26
REMARK   11  A    between atoms: O_26  and  P_27
REMARK   12  A    between atoms: P_27  and  O_28
REMARK   13  A    between atoms: P_27  and  O_29
REMARK                            x       y       z     vdW  Elec       q    Type
REMARK                         _______ _______ _______ _____ _____    ______ ____
ROOT
ATOM      1  C   UNL     1       6.890  -3.774  24.304  0.00  0.00    +0.225 C 
ATOM      2  O   UNL     1       6.863  -2.579  23.493  0.00  0.00    -0.348 OA
ATOM      3  C   UNL     1       8.199  -2.023  23.520  0.00  0.00    +0.175 C 
ATOM      4  C   UNL     1       9.079  -3.016  24.296  0.00  0.00    +0.150 C 
ATOM      5  C   UNL     1       8.301  -4.304  24.162  0.00  0.00    +0.088 C 
ENDROOT
BRANCH   1  17
ATOM      6  N   UNL     1       5.158  -7.233  27.815  0.00  0.00    -0.329 N 
ATOM      7  H   UNL     1       4.366  -7.551  28.357  0.00  0.00    +0.145 HD
ATOM      8  H   UNL     1       5.742  -6.573  28.317  0.00  0.00    +0.145 HD
ATOM      9  C   UNL     1       4.933  -6.862  26.532  0.00  0.00    +0.195 A 
ATOM     10  N   UNL     1       3.926  -7.537  25.870  0.00  0.00    -0.293 N 
ATOM     11  H   UNL     1       3.439  -8.293  26.323  0.00  0.00    +0.172 HD
ATOM     12  C   UNL     1       3.557  -7.308  24.550  0.00  0.00    +0.280 A 
ATOM     13  O   UNL     1       2.668  -7.953  24.006  0.00  0.00    -0.265 OA
ATOM     14  C   UNL     1       4.335  -6.251  23.942  0.00  0.00    +0.172 A 
ATOM     15  N   UNL     1       4.291  -5.711  22.682  0.00  0.00    -0.229 NA
ATOM     16  C   UNL     1       5.217  -4.771  22.692  0.00  0.00    +0.203 A 
ATOM     17  N   UNL     1       5.853  -4.692  23.902  0.00  0.00    -0.288 N 
ATOM     18  C   UNL     1       5.298  -5.643  24.713  0.00  0.00    +0.171 A 
ATOM     19  N   UNL     1       5.643  -5.904  25.995  0.00  0.00    -0.196 NA
ENDBRANCH   1  17
BRANCH   4  20
ATOM     20  O   UNL     1      10.397  -3.153  23.800  0.00  0.00    -0.389 OA
ATOM     21  H   UNL     1      10.986  -3.445  24.516  0.00  0.00    +0.210 HD
ENDBRANCH   4  20
BRANCH   3  22
ATOM     22  C   UNL     1       8.134  -0.642  24.167  0.00  0.00    +0.206 C 
BRANCH  22  23
ATOM     23  O   UNL     1       6.802  -0.294  24.509  0.00  0.00    -0.284 OA
BRANCH  23  24
ATOM     24  P   UNL     1       6.411   1.333  24.070  0.00  0.00    +0.483 P 
ATOM     25  O   UNL     1       5.055   1.167  24.752  0.00  0.00    -0.227 OA
BRANCH  24  26
ATOM     26  O   UNL     1       6.135   0.837  22.538  0.00  0.00    -0.302 OA
ATOM     27  H   UNL     1       6.523   1.526  21.961  0.00  0.00    +0.222 HD
ENDBRANCH  24  26
BRANCH  24  28
ATOM     28  O   UNL     1       6.018   2.960  23.632  0.00  0.00    -0.186 OA
BRANCH  28  29
ATOM     29  P   UNL     1       7.365   3.614  22.765  0.00  0.00    +0.492 P 
ATOM     30  O   UNL     1       7.432   2.922  21.404  0.00  0.00    -0.226 OA
BRANCH  29  31
ATOM     31  O   UNL     1       6.333   4.815  22.067  0.00  0.00    -0.302 OA
ATOM     32  H   UNL     1       5.428   4.571  22.352  0.00  0.00    +0.222 HD
ENDBRANCH  29  31
BRANCH  29  33
ATOM     33  O   UNL     1       8.397   2.414  23.462  0.00  0.00    -0.186 OA
BRANCH  33  34
ATOM     34  P   UNL     1      10.034   2.974  23.435  0.00  0.00    +0.481 P 
ATOM     35  O   UNL     1      11.499   3.473  23.411  0.00  0.00    -0.227 OA
BRANCH  34  36
ATOM     36  O   UNL     1       9.376   4.410  23.012  0.00  0.00    -0.302 OA
ATOM     37  H   UNL     1       8.480   4.283  22.652  0.00  0.00    +0.222 HD
ENDBRANCH  34  36
BRANCH  34  38
ATOM     38  O   UNL     1      10.102   2.385  21.908  0.00  0.00    -0.302 OA
ATOM     39  H   UNL     1      10.459   3.144  21.389  0.00  0.00    +0.222 HD
ENDBRANCH  34  38
ENDBRANCH  33  34
ENDBRANCH  29  33
ENDBRANCH  28  29
ENDBRANCH  24  28
ENDBRANCH  23  24
ENDBRANCH  22  23
ENDBRANCH   3  22
TORSDOF 13
ENDMDL
MODEL 5
REMARK VINA RESULT:      -7.3      2.530      4.013
REMARK  Name = 
REMARK  13 active torsions:
REMARK  status: ('A' for Active; 'I' for Inactive)
REMARK    1  A    between atoms: N_8  and  C_9
REMARK    2  A    between atoms: C_12  and  O_14
REMARK    3  A    between atoms: C_15  and  C_17
REMARK    4  A    between atoms: C_17  and  O_18
REMARK    5  A    between atoms: O_18  and  P_19
REMARK    6  A    between atoms: P_19  and  O_20
REMARK    7  A    between atoms: P_19  and  O_22
REMARK    8  A    between atoms: O_22  and  P_23
REMARK    9  A    between atoms: P_23  and  O_24
REMARK   10  A    between atoms: P_23  and  O_26
REMARK   11  A    between atoms: O_26  and  P_27
REMARK   12  A    between atoms: P_27  and  O_28
REMARK   13  A    between atoms: P_27  and  O_29
REMARK                            x       y       z     vdW  Elec       q    Type
REMARK                         _______ _______ _______ _____ _____    ______ ____
ROOT
ATOM      1  C   UNL     1       8.674  -1.774  22.569  0.00  0.00    +0.225 C 
ATOM      2  O   UNL     1       7.239  -1.897  22.457  0.00  0.00    -0.348 OA
ATOM      3  C   UNL     1       6.881  -3.176  23.033  0.00  0.00    +0.175 C 
ATOM      4  C   UNL     1       8.169  -3.777  23.617  0.00  0.00    +0.150 C 
ATOM      5  C   UNL     1       9.031  -2.553  23.817  0.00  0.00    +0.088 C 
ENDROOT
BRANCH   1  17
ATOM      6  N   UNL     1       7.492   1.093  26.773  0.00  0.00    -0.329 N 
ATOM      7  H   UNL     1       7.854   1.628  27.551  0.00  0.00    +0.145 HD
ATOM      8  H   UNL     1       7.298   0.126  27.014  0.00  0.00    +0.145 HD
ATOM      9  C   UNL     1       8.116   1.220  25.578  0.00  0.00    +0.195 A 
ATOM     10  N   UNL     1       8.672   2.455  25.309  0.00  0.00    -0.293 N 
ATOM     11  H   UNL     1       8.559   3.215  25.960  0.00  0.00    +0.172 HD
ATOM     12  C   UNL     1       9.340   2.782  24.136  0.00  0.00    +0.280 A 
ATOM     13  O   UNL     1       9.796   3.903  23.942  0.00  0.00    -0.265 OA
ATOM     14  C   UNL     1       9.416   1.664  23.222  0.00  0.00    +0.172 A 
ATOM     15  N   UNL     1       9.985   1.553  21.979  0.00  0.00    -0.229 NA
ATOM     16  C   UNL     1       9.762   0.302  21.622  0.00  0.00    +0.203 A 
ATOM     17  N   UNL     1       9.072  -0.388  22.582  0.00  0.00    -0.288 N 
ATOM     18  C   UNL     1       8.838   0.479  23.613  0.00  0.00    +0.171 A 
ATOM     19  N   UNL     1       8.178   0.199  24.762  0.00  0.00    -0.196 NA
ENDBRANCH   1  17
BRANCH   4  20
ATOM     20  O   UNL     1       7.995  -4.490  24.827  0.00  0.00    -0.389 OA
ATOM     21  H   UNL     1       7.197  -5.042  24.768  0.00  0.00    +0.210 HD
ENDBRANCH   4  20
BRANCH   3  22
ATOM     22  C   UNL     1       6.254  -4.038  21.941  0.00  0.00    +0.206 C 
BRANCH  22  23
ATOM     23  O   UNL     1       4.935  -4.428  22.284  0.00  0.00    -0.284 OA
BRANCH  23  24
ATOM     24  P   UNL     1       4.901  -5.851  23.266  0.00  0.00    +0.483 P 
ATOM     25  O   UNL     1       5.887  -6.511  22.307  0.00  0.00    -0.227 OA
BRANCH  24  26
ATOM     26  O   UNL     1       3.440  -6.231  22.639  0.00  0.00    -0.302 OA
ATOM     27  H   UNL     1       2.882  -5.436  22.761  0.00  0.00    +0.222 HD
ENDBRANCH  24  26
BRANCH  24  28
ATOM     28  O   UNL     1       4.867  -7.276  24.248  0.00  0.00    -0.186 OA
BRANCH  28  29
ATOM     29  P   UNL     1       4.386  -6.808  25.843  0.00  0.00    +0.492 P 
ATOM     30  O   UNL     1       3.801  -5.399  25.766  0.00  0.00    -0.226 OA
BRANCH  29  31
ATOM     31  O   UNL     1       2.805  -7.446  25.554  0.00  0.00    -0.302 OA
ATOM     32  H   UNL     1       2.752  -8.258  26.100  0.00  0.00    +0.222 HD
ENDBRANCH  29  31
BRANCH  29  33
ATOM     33  O   UNL     1       5.968  -6.170  26.132  0.00  0.00    -0.186 OA
BRANCH  33  34
ATOM     34  P   UNL     1       6.105  -5.698  27.791  0.00  0.00    +0.481 P 
ATOM     35  O   UNL     1       6.228  -5.277  29.276  0.00  0.00    -0.227 OA
BRANCH  34  36
ATOM     36  O   UNL     1       6.139  -4.174  27.198  0.00  0.00    -0.302 OA
ATOM     37  H   UNL     1       6.936  -3.705  27.506  0.00  0.00    +0.222 HD
ENDBRANCH  34  36
BRANCH  34  38
ATOM     38  O   UNL     1       7.714  -5.958  27.626  0.00  0.00    -0.302 OA
ATOM     39  H   UNL     1       7.841  -6.848  28.033  0.00  0.00    +0.222 HD
ENDBRANCH  34  38
ENDBRANCH  33  34
ENDBRANCH  29  33
ENDBRANCH  28  29
ENDBRANCH  24  28
ENDBRANCH  23  24
ENDBRANCH  22  23
ENDBRANCH   3  22
TORSDOF 13
ENDMDL
MODEL 6
REMARK VINA RESULT:      -7.2      2.877      4.148
REMARK  Name = 
REMARK  13 active torsions:
REMARK  status: ('A' for Active; 'I' for Inactive)
REMARK    1  A    between atoms: N_8  and  C_9
REMARK    2  A    between atoms: C_12  and  O_14
REMARK    3  A    between atoms: C_15  and  C_17
REMARK    4  A    between atoms: C_17  and  O_18
REMARK    5  A    between atoms: O_18  and  P_19
REMARK    6  A    between atoms: P_19  and  O_20
REMARK    7  A    between atoms: P_19  and  O_22
REMARK    8  A    between atoms: O_22  and  P_23
REMARK    9  A    between atoms: P_23  and  O_24
REMARK   10  A    between atoms: P_23  and  O_26
REMARK   11  A    between atoms: O_26  and  P_27
REMARK   12  A    between atoms: P_27  and  O_28
REMARK   13  A    between atoms: P_27  and  O_29
REMARK                            x       y       z     vdW  Elec       q    Type
REMARK                         _______ _______ _______ _____ _____    ______ ____
ROOT
ATOM      1  C   UNL     1       8.860  -1.829  24.602  0.00  0.00    +0.225 C 
ATOM      2  O   UNL     1       8.612  -2.141  25.990  0.00  0.00    -0.348 OA
ATOM      3  C   UNL     1       8.726  -3.579  26.124  0.00  0.00    +0.175 C 
ATOM      4  C   UNL     1       9.181  -4.117  24.759  0.00  0.00    +0.150 C 
ATOM      5  C   UNL     1       9.820  -2.900  24.132  0.00  0.00    +0.088 C 
ENDROOT
BRANCH   1  17
ATOM      6  N   UNL     1       5.480   1.835  23.040  0.00  0.00    -0.329 N 
ATOM      7  H   UNL     1       5.003   2.693  23.283  0.00  0.00    +0.145 HD
ATOM      8  H   UNL     1       4.936   1.005  23.251  0.00  0.00    +0.145 HD
ATOM      9  C   UNL     1       6.780   1.715  23.401  0.00  0.00    +0.195 A 
ATOM     10  N   UNL     1       7.517   2.882  23.419  0.00  0.00    -0.293 N 
ATOM     11  H   UNL     1       7.101   3.750  23.125  0.00  0.00    +0.172 HD
ATOM     12  C   UNL     1       8.864   2.960  23.751  0.00  0.00    +0.280 A 
ATOM     13  O   UNL     1       9.476   4.022  23.729  0.00  0.00    -0.265 OA
ATOM     14  C   UNL     1       9.414   1.670  24.106  0.00  0.00    +0.172 A 
ATOM     15  N   UNL     1      10.677   1.306  24.498  0.00  0.00    -0.229 NA
ATOM     16  C   UNL     1      10.597   0.005  24.705  0.00  0.00    +0.203 A 
ATOM     17  N   UNL     1       9.340  -0.477  24.458  0.00  0.00    -0.288 N 
ATOM     18  C   UNL     1       8.571   0.584  24.066  0.00  0.00    +0.171 A 
ATOM     19  N   UNL     1       7.263   0.542  23.721  0.00  0.00    -0.196 NA
ENDBRANCH   1  17
BRANCH   4  20
ATOM     20  O   UNL     1      10.087  -5.203  24.822  0.00  0.00    -0.389 OA
ATOM     21  H   UNL     1      10.977  -4.872  25.032  0.00  0.00    +0.210 HD
ENDBRANCH   4  20
BRANCH   3  22
ATOM     22  C   UNL     1       7.375  -4.130  26.570  0.00  0.00    +0.206 C 
BRANCH  22  23
ATOM     23  O   UNL     1       6.953  -5.198  25.738  0.00  0.00    -0.284 OA
BRANCH  23  24
ATOM     24  P   UNL     1       5.374  -4.941  25.081  0.00  0.00    +0.483 P 
ATOM     25  O   UNL     1       4.950  -4.309  26.404  0.00  0.00    -0.227 OA
BRANCH  24  26
ATOM     26  O   UNL     1       5.045  -6.528  25.289  0.00  0.00    -0.302 OA
ATOM     27  H   UNL     1       5.913  -6.981  25.300  0.00  0.00    +0.222 HD
ENDBRANCH  24  26
BRANCH  24  28
ATOM     28  O   UNL     1       3.794  -4.682  24.425  0.00  0.00    -0.186 OA
BRANCH  28  29
ATOM     29  P   UNL     1       3.304  -6.142  23.635  0.00  0.00    +0.492 P 
ATOM     30  O   UNL     1       2.216  -5.790  22.622  0.00  0.00    -0.226 OA
BRANCH  29  31
ATOM     31  O   UNL     1       4.491  -5.876  22.406  0.00  0.00    -0.302 OA
ATOM     32  H   UNL     1       5.011  -5.105  22.713  0.00  0.00    +0.222 HD
ENDBRANCH  29  31
BRANCH  29  33
ATOM     33  O   UNL     1       2.117  -6.409  24.865  0.00  0.00    -0.186 OA
BRANCH  33  34
ATOM     34  P   UNL     1       1.833  -8.107  25.035  0.00  0.00    +0.481 P 
ATOM     35  O   UNL     1       1.578  -9.627  25.185  0.00  0.00    -0.227 OA
BRANCH  34  36
ATOM     36  O   UNL     1       2.758  -7.974  26.377  0.00  0.00    -0.302 OA
ATOM     37  H   UNL     1       3.580  -8.487  26.277  0.00  0.00    +0.222 HD
ENDBRANCH  34  36
BRANCH  34  38
ATOM     38  O   UNL     1       3.090  -8.316  24.007  0.00  0.00    -0.302 OA
ATOM     39  H   UNL     1       2.769  -7.904  23.170  0.00  0.00    +0.222 HD
ENDBRANCH  34  38
ENDBRANCH  33  34
ENDBRANCH  29  33
ENDBRANCH  28  29
ENDBRANCH  24  28
ENDBRANCH  23  24
ENDBRANCH  22  23
ENDBRANCH   3  22
TORSDOF 13
ENDMDL
MODEL 7
REMARK VINA RESULT:      -7.1      5.676      9.243
REMARK  Name = 
REMARK  13 active torsions:
REMARK  status: ('A' for Active; 'I' for Inactive)
REMARK    1  A    between atoms: N_8  and  C_9
REMARK    2  A    between atoms: C_12  and  O_14
REMARK    3  A    between atoms: C_15  and  C_17
REMARK    4  A    between atoms: C_17  and  O_18
REMARK    5  A    between atoms: O_18  and  P_19
REMARK    6  A    between atoms: P_19  and  O_20
REMARK    7  A    between atoms: P_19  and  O_22
REMARK    8  A    between atoms: O_22  and  P_23
REMARK    9  A    between atoms: P_23  and  O_24
REMARK   10  A    between atoms: P_23  and  O_26
REMARK   11  A    between atoms: O_26  and  P_27
REMARK   12  A    between atoms: P_27  and  O_28
REMARK   13  A    between atoms: P_27  and  O_29
REMARK                            x       y       z     vdW  Elec       q    Type
REMARK                         _______ _______ _______ _____ _____    ______ ____
ROOT
ATOM      1  C   UNL     1       7.268  -4.719  24.478  0.00  0.00    +0.225 C 
ATOM      2  O   UNL     1       6.423  -3.586  24.179  0.00  0.00    -0.348 OA
ATOM      3  C   UNL     1       6.318  -3.510  22.738  0.00  0.00    +0.175 C 
ATOM      4  C   UNL     1       7.049  -4.737  22.173  0.00  0.00    +0.150 C 
ATOM      5  C   UNL     1       7.025  -5.691  23.344  0.00  0.00    +0.088 C 
ENDROOT
BRANCH   1  17
ATOM      6  N   UNL     1       2.629  -6.973  25.303  0.00  0.00    -0.329 N 
ATOM      7  H   UNL     1       2.143  -7.826  25.544  0.00  0.00    +0.145 HD
ATOM      8  H   UNL     1       2.713  -6.835  24.301  0.00  0.00    +0.145 HD
ATOM      9  C   UNL     1       3.774  -6.692  25.969  0.00  0.00    +0.195 A 
ATOM     10  N   UNL     1       3.838  -7.124  27.279  0.00  0.00    -0.293 N 
ATOM     11  H   UNL     1       3.044  -7.574  27.705  0.00  0.00    +0.172 HD
ATOM     12  C   UNL     1       4.921  -6.921  28.126  0.00  0.00    +0.280 A 
ATOM     13  O   UNL     1       4.916  -7.309  29.288  0.00  0.00    -0.265 OA
ATOM     14  C   UNL     1       6.002  -6.219  27.469  0.00  0.00    +0.172 A 
ATOM     15  N   UNL     1       7.234  -5.829  27.928  0.00  0.00    -0.229 NA
ATOM     16  C   UNL     1       7.804  -5.242  26.893  0.00  0.00    +0.203 A 
ATOM     17  N   UNL     1       6.987  -5.236  25.794  0.00  0.00    -0.288 N 
ATOM     18  C   UNL     1       5.822  -5.857  26.154  0.00  0.00    +0.171 A 
ATOM     19  N   UNL     1       4.743  -6.058  25.362  0.00  0.00    -0.196 NA
ENDBRANCH   1  17
BRANCH   4  20
ATOM     20  O   UNL     1       6.448  -5.311  21.027  0.00  0.00    -0.389 OA
ATOM     21  H   UNL     1       5.527  -5.547  21.226  0.00  0.00    +0.210 HD
ENDBRANCH   4  20
BRANCH   3  22
ATOM     22  C   UNL     1       6.921  -2.184  22.280  0.00  0.00    +0.206 C 
BRANCH  22  23
ATOM     23  O   UNL     1       8.305  -2.315  22.004  0.00  0.00    -0.284 OA
BRANCH  23  24
ATOM     24  P   UNL     1       9.272  -1.230  22.941  0.00  0.00    +0.483 P 
ATOM     25  O   UNL     1       9.889  -0.698  21.650  0.00  0.00    -0.227 OA
BRANCH  24  26
ATOM     26  O   UNL     1      10.247  -2.475  23.350  0.00  0.00    -0.302 OA
ATOM     27  H   UNL     1       9.743  -3.288  23.142  0.00  0.00    +0.222 HD
ENDBRANCH  24  26
BRANCH  24  28
ATOM     28  O   UNL     1      10.239  -0.143  23.878  0.00  0.00    -0.186 OA
BRANCH  28  29
ATOM     29  P   UNL     1       9.176   0.777  24.887  0.00  0.00    +0.492 P 
ATOM     30  O   UNL     1       7.769   0.199  24.742  0.00  0.00    -0.226 OA
BRANCH  29  31
ATOM     31  O   UNL     1       9.459  -0.325  26.190  0.00  0.00    -0.302 OA
ATOM     32  H   UNL     1       9.218  -1.206  25.838  0.00  0.00    +0.222 HD
ENDBRANCH  29  31
BRANCH  29  33
ATOM     33  O   UNL     1       8.893   1.878  23.583  0.00  0.00    -0.186 OA
BRANCH  33  34
ATOM     34  P   UNL     1      10.292   2.869  23.351  0.00  0.00    +0.481 P 
ATOM     35  O   UNL     1      11.545   3.755  23.143  0.00  0.00    -0.227 OA
BRANCH  34  36
ATOM     36  O   UNL     1       9.213   4.048  23.003  0.00  0.00    -0.302 OA
ATOM     37  H   UNL     1       9.655   4.915  22.964  0.00  0.00    +0.222 HD
ENDBRANCH  34  36
BRANCH  34  38
ATOM     38  O   UNL     1      10.345   2.261  21.831  0.00  0.00    -0.302 OA
ATOM     39  H   UNL     1       9.636   1.575  21.838  0.00  0.00    +0.222 HD
ENDBRANCH  34  38
ENDBRANCH  33  34
ENDBRANCH  29  33
ENDBRANCH  28  29
ENDBRANCH  24  28
ENDBRANCH  23  24
ENDBRANCH  22  23
ENDBRANCH   3  22
TORSDOF 13
ENDMDL
MODEL 8
REMARK VINA RESULT:      -7.1      1.356      2.214
REMARK  Name = 
REMARK  13 active torsions:
REMARK  status: ('A' for Active; 'I' for Inactive)
REMARK    1  A    between atoms: N_8  and  C_9
REMARK    2  A    between atoms: C_12  and  O_14
REMARK    3  A    between atoms: C_15  and  C_17
REMARK    4  A    between atoms: C_17  and  O_18
REMARK    5  A    between atoms: O_18  and  P_19
REMARK    6  A    between atoms: P_19  and  O_20
REMARK    7  A    between atoms: P_19  and  O_22
REMARK    8  A    between atoms: O_22  and  P_23
REMARK    9  A    between atoms: P_23  and  O_24
REMARK   10  A    between atoms: P_23  and  O_26
REMARK   11  A    between atoms: O_26  and  P_27
REMARK   12  A    between atoms: P_27  and  O_28
REMARK   13  A    between atoms: P_27  and  O_29
REMARK                            x       y       z     vdW  Elec       q    Type
REMARK                         _______ _______ _______ _____ _____    ______ ____
ROOT
ATOM      1  C   UNL     1       8.816   1.120  23.106  0.00  0.00    +0.225 C 
ATOM      2  O   UNL     1       9.340   0.399  24.243  0.00  0.00    -0.348 OA
ATOM      3  C   UNL     1       9.708  -0.920  23.772  0.00  0.00    +0.175 C 
ATOM      4  C   UNL     1       9.492  -0.924  22.250  0.00  0.00    +0.150 C 
ATOM      5  C   UNL     1       9.554   0.548  21.915  0.00  0.00    +0.088 C 
ENDROOT
BRANCH   1  17
ATOM      6  N   UNL     1       4.663   4.163  22.225  0.00  0.00    -0.329 N 
ATOM      7  H   UNL     1       3.998   4.810  22.627  0.00  0.00    +0.145 HD
ATOM      8  H   UNL     1       4.330   3.204  22.221  0.00  0.00    +0.145 HD
ATOM      9  C   UNL     1       5.956   4.266  22.614  0.00  0.00    +0.195 A 
ATOM     10  N   UNL     1       6.398   5.537  22.925  0.00  0.00    -0.293 N 
ATOM     11  H   UNL     1       5.788   6.330  22.809  0.00  0.00    +0.172 HD
ATOM     12  C   UNL     1       7.690   5.846  23.332  0.00  0.00    +0.280 A 
ATOM     13  O   UNL     1       8.034   6.997  23.574  0.00  0.00    -0.265 OA
ATOM     14  C   UNL     1       8.530   4.671  23.420  0.00  0.00    +0.172 A 
ATOM     15  N   UNL     1       9.844   4.528  23.784  0.00  0.00    -0.229 NA
ATOM     16  C   UNL     1      10.074   3.232  23.696  0.00  0.00    +0.203 A 
ATOM     17  N   UNL     1       8.964   2.543  23.287  0.00  0.00    -0.288 N 
ATOM     18  C   UNL     1       7.966   3.458  23.101  0.00  0.00    +0.171 A 
ATOM     19  N   UNL     1       6.702   3.195  22.691  0.00  0.00    -0.196 NA
ENDBRANCH   1  17
BRANCH   4  20
ATOM     20  O   UNL     1      10.452  -1.663  21.518  0.00  0.00    -0.389 OA
ATOM     21  H   UNL     1      10.008  -2.370  21.021  0.00  0.00    +0.210 HD
ENDBRANCH   4  20
BRANCH   3  22
ATOM     22  C   UNL     1       8.852  -1.949  24.505  0.00  0.00    +0.206 C 
BRANCH  22  23
ATOM     23  O   UNL     1       8.466  -3.008  23.644  0.00  0.00    -0.284 OA
BRANCH  23  24
ATOM     24  P   UNL     1       8.073  -4.453  24.508  0.00  0.00    +0.483 P 
ATOM     25  O   UNL     1       9.557  -4.808  24.546  0.00  0.00    -0.227 OA
BRANCH  24  26
ATOM     26  O   UNL     1       7.552  -5.127  23.114  0.00  0.00    -0.302 OA
ATOM     27  H   UNL     1       7.077  -5.943  23.374  0.00  0.00    +0.222 HD
ENDBRANCH  24  26
BRANCH  24  28
ATOM     28  O   UNL     1       7.681  -5.900  25.373  0.00  0.00    -0.186 OA
BRANCH  28  29
ATOM     29  P   UNL     1       6.420  -5.521  26.495  0.00  0.00    +0.492 P 
ATOM     30  O   UNL     1       5.687  -6.817  26.838  0.00  0.00    -0.226 OA
BRANCH  29  31
ATOM     31  O   UNL     1       7.500  -5.820  27.812  0.00  0.00    -0.302 OA
ATOM     32  H   UNL     1       7.251  -6.704  28.153  0.00  0.00    +0.222 HD
ENDBRANCH  29  31
BRANCH  29  33
ATOM     33  O   UNL     1       5.339  -5.221  25.177  0.00  0.00    -0.186 OA
BRANCH  33  34
ATOM     34  P   UNL     1       4.370  -6.627  24.895  0.00  0.00    +0.481 P 
ATOM     35  O   UNL     1       3.502  -7.884  24.644  0.00  0.00    -0.227 OA
BRANCH  34  36
ATOM     36  O   UNL     1       5.328  -6.839  23.587  0.00  0.00    -0.302 OA
ATOM     37  H   UNL     1       5.067  -7.641  23.099  0.00  0.00    +0.222 HD
ENDBRANCH  34  36
BRANCH  34  38
ATOM     38  O   UNL     1       3.314  -5.623  24.147  0.00  0.00    -0.302 OA
ATOM     39  H   UNL     1       3.880  -4.863  23.874  0.00  0.00    +0.222 HD
ENDBRANCH  34  38
ENDBRANCH  33  34
ENDBRANCH  29  33
ENDBRANCH  28  29
ENDBRANCH  24  28
ENDBRANCH  23  24
ENDBRANCH  22  23
ENDBRANCH   3  22
TORSDOF 13
ENDMDL
MODEL 9
REMARK VINA RESULT:      -7.0      5.751      9.068
REMARK  Name = 
REMARK  13 active torsions:
REMARK  status: ('A' for Active; 'I' for Inactive)
REMARK    1  A    between atoms: N_8  and  C_9
REMARK    2  A    between atoms: C_12  and  O_14
REMARK    3  A    between atoms: C_15  and  C_17
REMARK    4  A    between atoms: C_17  and  O_18
REMARK    5  A    between atoms: O_18  and  P_19
REMARK    6  A    between atoms: P_19  and  O_20
REMARK    7  A    between atoms: P_19  and  O_22
REMARK    8  A    between atoms: O_22  and  P_23
REMARK    9  A    between atoms: P_23  and  O_24
REMARK   10  A    between atoms: P_23  and  O_26
REMARK   11  A    between atoms: O_26  and  P_27
REMARK   12  A    between atoms: P_27  and  O_28
REMARK   13  A    between atoms: P_27  and  O_29
REMARK                            x       y       z     vdW  Elec       q    Type
REMARK                         _______ _______ _______ _____ _____    ______ ____
ROOT
ATOM      1  C   UNL     1       7.149  -4.766  24.447  0.00  0.00    +0.225 C 
ATOM      2  O   UNL     1       6.624  -3.428  24.295  0.00  0.00    -0.348 OA
ATOM      3  C   UNL     1       6.389  -3.228  22.881  0.00  0.00    +0.175 C 
ATOM      4  C   UNL     1       6.686  -4.567  22.187  0.00  0.00    +0.150 C 
ATOM      5  C   UNL     1       6.525  -5.555  23.318  0.00  0.00    +0.088 C 
ENDROOT
BRANCH   1  17
ATOM      6  N   UNL     1       2.464  -6.888  25.362  0.00  0.00    -0.329 N 
ATOM      7  H   UNL     1       1.959  -7.728  25.612  0.00  0.00    +0.145 HD
ATOM      8  H   UNL     1       2.533  -6.752  24.359  0.00  0.00    +0.145 HD
ATOM      9  C   UNL     1       3.629  -6.640  26.006  0.00  0.00    +0.195 A 
ATOM     10  N   UNL     1       3.707  -7.075  27.314  0.00  0.00    -0.293 N 
ATOM     11  H   UNL     1       2.909  -7.502  27.755  0.00  0.00    +0.172 HD
ATOM     12  C   UNL     1       4.811  -6.903  28.139  0.00  0.00    +0.280 A 
ATOM     13  O   UNL     1       4.817  -7.291  29.302  0.00  0.00    -0.265 OA
ATOM     14  C   UNL     1       5.899  -6.231  27.462  0.00  0.00    +0.172 A 
ATOM     15  N   UNL     1       7.150  -5.877  27.897  0.00  0.00    -0.229 NA
ATOM     16  C   UNL     1       7.716  -5.306  26.851  0.00  0.00    +0.203 A 
ATOM     17  N   UNL     1       6.878  -5.276  25.769  0.00  0.00    -0.288 N 
ATOM     18  C   UNL     1       5.704  -5.863  26.151  0.00  0.00    +0.171 A 
ATOM     19  N   UNL     1       4.604  -6.033  25.380  0.00  0.00    -0.196 NA
ENDBRANCH   1  17
BRANCH   4  20
ATOM     20  O   UNL     1       5.829  -4.876  21.103  0.00  0.00    -0.389 OA
ATOM     21  H   UNL     1       4.907  -4.890  21.411  0.00  0.00    +0.210 HD
ENDBRANCH   4  20
BRANCH   3  22
ATOM     22  C   UNL     1       7.283  -2.088  22.400  0.00  0.00    +0.206 C 
BRANCH  22  23
ATOM     23  O   UNL     1       8.656  -2.416  22.538  0.00  0.00    -0.284 OA
BRANCH  23  24
ATOM     24  P   UNL     1       9.638  -1.027  22.851  0.00  0.00    +0.483 P 
ATOM     25  O   UNL     1       8.436  -0.136  22.551  0.00  0.00    -0.227 OA
BRANCH  24  26
ATOM     26  O   UNL     1      10.348  -1.219  21.391  0.00  0.00    -0.302 OA
ATOM     27  H   UNL     1       9.828  -0.673  20.767  0.00  0.00    +0.222 HD
ENDBRANCH  24  26
BRANCH  24  28
ATOM     28  O   UNL     1      10.621   0.363  23.163  0.00  0.00    -0.186 OA
BRANCH  28  29
ATOM     29  P   UNL     1       9.598   1.758  23.101  0.00  0.00    +0.492 P 
ATOM     30  O   UNL     1      10.477   2.996  23.271  0.00  0.00    -0.226 OA
BRANCH  29  31
ATOM     31  O   UNL     1       9.841   1.860  21.391  0.00  0.00    -0.302 OA
ATOM     32  H   UNL     1      10.292   2.717  21.247  0.00  0.00    +0.222 HD
ENDBRANCH  29  31
BRANCH  29  33
ATOM     33  O   UNL     1       9.356   1.656  24.811  0.00  0.00    -0.186 OA
BRANCH  33  34
ATOM     34  P   UNL     1       7.810   2.320  25.215  0.00  0.00    +0.481 P 
ATOM     35  O   UNL     1       6.428   2.916  25.577  0.00  0.00    -0.227 OA
BRANCH  34  36
ATOM     36  O   UNL     1       7.313   0.762  25.228  0.00  0.00    -0.302 OA
ATOM     37  H   UNL     1       6.470   0.677  25.710  0.00  0.00    +0.222 HD
ENDBRANCH  34  36
BRANCH  34  38
ATOM     38  O   UNL     1       7.594   2.532  23.606  0.00  0.00    -0.302 OA
ATOM     39  H   UNL     1       6.977   1.802  23.363  0.00  0.00    +0.222 HD
ENDBRANCH  34  38
ENDBRANCH  33  34
ENDBRANCH  29  33
ENDBRANCH  28  29
ENDBRANCH  24  28
ENDBRANCH  23  24
ENDBRANCH  22  23
ENDBRANCH   3  22
TORSDOF 13
ENDMDL
