MODEL 1
REMARK VINA RESULT:      -6.1      0.000      0.000
REMARK  Name = 
REMARK  13 active torsions:
REMARK  status: ('A' for Active; 'I' for Inactive)
REMARK    1  A    between atoms: C_1  and  O_2
REMARK    2  A    between atoms: O_2  and  C_3
REMARK    3  A    between atoms: C_4  and  O_5
REMARK    4  A    between atoms: O_5  and  C_6
REMARK    5  A    between atoms: C_7  and  O_8
REMARK    6  A    between atoms: O_8  and  C_9
REMARK    7  A    between atoms: C_12  and  C_13
REMARK    8  A    between atoms: C_13  and  C_14
REMARK    9  A    between atoms: C_17  and  N_18
REMARK   10  A    between atoms: N_24  and  C_25
REMARK   11  A    between atoms: C_25  and  C_26
REMARK   12  A    between atoms: C_26  and  C_27
REMARK   13  A    between atoms: C_27  and  C_28
REMARK                            x       y       z     vdW  Elec       q    Type
REMARK                         _______ _______ _______ _____ _____    ______ ____
ROOT
ATOM      1  C   UNL     1       8.368  -2.713  22.587  0.00  0.00    +0.116 A 
ATOM      2  N   UNL     1       9.301  -2.430  23.569  0.00  0.00    -0.312 N 
ATOM      3  C   UNL     1       9.742  -1.145  23.377  0.00  0.00    +0.168 A 
ATOM      4  C   UNL     1       8.995  -0.655  22.324  0.00  0.00    +0.148 A 
ATOM      5  C   UNL     1       9.174   0.712  22.030  0.00  0.00    +0.150 A 
ATOM      6  N   UNL     1      10.060   1.432  22.751  0.00  0.00    -0.185 NA
ATOM      7  C   UNL     1      10.739   0.816  23.735  0.00  0.00    +0.313 A 
ATOM      8  F   UNL     1      11.575   1.579  24.454  0.00  0.00    -0.161 F 
ATOM      9  N   UNL     1      10.651  -0.471  24.099  0.00  0.00    -0.182 NA
ATOM     10  N   UNL     1       8.187  -1.652  21.808  0.00  0.00    -0.227 NA
ENDROOT
BRANCH   5  11
ATOM     11  N   UNL     1       8.478   1.402  21.041  0.00  0.00    -0.341 N 
ATOM     12  H   UNL     1       7.656   1.855  21.392  0.00  0.00    +0.144 HD
ATOM     13  H   UNL     1       9.071   1.918  20.396  0.00  0.00    +0.144 HD
ENDBRANCH   5  11
BRANCH   1  14
ATOM     14  C   UNL     1       7.532  -3.973  22.564  0.00  0.00    +0.111 C 
BRANCH  14  17
ATOM     15  C   UNL     1       4.577  -2.811  24.627  0.00  0.00    +0.166 A 
ATOM     16  C   UNL     1       5.757  -2.810  23.872  0.00  0.00    +0.055 A 
ATOM     17  C   UNL     1       6.074  -3.857  22.991  0.00  0.00    -0.015 A 
ATOM     18  C   UNL     1       5.096  -4.846  22.743  0.00  0.00    +0.090 A 
ATOM     19 CL   UNL     1       5.451  -6.122  21.619  0.00  0.00    -0.079 Cl
ATOM     20  C   UNL     1       3.876  -4.838  23.459  0.00  0.00    +0.184 A 
ATOM     21  C   UNL     1       3.664  -3.871  24.471  0.00  0.00    +0.205 A 
BRANCH  15  23
ATOM     22  C   UNL     1       5.174  -1.677  26.658  0.00  0.00    +0.277 C 
ATOM     23  O   UNL     1       4.291  -1.850  25.559  0.00  0.00    -0.491 OA
ENDBRANCH  15  23
BRANCH  20  24
ATOM     24  O   UNL     1       2.921  -5.827  23.352  0.00  0.00    -0.490 OA
ATOM     25  C   UNL     1       3.218  -7.053  24.019  0.00  0.00    +0.277 C 
ENDBRANCH  20  24
BRANCH  21  26
ATOM     26  O   UNL     1       2.517  -4.031  25.223  0.00  0.00    -0.488 OA
ATOM     27  C   UNL     1       2.688  -4.509  26.558  0.00  0.00    +0.277 C 
ENDBRANCH  21  26
ENDBRANCH  14  17
ENDBRANCH   1  14
BRANCH   2  28
ATOM     28  C   UNL     1       9.647  -3.279  24.690  0.00  0.00    +0.126 C 
BRANCH  28  29
ATOM     29  C   UNL     1       8.631  -3.247  25.809  0.00  0.00    +0.034 C 
BRANCH  29  30
ATOM     30  C   UNL     1       8.697  -4.504  26.645  0.00  0.00    +0.090 C 
BRANCH  30  31
ATOM     31  C   UNL     1       7.353  -5.185  26.440  0.00  0.00    -0.106 C 
ATOM     32  C   UNL     1       6.201  -5.769  26.264  0.00  0.00    +0.004 C 
ENDBRANCH  30  31
ENDBRANCH  29  30
ENDBRANCH  28  29
ENDBRANCH   2  28
TORSDOF 10
ENDMDL
MODEL 2
REMARK VINA RESULT:      -6.0      4.399      7.238
REMARK  Name = 
REMARK  13 active torsions:
REMARK  status: ('A' for Active; 'I' for Inactive)
REMARK    1  A    between atoms: C_1  and  O_2
REMARK    2  A    between atoms: O_2  and  C_3
REMARK    3  A    between atoms: C_4  and  O_5
REMARK    4  A    between atoms: O_5  and  C_6
REMARK    5  A    between atoms: C_7  and  O_8
REMARK    6  A    between atoms: O_8  and  C_9
REMARK    7  A    between atoms: C_12  and  C_13
REMARK    8  A    between atoms: C_13  and  C_14
REMARK    9  A    between atoms: C_17  and  N_18
REMARK   10  A    between atoms: N_24  and  C_25
REMARK   11  A    between atoms: C_25  and  C_26
REMARK   12  A    between atoms: C_26  and  C_27
REMARK   13  A    between atoms: C_27  and  C_28
REMARK                            x       y       z     vdW  Elec       q    Type
REMARK                         _______ _______ _______ _____ _____    ______ ____
ROOT
ATOM      1  C   UNL     1       8.622  -0.830  22.408  0.00  0.00    +0.116 A 
ATOM      2  N   UNL     1       9.318  -1.407  23.457  0.00  0.00    -0.312 N 
ATOM      3  C   UNL     1       8.834  -2.678  23.637  0.00  0.00    +0.168 A 
ATOM      4  C   UNL     1       7.909  -2.864  22.630  0.00  0.00    +0.148 A 
ATOM      5  C   UNL     1       7.373  -4.164  22.524  0.00  0.00    +0.150 A 
ATOM      6  N   UNL     1       7.758  -5.111  23.404  0.00  0.00    -0.185 NA
ATOM      7  C   UNL     1       8.652  -4.781  24.353  0.00  0.00    +0.313 A 
ATOM      8  F   UNL     1       9.041  -5.764  25.179  0.00  0.00    -0.161 F 
ATOM      9  N   UNL     1       9.223  -3.583  24.549  0.00  0.00    -0.182 NA
ATOM     10  N   UNL     1       7.747  -1.695  21.909  0.00  0.00    -0.227 NA
ENDROOT
BRANCH   5  11
ATOM     11  N   UNL     1       6.466  -4.564  21.546  0.00  0.00    -0.341 N 
ATOM     12  H   UNL     1       6.809  -4.411  20.616  0.00  0.00    +0.144 HD
ATOM     13  H   UNL     1       5.997  -5.443  21.746  0.00  0.00    +0.144 HD
ENDBRANCH   5  11
BRANCH   1  14
ATOM     14  C   UNL     1       8.982   0.508  21.800  0.00  0.00    +0.111 C 
BRANCH  14  17
ATOM     15  C   UNL     1       6.357   3.162  22.436  0.00  0.00    +0.166 A 
ATOM     16  C   UNL     1       6.979   1.920  22.257  0.00  0.00    +0.055 A 
ATOM     17  C   UNL     1       8.363   1.752  22.424  0.00  0.00    -0.015 A 
ATOM     18  C   UNL     1       9.112   2.830  22.948  0.00  0.00    +0.090 A 
ATOM     19 CL   UNL     1      10.818   2.626  23.210  0.00  0.00    -0.079 Cl
ATOM     20  C   UNL     1       8.494   4.080  23.183  0.00  0.00    +0.184 A 
ATOM     21  C   UNL     1       7.135   4.267  22.832  0.00  0.00    +0.205 A 
BRANCH  15  23
ATOM     22  C   UNL     1       4.095   3.171  23.239  0.00  0.00    +0.277 C 
ATOM     23  O   UNL     1       5.028   3.370  22.188  0.00  0.00    -0.491 OA
ENDBRANCH  15  23
BRANCH  20  24
ATOM     24  O   UNL     1       9.178   5.207  23.589  0.00  0.00    -0.490 OA
ATOM     25  C   UNL     1       9.193   5.453  24.995  0.00  0.00    +0.277 C 
ENDBRANCH  20  24
BRANCH  21  26
ATOM     26  O   UNL     1       6.656   5.557  22.949  0.00  0.00    -0.488 OA
ATOM     27  C   UNL     1       6.837   6.412  21.820  0.00  0.00    +0.277 C 
ENDBRANCH  21  26
ENDBRANCH  14  17
ENDBRANCH   1  14
BRANCH   2  28
ATOM     28  C   UNL     1      10.453  -0.832  24.148  0.00  0.00    +0.126 C 
BRANCH  28  29
ATOM     29  C   UNL     1      10.066   0.114  25.263  0.00  0.00    +0.034 C 
BRANCH  29  30
ATOM     30  C   UNL     1       8.809  -0.346  25.962  0.00  0.00    +0.090 C 
BRANCH  30  31
ATOM     31  C   UNL     1       7.895   0.868  25.971  0.00  0.00    -0.106 C 
ATOM     32  C   UNL     1       7.111   1.910  25.979  0.00  0.00    +0.004 C 
ENDBRANCH  30  31
ENDBRANCH  29  30
ENDBRANCH  28  29
ENDBRANCH   2  28
TORSDOF 10
ENDMDL
MODEL 3
REMARK VINA RESULT:      -6.0      2.233      3.287
REMARK  Name = 
REMARK  13 active torsions:
REMARK  status: ('A' for Active; 'I' for Inactive)
REMARK    1  A    between atoms: C_1  and  O_2
REMARK    2  A    between atoms: O_2  and  C_3
REMARK    3  A    between atoms: C_4  and  O_5
REMARK    4  A    between atoms: O_5  and  C_6
REMARK    5  A    between atoms: C_7  and  O_8
REMARK    6  A    between atoms: O_8  and  C_9
REMARK    7  A    between atoms: C_12  and  C_13
REMARK    8  A    between atoms: C_13  and  C_14
REMARK    9  A    between atoms: C_17  and  N_18
REMARK   10  A    between atoms: N_24  and  C_25
REMARK   11  A    between atoms: C_25  and  C_26
REMARK   12  A    between atoms: C_26  and  C_27
REMARK   13  A    between atoms: C_27  and  C_28
REMARK                            x       y       z     vdW  Elec       q    Type
REMARK                         _______ _______ _______ _____ _____    ______ ____
ROOT
ATOM      1  C   UNL     1       9.487  -1.344  24.365  0.00  0.00    +0.116 A 
ATOM      2  N   UNL     1       8.837  -0.536  25.283  0.00  0.00    -0.312 N 
ATOM      3  C   UNL     1       8.909   0.758  24.832  0.00  0.00    +0.168 A 
ATOM      4  C   UNL     1       9.533   0.684  23.603  0.00  0.00    +0.148 A 
ATOM      5  C   UNL     1       9.594   1.889  22.874  0.00  0.00    +0.150 A 
ATOM      6  N   UNL     1       9.083   3.015  23.416  0.00  0.00    -0.185 NA
ATOM      7  C   UNL     1       8.525   2.945  24.637  0.00  0.00    +0.313 A 
ATOM      8  F   UNL     1       7.991   4.077  25.119  0.00  0.00    -0.161 F 
ATOM      9  N   UNL     1       8.414   1.860  25.418  0.00  0.00    -0.182 NA
ATOM     10  N   UNL     1       9.935  -0.615  23.349  0.00  0.00    -0.227 NA
ENDROOT
BRANCH   5  11
ATOM     11  N   UNL     1      10.137   2.011  21.598  0.00  0.00    -0.341 N 
ATOM     12  H   UNL     1      11.037   2.453  21.601  0.00  0.00    +0.144 HD
ATOM     13  H   UNL     1      10.008   1.192  21.010  0.00  0.00    +0.144 HD
ENDBRANCH   5  11
BRANCH   1  14
ATOM     14  C   UNL     1       9.477  -2.855  24.426  0.00  0.00    +0.111 C 
BRANCH  14  17
ATOM     15  C   UNL     1       6.760  -5.300  25.419  0.00  0.00    +0.166 A 
ATOM     16  C   UNL     1       7.766  -4.326  25.485  0.00  0.00    +0.055 A 
ATOM     17  C   UNL     1       8.123  -3.552  24.370  0.00  0.00    -0.015 A 
ATOM     18  C   UNL     1       7.331  -3.648  23.204  0.00  0.00    +0.090 A 
ATOM     19 CL   UNL     1       7.727  -2.662  21.829  0.00  0.00    -0.079 Cl
ATOM     20  C   UNL     1       6.278  -4.590  23.132  0.00  0.00    +0.184 A 
ATOM     21  C   UNL     1       6.061  -5.482  24.210  0.00  0.00    +0.205 A 
BRANCH  15  23
ATOM     22  C   UNL     1       6.432  -5.592  27.780  0.00  0.00    +0.277 C 
ATOM     23  O   UNL     1       6.459  -6.129  26.465  0.00  0.00    -0.491 OA
ENDBRANCH  15  23
BRANCH  20  24
ATOM     24  O   UNL     1       5.533  -4.819  21.994  0.00  0.00    -0.490 OA
ATOM     25  C   UNL     1       6.156  -5.626  20.995  0.00  0.00    +0.277 C 
ENDBRANCH  20  24
BRANCH  21  26
ATOM     26  O   UNL     1       5.119  -6.467  23.995  0.00  0.00    -0.488 OA
ATOM     27  C   UNL     1       3.800  -6.208  24.476  0.00  0.00    +0.277 C 
ENDBRANCH  21  26
ENDBRANCH  14  17
ENDBRANCH   1  14
BRANCH   2  28
ATOM     28  C   UNL     1       8.088  -0.985  26.437  0.00  0.00    +0.126 C 
BRANCH  28  29
ATOM     29  C   UNL     1       6.666  -0.473  26.472  0.00  0.00    +0.034 C 
BRANCH  29  30
ATOM     30  C   UNL     1       5.902  -0.891  25.237  0.00  0.00    +0.090 C 
BRANCH  30  31
ATOM     31  C   UNL     1       4.928  -1.955  25.717  0.00  0.00    -0.106 C 
ATOM     32  C   UNL     1       4.092  -2.867  26.129  0.00  0.00    +0.004 C 
ENDBRANCH  30  31
ENDBRANCH  29  30
ENDBRANCH  28  29
ENDBRANCH   2  28
TORSDOF 10
ENDMDL
MODEL 4
REMARK VINA RESULT:      -5.9      2.060      3.292
REMARK  Name = 
REMARK  13 active torsions:
REMARK  status: ('A' for Active; 'I' for Inactive)
REMARK    1  A    between atoms: C_1  and  O_2
REMARK    2  A    between atoms: O_2  and  C_3
REMARK    3  A    between atoms: C_4  and  O_5
REMARK    4  A    between atoms: O_5  and  C_6
REMARK    5  A    between atoms: C_7  and  O_8
REMARK    6  A    between atoms: O_8  and  C_9
REMARK    7  A    between atoms: C_12  and  C_13
REMARK    8  A    between atoms: C_13  and  C_14
REMARK    9  A    between atoms: C_17  and  N_18
REMARK   10  A    between atoms: N_24  and  C_25
REMARK   11  A    between atoms: C_25  and  C_26
REMARK   12  A    between atoms: C_26  and  C_27
REMARK   13  A    between atoms: C_27  and  C_28
REMARK                            x       y       z     vdW  Elec       q    Type
REMARK                         _______ _______ _______ _____ _____    ______ ____
ROOT
ATOM      1  C   UNL     1       9.361  -2.739  24.462  0.00  0.00    +0.116 A 
ATOM      2  N   UNL     1       9.099  -1.633  25.253  0.00  0.00    -0.312 N 
ATOM      3  C   UNL     1       9.127  -0.522  24.449  0.00  0.00    +0.168 A 
ATOM      4  C   UNL     1       9.325  -0.999  23.170  0.00  0.00    +0.148 A 
ATOM      5  C   UNL     1       9.248  -0.040  22.139  0.00  0.00    +0.150 A 
ATOM      6  N   UNL     1       9.025   1.253  22.456  0.00  0.00    -0.185 NA
ATOM      7  C   UNL     1       8.875   1.580  23.751  0.00  0.00    +0.313 A 
ATOM      8  F   UNL     1       8.610   2.868  24.018  0.00  0.00    -0.161 F 
ATOM      9  N   UNL     1       8.930   0.757  24.809  0.00  0.00    -0.182 NA
ATOM     10  N   UNL     1       9.523  -2.368  23.196  0.00  0.00    -0.227 NA
ENDROOT
BRANCH   5  11
ATOM     11  N   UNL     1       9.370  -0.330  20.782  0.00  0.00    -0.341 N 
ATOM     12  H   UNL     1       9.976   0.309  20.304  0.00  0.00    +0.144 HD
ATOM     13  H   UNL     1       9.458  -1.321  20.575  0.00  0.00    +0.144 HD
ENDBRANCH   5  11
BRANCH   1  14
ATOM     14  C   UNL     1       9.252  -4.165  24.953  0.00  0.00    +0.111 C 
BRANCH  14  17
ATOM     15  C   UNL     1       6.151  -5.191  23.036  0.00  0.00    +0.166 A 
ATOM     16  C   UNL     1       7.483  -4.894  23.355  0.00  0.00    +0.055 A 
ATOM     17  C   UNL     1       7.948  -4.904  24.681  0.00  0.00    -0.015 A 
ATOM     18  C   UNL     1       7.087  -5.388  25.691  0.00  0.00    +0.090 A 
ATOM     19 CL   UNL     1       7.660  -5.454  27.330  0.00  0.00    -0.079 Cl
ATOM     20  C   UNL     1       5.752  -5.740  25.382  0.00  0.00    +0.184 A 
ATOM     21  C   UNL     1       5.262  -5.546  24.068  0.00  0.00    +0.205 A 
BRANCH  15  23
ATOM     22  C   UNL     1       6.223  -5.904  20.744  0.00  0.00    +0.277 C 
ATOM     23  O   UNL     1       5.654  -5.097  21.765  0.00  0.00    -0.491 OA
ENDBRANCH  15  23
BRANCH  20  24
ATOM     24  O   UNL     1       4.822  -6.116  26.329  0.00  0.00    -0.490 OA
ATOM     25  C   UNL     1       4.371  -5.081  27.202  0.00  0.00    +0.277 C 
ENDBRANCH  20  24
BRANCH  21  26
ATOM     26  O   UNL     1       3.911  -5.768  23.892  0.00  0.00    -0.488 OA
ATOM     27  C   UNL     1       3.073  -4.612  23.847  0.00  0.00    +0.277 C 
ENDBRANCH  21  26
ENDBRANCH  14  17
ENDBRANCH   1  14
BRANCH   2  28
ATOM     28  C   UNL     1       8.718  -1.653  26.650  0.00  0.00    +0.126 C 
BRANCH  28  29
ATOM     29  C   UNL     1       7.397  -0.971  26.926  0.00  0.00    +0.034 C 
BRANCH  29  30
ATOM     30  C   UNL     1       6.242  -1.936  26.785  0.00  0.00    +0.090 C 
BRANCH  30  31
ATOM     31  C   UNL     1       5.867  -1.890  25.312  0.00  0.00    -0.106 C 
ATOM     32  C   UNL     1       5.546  -1.851  24.050  0.00  0.00    +0.004 C 
ENDBRANCH  30  31
ENDBRANCH  29  30
ENDBRANCH  28  29
ENDBRANCH   2  28
TORSDOF 10
ENDMDL
MODEL 5
REMARK VINA RESULT:      -5.9      2.828      4.752
REMARK  Name = 
REMARK  13 active torsions:
REMARK  status: ('A' for Active; 'I' for Inactive)
REMARK    1  A    between atoms: C_1  and  O_2
REMARK    2  A    between atoms: O_2  and  C_3
REMARK    3  A    between atoms: C_4  and  O_5
REMARK    4  A    between atoms: O_5  and  C_6
REMARK    5  A    between atoms: C_7  and  O_8
REMARK    6  A    between atoms: O_8  and  C_9
REMARK    7  A    between atoms: C_12  and  C_13
REMARK    8  A    between atoms: C_13  and  C_14
REMARK    9  A    between atoms: C_17  and  N_18
REMARK   10  A    between atoms: N_24  and  C_25
REMARK   11  A    between atoms: C_25  and  C_26
REMARK   12  A    between atoms: C_26  and  C_27
REMARK   13  A    between atoms: C_27  and  C_28
REMARK                            x       y       z     vdW  Elec       q    Type
REMARK                         _______ _______ _______ _____ _____    ______ ____
ROOT
ATOM      1  C   UNL     1       7.945  -2.187  25.124  0.00  0.00    +0.116 A 
ATOM      2  N   UNL     1       7.723  -1.252  24.128  0.00  0.00    -0.312 N 
ATOM      3  C   UNL     1       7.419  -0.057  24.730  0.00  0.00    +0.168 A 
ATOM      4  C   UNL     1       7.548  -0.286  26.085  0.00  0.00    +0.148 A 
ATOM      5  C   UNL     1       7.420   0.848  26.913  0.00  0.00    +0.150 A 
ATOM      6  N   UNL     1       7.155   2.047  26.354  0.00  0.00    -0.185 NA
ATOM      7  C   UNL     1       7.029   2.119  25.017  0.00  0.00    +0.313 A 
ATOM      8  F   UNL     1       6.811   3.337  24.499  0.00  0.00    -0.161 F 
ATOM      9  N   UNL     1       7.129   1.111  24.137  0.00  0.00    -0.182 NA
ATOM     10  N   UNL     1       7.821  -1.622  26.319  0.00  0.00    -0.227 NA
ENDROOT
BRANCH   5  11
ATOM     11  N   UNL     1       7.566   0.832  28.298  0.00  0.00    -0.341 N 
ATOM     12  H   UNL     1       8.462   1.169  28.595  0.00  0.00    +0.144 HD
ATOM     13  H   UNL     1       6.744   1.143  28.808  0.00  0.00    +0.144 HD
ENDBRANCH   5  11
BRANCH   1  14
ATOM     14  C   UNL     1       8.469  -3.582  24.860  0.00  0.00    +0.111 C 
BRANCH  14  17
ATOM     15  C   UNL     1       5.805  -5.582  23.059  0.00  0.00    +0.166 A 
ATOM     16  C   UNL     1       6.989  -4.886  23.336  0.00  0.00    +0.055 A 
ATOM     17  C   UNL     1       7.444  -4.689  24.650  0.00  0.00    -0.015 A 
ATOM     18  C   UNL     1       6.773  -5.355  25.700  0.00  0.00    +0.090 A 
ATOM     19 CL   UNL     1       7.349  -5.164  27.328  0.00  0.00    -0.079 Cl
ATOM     20  C   UNL     1       5.602  -6.105  25.436  0.00  0.00    +0.184 A 
ATOM     21  C   UNL     1       5.069  -6.133  24.125  0.00  0.00    +0.205 A 
BRANCH  15  23
ATOM     22  C   UNL     1       6.193  -5.785  20.698  0.00  0.00    +0.277 C 
ATOM     23  O   UNL     1       5.295  -5.706  21.795  0.00  0.00    -0.491 OA
ENDBRANCH  15  23
BRANCH  20  24
ATOM     24  O   UNL     1       4.833  -6.692  26.419  0.00  0.00    -0.490 OA
ATOM     25  C   UNL     1       4.041  -5.800  27.204  0.00  0.00    +0.277 C 
ENDBRANCH  20  24
BRANCH  21  26
ATOM     26  O   UNL     1       3.845  -6.757  23.988  0.00  0.00    -0.488 OA
ATOM     27  C   UNL     1       2.718  -5.910  23.758  0.00  0.00    +0.277 C 
ENDBRANCH  21  26
ENDBRANCH  14  17
ENDBRANCH   1  14
BRANCH   2  28
ATOM     28  C   UNL     1       7.918  -1.453  22.707  0.00  0.00    +0.126 C 
BRANCH  28  29
ATOM     29  C   UNL     1       9.326  -1.153  22.242  0.00  0.00    +0.034 C 
BRANCH  29  30
ATOM     30  C   UNL     1       9.347  -0.006  21.260  0.00  0.00    +0.090 C 
BRANCH  30  31
ATOM     31  C   UNL     1       9.863   1.183  22.053  0.00  0.00    -0.106 C 
ATOM     32  C   UNL     1      10.306   2.204  22.733  0.00  0.00    +0.004 C 
ENDBRANCH  30  31
ENDBRANCH  29  30
ENDBRANCH  28  29
ENDBRANCH   2  28
TORSDOF 10
ENDMDL
MODEL 6
REMARK VINA RESULT:      -5.8      4.067      6.769
REMARK  Name = 
REMARK  13 active torsions:
REMARK  status: ('A' for Active; 'I' for Inactive)
REMARK    1  A    between atoms: C_1  and  O_2
REMARK    2  A    between atoms: O_2  and  C_3
REMARK    3  A    between atoms: C_4  and  O_5
REMARK    4  A    between atoms: O_5  and  C_6
REMARK    5  A    between atoms: C_7  and  O_8
REMARK    6  A    between atoms: O_8  and  C_9
REMARK    7  A    between atoms: C_12  and  C_13
REMARK    8  A    between atoms: C_13  and  C_14
REMARK    9  A    between atoms: C_17  and  N_18
REMARK   10  A    between atoms: N_24  and  C_25
REMARK   11  A    between atoms: C_25  and  C_26
REMARK   12  A    between atoms: C_26  and  C_27
REMARK   13  A    between atoms: C_27  and  C_28
REMARK                            x       y       z     vdW  Elec       q    Type
REMARK                         _______ _______ _______ _____ _____    ______ ____
ROOT
ATOM      1  C   UNL     1       8.736  -4.124  24.694  0.00  0.00    +0.116 A 
ATOM      2  N   UNL     1       7.718  -4.487  23.829  0.00  0.00    -0.312 N 
ATOM      3  C   UNL     1       6.833  -5.272  24.523  0.00  0.00    +0.168 A 
ATOM      4  C   UNL     1       7.302  -5.295  25.820  0.00  0.00    +0.148 A 
ATOM      5  C   UNL     1       6.469  -5.934  26.762  0.00  0.00    +0.150 A 
ATOM      6  N   UNL     1       5.314  -6.496  26.347  0.00  0.00    -0.185 NA
ATOM      7  C   UNL     1       4.994  -6.419  25.043  0.00  0.00    +0.313 A 
ATOM      8  F   UNL     1       3.817  -6.952  24.682  0.00  0.00    -0.161 F 
ATOM      9  N   UNL     1       5.707  -5.842  24.065  0.00  0.00    -0.182 NA
ATOM     10  N   UNL     1       8.510  -4.626  25.903  0.00  0.00    -0.227 NA
ENDROOT
BRANCH   5  11
ATOM     11  N   UNL     1       6.741  -6.017  28.125  0.00  0.00    -0.341 N 
ATOM     12  H   UNL     1       6.076  -6.583  28.617  0.00  0.00    +0.144 HD
ATOM     13  H   UNL     1       7.725  -6.132  28.347  0.00  0.00    +0.144 HD
ENDBRANCH   5  11
BRANCH   1  14
ATOM     14  C   UNL     1       9.815  -3.123  24.346  0.00  0.00    +0.111 C 
BRANCH  14  17
ATOM     15  C   UNL     1       8.224  -0.034  25.854  0.00  0.00    +0.166 A 
ATOM     16  C   UNL     1       8.920  -1.243  25.716  0.00  0.00    +0.055 A 
ATOM     17  C   UNL     1       9.474  -1.645  24.490  0.00  0.00    -0.015 A 
ATOM     18  C   UNL     1       9.468  -0.726  23.418  0.00  0.00    +0.090 A 
ATOM     19 CL   UNL     1      10.193  -1.186  21.906  0.00  0.00    -0.079 Cl
ATOM     20  C   UNL     1       8.814   0.521  23.550  0.00  0.00    +0.184 A 
ATOM     21  C   UNL     1       8.109   0.820  24.740  0.00  0.00    +0.205 A 
BRANCH  15  23
ATOM     22  C   UNL     1       6.401  -0.335  27.387  0.00  0.00    +0.277 C 
ATOM     23  O   UNL     1       7.596   0.334  27.012  0.00  0.00    -0.491 OA
ENDBRANCH  15  23
BRANCH  20  24
ATOM     24  O   UNL     1       8.672   1.423  22.515  0.00  0.00    -0.490 OA
ATOM     25  C   UNL     1       9.814   2.233  22.236  0.00  0.00    +0.277 C 
ENDBRANCH  20  24
BRANCH  21  26
ATOM     26  O   UNL     1       7.371   1.987  24.725  0.00  0.00    -0.488 OA
ATOM     27  C   UNL     1       7.962   3.125  25.353  0.00  0.00    +0.277 C 
ENDBRANCH  21  26
ENDBRANCH  14  17
ENDBRANCH   1  14
BRANCH   2  28
ATOM     28  C   UNL     1       7.536  -4.007  22.475  0.00  0.00    +0.126 C 
BRANCH  28  29
ATOM     29  C   UNL     1       6.230  -3.275  22.263  0.00  0.00    +0.034 C 
BRANCH  29  30
ATOM     30  C   UNL     1       6.190  -1.986  23.051  0.00  0.00    +0.090 C 
BRANCH  30  31
ATOM     31  C   UNL     1       5.317  -2.289  24.258  0.00  0.00    -0.106 C 
ATOM     32  C   UNL     1       4.568  -2.549  25.294  0.00  0.00    +0.004 C 
ENDBRANCH  30  31
ENDBRANCH  29  30
ENDBRANCH  28  29
ENDBRANCH   2  28
TORSDOF 10
ENDMDL
MODEL 7
REMARK VINA RESULT:      -5.8      4.237      7.079
REMARK  Name = 
REMARK  13 active torsions:
REMARK  status: ('A' for Active; 'I' for Inactive)
REMARK    1  A    between atoms: C_1  and  O_2
REMARK    2  A    between atoms: O_2  and  C_3
REMARK    3  A    between atoms: C_4  and  O_5
REMARK    4  A    between atoms: O_5  and  C_6
REMARK    5  A    between atoms: C_7  and  O_8
REMARK    6  A    between atoms: O_8  and  C_9
REMARK    7  A    between atoms: C_12  and  C_13
REMARK    8  A    between atoms: C_13  and  C_14
REMARK    9  A    between atoms: C_17  and  N_18
REMARK   10  A    between atoms: N_24  and  C_25
REMARK   11  A    between atoms: C_25  and  C_26
REMARK   12  A    between atoms: C_26  and  C_27
REMARK   13  A    between atoms: C_27  and  C_28
REMARK                            x       y       z     vdW  Elec       q    Type
REMARK                         _______ _______ _______ _____ _____    ______ ____
ROOT
ATOM      1  C   UNL     1       7.115  -2.557  25.048  0.00  0.00    +0.116 A 
ATOM      2  N   UNL     1       7.822  -3.097  23.988  0.00  0.00    -0.312 N 
ATOM      3  C   UNL     1       6.988  -3.958  23.318  0.00  0.00    +0.168 A 
ATOM      4  C   UNL     1       5.766  -3.849  23.949  0.00  0.00    +0.148 A 
ATOM      5  C   UNL     1       4.699  -4.544  23.343  0.00  0.00    +0.150 A 
ATOM      6  N   UNL     1       4.935  -5.277  22.234  0.00  0.00    -0.185 NA
ATOM      7  C   UNL     1       6.185  -5.312  21.741  0.00  0.00    +0.313 A 
ATOM      8  F   UNL     1       6.365  -6.016  20.613  0.00  0.00    -0.161 F 
ATOM      9  N   UNL     1       7.270  -4.696  22.233  0.00  0.00    -0.182 NA
ATOM     10  N   UNL     1       5.870  -3.021  25.052  0.00  0.00    -0.227 NA
ENDROOT
BRANCH   5  11
ATOM     11  N   UNL     1       3.383  -4.519  23.798  0.00  0.00    -0.341 N 
ATOM     12  H   UNL     1       2.824  -3.836  23.323  0.00  0.00    +0.144 HD
ATOM     13  H   UNL     1       2.982  -5.437  23.963  0.00  0.00    +0.144 HD
ENDBRANCH   5  11
BRANCH   1  14
ATOM     14  C   UNL     1       7.640  -1.439  25.922  0.00  0.00    +0.111 C 
BRANCH  14  17
ATOM     15  C   UNL     1       6.948   1.570  23.729  0.00  0.00    +0.166 A 
ATOM     16  C   UNL     1       6.975   0.259  24.222  0.00  0.00    +0.055 A 
ATOM     17  C   UNL     1       7.209  -0.019  25.578  0.00  0.00    -0.015 A 
ATOM     18  C   UNL     1       7.252   1.062  26.487  0.00  0.00    +0.090 A 
ATOM     19 CL   UNL     1       7.492   0.737  28.178  0.00  0.00    -0.079 Cl
ATOM     20  C   UNL     1       7.178   2.394  26.016  0.00  0.00    +0.184 A 
ATOM     21  C   UNL     1       7.124   2.643  24.624  0.00  0.00    +0.205 A 
BRANCH  15  23
ATOM     22  C   UNL     1       7.944   1.716  21.548  0.00  0.00    +0.277 C 
ATOM     23  O   UNL     1       6.815   1.860  22.398  0.00  0.00    -0.491 OA
ENDBRANCH  15  23
BRANCH  20  24
ATOM     24  O   UNL     1       7.322   3.501  26.827  0.00  0.00    -0.490 OA
ATOM     25  C   UNL     1       6.138   3.942  27.492  0.00  0.00    +0.277 C 
ENDBRANCH  20  24
BRANCH  21  26
ATOM     26  O   UNL     1       7.211   3.968  24.246  0.00  0.00    -0.488 OA
ATOM     27  C   UNL     1       8.512   4.454  23.914  0.00  0.00    +0.277 C 
ENDBRANCH  21  26
ENDBRANCH  14  17
ENDBRANCH   1  14
BRANCH   2  28
ATOM     28  C   UNL     1       9.154  -2.718  23.567  0.00  0.00    +0.126 C 
BRANCH  28  29
ATOM     29  C   UNL     1       9.169  -1.750  22.405  0.00  0.00    +0.034 C 
BRANCH  29  30
ATOM     30  C   UNL     1      10.506  -1.058  22.284  0.00  0.00    +0.090 C 
BRANCH  30  31
ATOM     31  C   UNL     1      10.568  -0.108  23.468  0.00  0.00    -0.106 C 
ATOM     32  C   UNL     1      10.621   0.707  24.485  0.00  0.00    +0.004 C 
ENDBRANCH  30  31
ENDBRANCH  29  30
ENDBRANCH  28  29
ENDBRANCH   2  28
TORSDOF 10
ENDMDL
MODEL 8
REMARK VINA RESULT:      -5.8      3.875      6.709
REMARK  Name = 
REMARK  13 active torsions:
REMARK  status: ('A' for Active; 'I' for Inactive)
REMARK    1  A    between atoms: C_1  and  O_2
REMARK    2  A    between atoms: O_2  and  C_3
REMARK    3  A    between atoms: C_4  and  O_5
REMARK    4  A    between atoms: O_5  and  C_6
REMARK    5  A    between atoms: C_7  and  O_8
REMARK    6  A    between atoms: O_8  and  C_9
REMARK    7  A    between atoms: C_12  and  C_13
REMARK    8  A    between atoms: C_13  and  C_14
REMARK    9  A    between atoms: C_17  and  N_18
REMARK   10  A    between atoms: N_24  and  C_25
REMARK   11  A    between atoms: C_25  and  C_26
REMARK   12  A    between atoms: C_26  and  C_27
REMARK   13  A    between atoms: C_27  and  C_28
REMARK                            x       y       z     vdW  Elec       q    Type
REMARK                         _______ _______ _______ _____ _____    ______ ____
ROOT
ATOM      1  C   UNL     1       7.804  -3.190  25.486  0.00  0.00    +0.116 A 
ATOM      2  N   UNL     1       8.192  -3.381  24.172  0.00  0.00    -0.312 N 
ATOM      3  C   UNL     1       7.443  -4.408  23.654  0.00  0.00    +0.168 A 
ATOM      4  C   UNL     1       6.558  -4.755  24.654  0.00  0.00    +0.148 A 
ATOM      5  C   UNL     1       5.579  -5.707  24.302  0.00  0.00    +0.150 A 
ATOM      6  N   UNL     1       5.583  -6.230  23.058  0.00  0.00    -0.185 NA
ATOM      7  C   UNL     1       6.524  -5.815  22.190  0.00  0.00    +0.313 A 
ATOM      8  F   UNL     1       6.464  -6.326  20.952  0.00  0.00    -0.161 F 
ATOM      9  N   UNL     1       7.499  -4.922  22.416  0.00  0.00    -0.182 NA
ATOM     10  N   UNL     1       6.827  -4.032  25.802  0.00  0.00    -0.227 NA
ENDROOT
BRANCH   5  11
ATOM     11  N   UNL     1       4.569  -6.150  25.153  0.00  0.00    -0.341 N 
ATOM     12  H   UNL     1       3.808  -5.501  25.219  0.00  0.00    +0.144 HD
ATOM     13  H   UNL     1       4.351  -7.138  25.062  0.00  0.00    +0.144 HD
ENDBRANCH   5  11
BRANCH   1  14
ATOM     14  C   UNL     1       8.283  -2.038  26.342  0.00  0.00    +0.111 C 
BRANCH  14  17
ATOM     15  C   UNL     1       5.363   0.350  25.993  0.00  0.00    +0.166 A 
ATOM     16  C   UNL     1       6.195  -0.680  26.453  0.00  0.00    +0.055 A 
ATOM     17  C   UNL     1       7.572  -0.700  26.179  0.00  0.00    -0.015 A 
ATOM     18  C   UNL     1       8.151   0.434  25.568  0.00  0.00    +0.090 A 
ATOM     19 CL   UNL     1       9.863   0.450  25.265  0.00  0.00    -0.079 Cl
ATOM     20  C   UNL     1       7.337   1.508  25.139  0.00  0.00    +0.184 A 
ATOM     21  C   UNL     1       5.930   1.415  25.267  0.00  0.00    +0.205 A 
BRANCH  15  23
ATOM     22  C   UNL     1       3.483   0.458  27.483  0.00  0.00    +0.277 C 
ATOM     23  O   UNL     1       4.006   0.342  26.168  0.00  0.00    -0.491 OA
ENDBRANCH  15  23
BRANCH  20  24
ATOM     24  O   UNL     1       7.813   2.597  24.439  0.00  0.00    -0.490 OA
ATOM     25  C   UNL     1       8.386   3.640  25.226  0.00  0.00    +0.277 C 
ENDBRANCH  20  24
BRANCH  21  26
ATOM     26  O   UNL     1       5.204   2.435  24.684  0.00  0.00    -0.488 OA
ATOM     27  C   UNL     1       4.734   3.464  25.554  0.00  0.00    +0.277 C 
ENDBRANCH  21  26
ENDBRANCH  14  17
ENDBRANCH   1  14
BRANCH   2  28
ATOM     28  C   UNL     1       9.117  -2.555  23.425  0.00  0.00    +0.126 C 
BRANCH  28  29
ATOM     29  C   UNL     1       8.438  -1.531  22.543  0.00  0.00    +0.034 C 
BRANCH  29  30
ATOM     30  C   UNL     1       9.342  -1.094  21.414  0.00  0.00    +0.090 C 
BRANCH  30  31
ATOM     31  C   UNL     1       9.605   0.382  21.669  0.00  0.00    -0.106 C 
ATOM     32  C   UNL     1       9.831   1.647  21.888  0.00  0.00    +0.004 C 
ENDBRANCH  30  31
ENDBRANCH  29  30
ENDBRANCH  28  29
ENDBRANCH   2  28
TORSDOF 10
ENDMDL
MODEL 9
REMARK VINA RESULT:      -5.7      2.280      3.780
REMARK  Name = 
REMARK  13 active torsions:
REMARK  status: ('A' for Active; 'I' for Inactive)
REMARK    1  A    between atoms: C_1  and  O_2
REMARK    2  A    between atoms: O_2  and  C_3
REMARK    3  A    between atoms: C_4  and  O_5
REMARK    4  A    between atoms: O_5  and  C_6
REMARK    5  A    between atoms: C_7  and  O_8
REMARK    6  A    between atoms: O_8  and  C_9
REMARK    7  A    between atoms: C_12  and  C_13
REMARK    8  A    between atoms: C_13  and  C_14
REMARK    9  A    between atoms: C_17  and  N_18
REMARK   10  A    between atoms: N_24  and  C_25
REMARK   11  A    between atoms: C_25  and  C_26
REMARK   12  A    between atoms: C_26  and  C_27
REMARK   13  A    between atoms: C_27  and  C_28
REMARK                            x       y       z     vdW  Elec       q    Type
REMARK                         _______ _______ _______ _____ _____    ______ ____
ROOT
ATOM      1  C   UNL     1       8.750  -2.384  25.267  0.00  0.00    +0.116 A 
ATOM      2  N   UNL     1       8.985  -1.119  25.779  0.00  0.00    -0.312 N 
ATOM      3  C   UNL     1       9.476  -0.337  24.764  0.00  0.00    +0.168 A 
ATOM      4  C   UNL     1       9.445  -1.135  23.639  0.00  0.00    +0.148 A 
ATOM      5  C   UNL     1       9.776  -0.497  22.425  0.00  0.00    +0.150 A 
ATOM      6  N   UNL     1      10.123   0.807  22.439  0.00  0.00    -0.185 NA
ATOM      7  C   UNL     1      10.134   1.457  23.617  0.00  0.00    +0.313 A 
ATOM      8  F   UNL     1      10.441   2.762  23.579  0.00  0.00    -0.161 F 
ATOM      9  N   UNL     1       9.842   0.953  24.825  0.00  0.00    -0.182 NA
ATOM     10  N   UNL     1       9.045  -2.417  23.973  0.00  0.00    -0.227 NA
ENDROOT
BRANCH   5  11
ATOM     11  N   UNL     1       9.755  -1.117  21.179  0.00  0.00    -0.341 N 
ATOM     12  H   UNL     1       9.681  -0.462  20.424  0.00  0.00    +0.144 HD
ATOM     13  H   UNL     1      10.412  -1.885  21.084  0.00  0.00    +0.144 HD
ENDBRANCH   5  11
BRANCH   1  14
ATOM     14  C   UNL     1       8.050  -3.482  26.038  0.00  0.00    +0.111 C 
BRANCH  14  17
ATOM     15  C   UNL     1       5.844  -5.338  23.582  0.00  0.00    +0.166 A 
ATOM     16  C   UNL     1       6.893  -5.022  24.456  0.00  0.00    +0.055 A 
ATOM     17  C   UNL     1       6.759  -4.039  25.450  0.00  0.00    -0.015 A 
ATOM     18  C   UNL     1       5.482  -3.480  25.674  0.00  0.00    +0.090 A 
ATOM     19 CL   UNL     1       5.285  -2.297  26.932  0.00  0.00    -0.079 Cl
ATOM     20  C   UNL     1       4.396  -3.822  24.834  0.00  0.00    +0.184 A 
ATOM     21  C   UNL     1       4.608  -4.679  23.728  0.00  0.00    +0.205 A 
BRANCH  15  23
ATOM     22  C   UNL     1       6.550  -5.773  21.329  0.00  0.00    +0.277 C 
ATOM     23  O   UNL     1       5.980  -6.224  22.548  0.00  0.00    -0.491 OA
ENDBRANCH  15  23
BRANCH  20  24
ATOM     24  O   UNL     1       3.149  -3.237  24.921  0.00  0.00    -0.490 OA
ATOM     25  C   UNL     1       2.289  -3.756  25.935  0.00  0.00    +0.277 C 
ENDBRANCH  20  24
BRANCH  21  26
ATOM     26  O   UNL     1       3.535  -4.835  22.874  0.00  0.00    -0.488 OA
ATOM     27  C   UNL     1       2.739  -6.007  23.054  0.00  0.00    +0.277 C 
ENDBRANCH  21  26
ENDBRANCH  14  17
ENDBRANCH   1  14
BRANCH   2  28
ATOM     28  C   UNL     1       8.640  -0.657  27.107  0.00  0.00    +0.126 C 
BRANCH  28  29
ATOM     29  C   UNL     1       7.399   0.206  27.143  0.00  0.00    +0.034 C 
BRANCH  29  30
ATOM     30  C   UNL     1       7.299   0.969  28.443  0.00  0.00    +0.090 C 
BRANCH  30  31
ATOM     31  C   UNL     1       5.812   1.032  28.751  0.00  0.00    -0.106 C 
ATOM     32  C   UNL     1       4.536   1.086  29.014  0.00  0.00    +0.004 C 
ENDBRANCH  30  31
ENDBRANCH  29  30
ENDBRANCH  28  29
ENDBRANCH   2  28
TORSDOF 10
ENDMDL
