MODEL 1
REMARK VINA RESULT:     -13.1      0.000      0.000
REMARK  Name = 
REMARK  7 active torsions:
REMARK  status: ('A' for Active; 'I' for Inactive)
REMARK    1  A    between atoms: C_5  and  O_6
REMARK    2  A    between atoms: C_5  and  C_7
REMARK    3  A    between atoms: C_7  and  C_8
REMARK    4  A    between atoms: C_10  and  C_11
REMARK    5  A    between atoms: C_13  and  O_15
REMARK    6  A    between atoms: C_21  and  C_23
REMARK    7  A    between atoms: C_30  and  C_31
REMARK                            x       y       z     vdW  Elec       q    Type
REMARK                         _______ _______ _______ _____ _____    ______ ____
ROOT
ATOM      1  C   UNL     1       9.957   1.623  22.047  0.00  0.00    +0.005 C 
ATOM      2  C   UNL     1       9.957   1.623  22.047  0.00  0.00    +0.034 C 
ATOM      3  C   UNL     1       9.957   1.623  22.047  0.00  0.00    +0.014 C 
ATOM      4  C   UNL     1       9.957   1.623  22.047  0.00  0.00    +0.013 C 
ATOM      5  C   UNL     1       9.405  -0.210  21.328  0.00  0.00    +0.012 C 
ATOM      6  C   UNL     1       6.900  -0.053  26.240  0.00  0.00    -0.050 C 
ATOM      7  C   UNL     1       9.957   1.623  22.047  0.00  0.00    +0.045 C 
ATOM      8  C   UNL     1       9.957   1.623  22.047  0.00  0.00    +0.023 C 
ATOM      9  C   UNL     1       9.957   1.623  22.047  0.00  0.00    -0.009 C 
ATOM     10  C   UNL     1       9.957   1.623  22.047  0.00  0.00    +0.047 C 
ATOM     11  C   UNL     1       9.957   1.623  22.047  0.00  0.00    +0.179 C 
ATOM     12  O   UNL     1       9.957   1.623  22.047  0.00  0.00    -0.288 OA
ATOM     13  C   UNL     1       8.572   2.132  22.110  0.00  0.00    +0.051 C 
ATOM     14  C   UNL     1       9.957   1.623  22.047  0.00  0.00    +0.153 C 
ATOM     15  F   UNL     1       9.957   1.623  22.047  0.00  0.00    -0.238 F 
ATOM     16  C   UNL     1       9.957   1.623  22.047  0.00  0.00    +0.154 C 
ATOM     17  C   UNL     1       9.957   1.623  22.047  0.00  0.00    +0.044 C 
ATOM     18  C   UNL     1       9.957   1.623  22.047  0.00  0.00    +0.009 C 
ATOM     19  C   UNL     1       9.957   1.623  22.047  0.00  0.00    +0.015 C 
ATOM     20  C   UNL     1       9.780   3.230  23.788  0.00  0.00    +0.129 C 
ATOM     21  C   UNL     1       9.957   1.623  22.047  0.00  0.00    +0.043 C 
ATOM     22  C   UNL     1       9.957   1.623  22.047  0.00  0.00    +0.008 C 
ENDROOT
BRANCH  20  23
ATOM     23  C   UNL     1       9.957   1.623  22.047  0.00  0.00    +0.162 C 
ATOM     24  O   UNL     1      10.771   1.567  24.327  0.00  0.00    -0.295 OA
ATOM     25  C   UNL     1      11.013   1.986  23.703  0.00  0.00    +0.089 C 
ENDBRANCH  20  23
BRANCH  16  26
ATOM     26  O   UNL     1       7.185   2.399  21.405  0.00  0.00    -0.389 OA
ATOM     27  H   UNL     1       4.973   2.343  21.120  0.00  0.00    +0.210 HD
ENDBRANCH  16  26
BRANCH  20  28
ATOM     28  O   UNL     1       7.794   3.287  22.706  0.00  0.00    -0.381 OA
ATOM     29  H   UNL     1       6.440   3.232  22.458  0.00  0.00    +0.211 HD
ENDBRANCH  20  28
TORSDOF 3
ENDMDL
MODEL 2
REMARK VINA RESULT:     -13.0      1.428      2.337
REMARK  Name = 
REMARK  7 active torsions:
REMARK  status: ('A' for Active; 'I' for Inactive)
REMARK    1  A    between atoms: C_5  and  O_6
REMARK    2  A    between atoms: C_5  and  C_7
REMARK    3  A    between atoms: C_7  and  C_8
REMARK    4  A    between atoms: C_10  and  C_11
REMARK    5  A    between atoms: C_13  and  O_15
REMARK    6  A    between atoms: C_21  and  C_23
REMARK    7  A    between atoms: C_30  and  C_31
REMARK                            x       y       z     vdW  Elec       q    Type
REMARK                         _______ _______ _______ _____ _____    ______ ____
ROOT
ATOM      1  C   UNL     1       9.504   0.406  21.629  0.00  0.00    +0.005 C 
ATOM      2  C   UNL     1       9.504   0.406  21.629  0.00  0.00    +0.034 C 
ATOM      3  C   UNL     1       9.504   0.406  21.629  0.00  0.00    +0.014 C 
ATOM      4  C   UNL     1       9.504   0.406  21.629  0.00  0.00    +0.013 C 
ATOM      5  C   UNL     1       8.128   1.910  21.465  0.00  0.00    +0.012 C 
ATOM      6  C   UNL     1       6.717  -0.485  26.230  0.00  0.00    -0.050 C 
ATOM      7  C   UNL     1       9.504   0.406  21.629  0.00  0.00    +0.045 C 
ATOM      8  C   UNL     1       9.504   0.406  21.629  0.00  0.00    +0.023 C 
ATOM      9  C   UNL     1       9.504   0.406  21.629  0.00  0.00    -0.009 C 
ATOM     10  C   UNL     1       9.504   0.406  21.629  0.00  0.00    +0.047 C 
ATOM     11  C   UNL     1       9.504   0.406  21.629  0.00  0.00    +0.179 C 
ATOM     12  O   UNL     1       9.504   0.406  21.629  0.00  0.00    -0.288 OA
ATOM     13  C   UNL     1      10.089   0.935  22.877  0.00  0.00    +0.051 C 
ATOM     14  C   UNL     1       9.504   0.406  21.629  0.00  0.00    +0.153 C 
ATOM     15  F   UNL     1       9.504   0.406  21.629  0.00  0.00    -0.238 F 
ATOM     16  C   UNL     1       9.504   0.406  21.629  0.00  0.00    +0.154 C 
ATOM     17  C   UNL     1       9.504   0.406  21.629  0.00  0.00    +0.044 C 
ATOM     18  C   UNL     1       9.504   0.406  21.629  0.00  0.00    +0.009 C 
ATOM     19  C   UNL     1       9.504   0.406  21.629  0.00  0.00    +0.015 C 
ATOM     20  C   UNL     1      10.368  -1.388  22.924  0.00  0.00    +0.129 C 
ATOM     21  C   UNL     1       9.504   0.406  21.629  0.00  0.00    +0.043 C 
ATOM     22  C   UNL     1       9.504   0.406  21.629  0.00  0.00    +0.008 C 
ENDROOT
BRANCH  20  23
ATOM     23  C   UNL     1       9.504   0.406  21.629  0.00  0.00    +0.162 C 
ATOM     24  O   UNL     1       8.597  -1.796  22.066  0.00  0.00    -0.295 OA
ATOM     25  C   UNL     1       9.209  -1.569  21.621  0.00  0.00    +0.089 C 
ENDBRANCH  20  23
BRANCH  16  26
ATOM     26  O   UNL     1      10.732   2.132  23.681  0.00  0.00    -0.389 OA
ATOM     27  H   UNL     1      12.069   3.593  24.708  0.00  0.00    +0.210 HD
ENDBRANCH  16  26
BRANCH  20  28
ATOM     28  O   UNL     1      11.015   0.497  23.994  0.00  0.00    -0.381 OA
ATOM     29  H   UNL     1      11.086   1.814  24.391  0.00  0.00    +0.211 HD
ENDBRANCH  20  28
TORSDOF 3
ENDMDL
MODEL 3
REMARK VINA RESULT:     -12.8      3.577      4.439
REMARK  Name = 
REMARK  7 active torsions:
REMARK  status: ('A' for Active; 'I' for Inactive)
REMARK    1  A    between atoms: C_5  and  O_6
REMARK    2  A    between atoms: C_5  and  C_7
REMARK    3  A    between atoms: C_7  and  C_8
REMARK    4  A    between atoms: C_10  and  C_11
REMARK    5  A    between atoms: C_13  and  O_15
REMARK    6  A    between atoms: C_21  and  C_23
REMARK    7  A    between atoms: C_30  and  C_31
REMARK                            x       y       z     vdW  Elec       q    Type
REMARK                         _______ _______ _______ _____ _____    ______ ____
ROOT
ATOM      1  C   UNL     1       9.833  -2.492  23.831  0.00  0.00    +0.005 C 
ATOM      2  C   UNL     1       9.833  -2.492  23.831  0.00  0.00    +0.034 C 
ATOM      3  C   UNL     1       9.833  -2.492  23.831  0.00  0.00    +0.014 C 
ATOM      4  C   UNL     1       9.833  -2.492  23.831  0.00  0.00    +0.013 C 
ATOM      5  C   UNL     1       9.714  -4.219  24.919  0.00  0.00    +0.012 C 
ATOM      6  C   UNL     1       5.274  -1.427  26.626  0.00  0.00    -0.050 C 
ATOM      7  C   UNL     1       9.833  -2.492  23.831  0.00  0.00    +0.045 C 
ATOM      8  C   UNL     1       9.833  -2.492  23.831  0.00  0.00    +0.023 C 
ATOM      9  C   UNL     1       9.833  -2.492  23.831  0.00  0.00    -0.009 C 
ATOM     10  C   UNL     1       9.833  -2.492  23.831  0.00  0.00    +0.047 C 
ATOM     11  C   UNL     1       9.833  -2.492  23.831  0.00  0.00    +0.179 C 
ATOM     12  O   UNL     1       9.833  -2.492  23.831  0.00  0.00    -0.288 OA
ATOM     13  C   UNL     1       8.552  -2.721  23.132  0.00  0.00    +0.051 C 
ATOM     14  C   UNL     1       9.833  -2.492  23.831  0.00  0.00    +0.153 C 
ATOM     15  F   UNL     1       9.833  -2.492  23.831  0.00  0.00    -0.238 F 
ATOM     16  C   UNL     1       9.833  -2.492  23.831  0.00  0.00    +0.154 C 
ATOM     17  C   UNL     1       9.833  -2.492  23.831  0.00  0.00    +0.044 C 
ATOM     18  C   UNL     1       9.833  -2.492  23.831  0.00  0.00    +0.009 C 
ATOM     19  C   UNL     1       9.833  -2.492  23.831  0.00  0.00    +0.015 C 
ATOM     20  C   UNL     1       8.849  -0.403  23.273  0.00  0.00    +0.129 C 
ATOM     21  C   UNL     1       9.833  -2.492  23.831  0.00  0.00    +0.043 C 
ATOM     22  C   UNL     1       9.833  -2.492  23.831  0.00  0.00    +0.008 C 
ENDROOT
BRANCH  20  23
ATOM     23  C   UNL     1       9.833  -2.492  23.831  0.00  0.00    +0.162 C 
ATOM     24  O   UNL     1      10.136  -0.300  24.813  0.00  0.00    -0.295 OA
ATOM     25  C   UNL     1      10.374  -0.591  24.119  0.00  0.00    +0.089 C 
ENDBRANCH  20  23
BRANCH  16  26
ATOM     26  O   UNL     1       7.619  -3.655  22.267  0.00  0.00    -0.389 OA
ATOM     27  H   UNL     1       6.444  -4.957  20.888  0.00  0.00    +0.210 HD
ENDBRANCH  16  26
BRANCH  20  28
ATOM     28  O   UNL     1       7.556  -1.967  22.274  0.00  0.00    -0.381 OA
ATOM     29  H   UNL     1       6.524  -2.846  22.030  0.00  0.00    +0.211 HD
ENDBRANCH  20  28
TORSDOF 3
ENDMDL
MODEL 4
REMARK VINA RESULT:     -12.7      0.940      2.154
REMARK  Name = 
REMARK  7 active torsions:
REMARK  status: ('A' for Active; 'I' for Inactive)
REMARK    1  A    between atoms: C_5  and  O_6
REMARK    2  A    between atoms: C_5  and  C_7
REMARK    3  A    between atoms: C_7  and  C_8
REMARK    4  A    between atoms: C_10  and  C_11
REMARK    5  A    between atoms: C_13  and  O_15
REMARK    6  A    between atoms: C_21  and  C_23
REMARK    7  A    between atoms: C_30  and  C_31
REMARK                            x       y       z     vdW  Elec       q    Type
REMARK                         _______ _______ _______ _____ _____    ______ ____
ROOT
ATOM      1  C   UNL     1       9.993   1.698  22.095  0.00  0.00    +0.005 C 
ATOM      2  C   UNL     1       9.993   1.698  22.095  0.00  0.00    +0.034 C 
ATOM      3  C   UNL     1       9.993   1.698  22.095  0.00  0.00    +0.014 C 
ATOM      4  C   UNL     1       9.993   1.698  22.095  0.00  0.00    +0.013 C 
ATOM      5  C   UNL     1      11.005   3.321  22.820  0.00  0.00    +0.012 C 
ATOM      6  C   UNL     1       6.926   2.727  26.486  0.00  0.00    -0.050 C 
ATOM      7  C   UNL     1       9.993   1.698  22.095  0.00  0.00    +0.045 C 
ATOM      8  C   UNL     1       9.993   1.698  22.095  0.00  0.00    +0.023 C 
ATOM      9  C   UNL     1       9.993   1.698  22.095  0.00  0.00    -0.009 C 
ATOM     10  C   UNL     1       9.993   1.698  22.095  0.00  0.00    +0.047 C 
ATOM     11  C   UNL     1       9.993   1.698  22.095  0.00  0.00    +0.179 C 
ATOM     12  O   UNL     1       9.993   1.698  22.095  0.00  0.00    -0.288 OA
ATOM     13  C   UNL     1      10.245   0.874  23.295  0.00  0.00    +0.051 C 
ATOM     14  C   UNL     1       9.993   1.698  22.095  0.00  0.00    +0.153 C 
ATOM     15  F   UNL     1       9.993   1.698  22.095  0.00  0.00    -0.238 F 
ATOM     16  C   UNL     1       9.993   1.698  22.095  0.00  0.00    +0.154 C 
ATOM     17  C   UNL     1       9.993   1.698  22.095  0.00  0.00    +0.044 C 
ATOM     18  C   UNL     1       9.993   1.698  22.095  0.00  0.00    +0.009 C 
ATOM     19  C   UNL     1       9.993   1.698  22.095  0.00  0.00    +0.015 C 
ATOM     20  C   UNL     1       8.212   0.153  22.386  0.00  0.00    +0.129 C 
ATOM     21  C   UNL     1       9.993   1.698  22.095  0.00  0.00    +0.043 C 
ATOM     22  C   UNL     1       9.993   1.698  22.095  0.00  0.00    +0.008 C 
ENDROOT
BRANCH  20  23
ATOM     23  C   UNL     1       9.993   1.698  22.095  0.00  0.00    +0.162 C 
ATOM     24  O   UNL     1       7.628   1.918  21.623  0.00  0.00    -0.295 OA
ATOM     25  C   UNL     1       8.189   1.497  21.260  0.00  0.00    +0.089 C 
ENDBRANCH  20  23
BRANCH  16  26
ATOM     26  O   UNL     1      11.258   0.259  24.337  0.00  0.00    -0.389 OA
ATOM     27  H   UNL     1      12.748  -0.812  25.606  0.00  0.00    +0.210 HD
ENDBRANCH  16  26
BRANCH  20  28
ATOM     28  O   UNL     1       9.764  -0.414  23.931  0.00  0.00    -0.381 OA
ATOM     29  H   UNL     1      10.971  -0.555  24.577  0.00  0.00    +0.211 HD
ENDBRANCH  20  28
TORSDOF 3
ENDMDL
MODEL 5
REMARK VINA RESULT:     -12.5      3.330      4.456
REMARK  Name = 
REMARK  7 active torsions:
REMARK  status: ('A' for Active; 'I' for Inactive)
REMARK    1  A    between atoms: C_5  and  O_6
REMARK    2  A    between atoms: C_5  and  C_7
REMARK    3  A    between atoms: C_7  and  C_8
REMARK    4  A    between atoms: C_10  and  C_11
REMARK    5  A    between atoms: C_13  and  O_15
REMARK    6  A    between atoms: C_21  and  C_23
REMARK    7  A    between atoms: C_30  and  C_31
REMARK                            x       y       z     vdW  Elec       q    Type
REMARK                         _______ _______ _______ _____ _____    ______ ____
ROOT
ATOM      1  C   UNL     1       9.818  -2.267  23.735  0.00  0.00    +0.005 C 
ATOM      2  C   UNL     1       9.818  -2.267  23.735  0.00  0.00    +0.034 C 
ATOM      3  C   UNL     1       9.818  -2.267  23.735  0.00  0.00    +0.014 C 
ATOM      4  C   UNL     1       9.818  -2.267  23.735  0.00  0.00    +0.013 C 
ATOM      5  C   UNL     1       9.992  -1.448  21.869  0.00  0.00    +0.012 C 
ATOM      6  C   UNL     1       5.693   1.291  23.977  0.00  0.00    -0.050 C 
ATOM      7  C   UNL     1       9.818  -2.267  23.735  0.00  0.00    +0.045 C 
ATOM      8  C   UNL     1       9.818  -2.267  23.735  0.00  0.00    +0.023 C 
ATOM      9  C   UNL     1       9.818  -2.267  23.735  0.00  0.00    -0.009 C 
ATOM     10  C   UNL     1       9.818  -2.267  23.735  0.00  0.00    +0.047 C 
ATOM     11  C   UNL     1       9.818  -2.267  23.735  0.00  0.00    +0.179 C 
ATOM     12  O   UNL     1       9.818  -2.267  23.735  0.00  0.00    -0.288 OA
ATOM     13  C   UNL     1      10.076  -0.992  24.433  0.00  0.00    +0.051 C 
ATOM     14  C   UNL     1       9.818  -2.267  23.735  0.00  0.00    +0.153 C 
ATOM     15  F   UNL     1       9.818  -2.267  23.735  0.00  0.00    -0.238 F 
ATOM     16  C   UNL     1       9.818  -2.267  23.735  0.00  0.00    +0.154 C 
ATOM     17  C   UNL     1       9.818  -2.267  23.735  0.00  0.00    +0.044 C 
ATOM     18  C   UNL     1       9.818  -2.267  23.735  0.00  0.00    +0.009 C 
ATOM     19  C   UNL     1       9.818  -2.267  23.735  0.00  0.00    +0.015 C 
ATOM     20  C   UNL     1       8.693  -2.266  25.828  0.00  0.00    +0.129 C 
ATOM     21  C   UNL     1       9.818  -2.267  23.735  0.00  0.00    +0.043 C 
ATOM     22  C   UNL     1       9.818  -2.267  23.735  0.00  0.00    +0.008 C 
ENDROOT
BRANCH  20  23
ATOM     23  C   UNL     1       9.818  -2.267  23.735  0.00  0.00    +0.162 C 
ATOM     24  O   UNL     1       8.104  -3.743  24.599  0.00  0.00    -0.295 OA
ATOM     25  C   UNL     1       8.866  -3.670  24.791  0.00  0.00    +0.089 C 
ENDBRANCH  20  23
BRANCH  16  26
ATOM     26  O   UNL     1      10.983   0.281  24.657  0.00  0.00    -0.389 OA
ATOM     27  H   UNL     1      12.196   1.783  25.774  0.00  0.00    +0.210 HD
ENDBRANCH  16  26
BRANCH  20  28
ATOM     28  O   UNL     1       9.960  -0.392  25.821  0.00  0.00    -0.381 OA
ATOM     29  H   UNL     1      10.358   0.915  25.990  0.00  0.00    +0.211 HD
ENDBRANCH  20  28
TORSDOF 3
ENDMDL
MODEL 6
REMARK VINA RESULT:     -12.0      1.781      2.955
REMARK  Name = 
REMARK  7 active torsions:
REMARK  status: ('A' for Active; 'I' for Inactive)
REMARK    1  A    between atoms: C_5  and  O_6
REMARK    2  A    between atoms: C_5  and  C_7
REMARK    3  A    between atoms: C_7  and  C_8
REMARK    4  A    between atoms: C_10  and  C_11
REMARK    5  A    between atoms: C_13  and  O_15
REMARK    6  A    between atoms: C_21  and  C_23
REMARK    7  A    between atoms: C_30  and  C_31
REMARK                            x       y       z     vdW  Elec       q    Type
REMARK                         _______ _______ _______ _____ _____    ______ ____
ROOT
ATOM      1  C   UNL     1      10.784   0.747  24.470  0.00  0.00    +0.005 C 
ATOM      2  C   UNL     1      10.784   0.747  24.470  0.00  0.00    +0.034 C 
ATOM      3  C   UNL     1      10.784   0.747  24.470  0.00  0.00    +0.014 C 
ATOM      4  C   UNL     1      10.784   0.747  24.470  0.00  0.00    +0.013 C 
ATOM      5  C   UNL     1       9.787  -0.092  26.046  0.00  0.00    +0.012 C 
ATOM      6  C   UNL     1       5.690   2.108  23.078  0.00  0.00    -0.050 C 
ATOM      7  C   UNL     1      10.784   0.747  24.470  0.00  0.00    +0.045 C 
ATOM      8  C   UNL     1      10.784   0.747  24.470  0.00  0.00    +0.023 C 
ATOM      9  C   UNL     1      10.784   0.747  24.470  0.00  0.00    -0.009 C 
ATOM     10  C   UNL     1      10.784   0.747  24.470  0.00  0.00    +0.047 C 
ATOM     11  C   UNL     1      10.784   0.747  24.470  0.00  0.00    +0.179 C 
ATOM     12  O   UNL     1      10.784   0.747  24.470  0.00  0.00    -0.288 OA
ATOM     13  C   UNL     1      10.118  -0.101  23.461  0.00  0.00    +0.051 C 
ATOM     14  C   UNL     1      10.784   0.747  24.470  0.00  0.00    +0.153 C 
ATOM     15  F   UNL     1      10.784   0.747  24.470  0.00  0.00    -0.238 F 
ATOM     16  C   UNL     1      10.784   0.747  24.470  0.00  0.00    +0.154 C 
ATOM     17  C   UNL     1      10.784   0.747  24.470  0.00  0.00    +0.044 C 
ATOM     18  C   UNL     1      10.784   0.747  24.470  0.00  0.00    +0.009 C 
ATOM     19  C   UNL     1      10.784   0.747  24.470  0.00  0.00    +0.015 C 
ATOM     20  C   UNL     1      10.650   1.922  22.410  0.00  0.00    +0.129 C 
ATOM     21  C   UNL     1      10.784   0.747  24.470  0.00  0.00    +0.043 C 
ATOM     22  C   UNL     1      10.784   0.747  24.470  0.00  0.00    +0.008 C 
ENDROOT
BRANCH  20  23
ATOM     23  C   UNL     1      10.784   0.747  24.470  0.00  0.00    +0.162 C 
ATOM     24  O   UNL     1      10.141   3.035  24.004  0.00  0.00    -0.295 OA
ATOM     25  C   UNL     1      10.847   2.682  23.978  0.00  0.00    +0.089 C 
ENDBRANCH  20  23
BRANCH  16  26
ATOM     26  O   UNL     1       9.714  -1.534  22.938  0.00  0.00    -0.389 OA
ATOM     27  H   UNL     1       8.665  -2.751  21.390  0.00  0.00    +0.210 HD
ENDBRANCH  16  26
BRANCH  20  28
ATOM     28  O   UNL     1       9.931  -0.175  21.959  0.00  0.00    -0.381 OA
ATOM     29  H   UNL     1       9.587  -1.317  21.271  0.00  0.00    +0.211 HD
ENDBRANCH  20  28
TORSDOF 3
ENDMDL
MODEL 7
REMARK VINA RESULT:     -11.8      1.434      2.317
REMARK  Name = 
REMARK  7 active torsions:
REMARK  status: ('A' for Active; 'I' for Inactive)
REMARK    1  A    between atoms: C_5  and  O_6
REMARK    2  A    between atoms: C_5  and  C_7
REMARK    3  A    between atoms: C_7  and  C_8
REMARK    4  A    between atoms: C_10  and  C_11
REMARK    5  A    between atoms: C_13  and  O_15
REMARK    6  A    between atoms: C_21  and  C_23
REMARK    7  A    between atoms: C_30  and  C_31
REMARK                            x       y       z     vdW  Elec       q    Type
REMARK                         _______ _______ _______ _____ _____    ______ ____
ROOT
ATOM      1  C   UNL     1       9.542  -0.075  21.614  0.00  0.00    +0.005 C 
ATOM      2  C   UNL     1       9.542  -0.075  21.614  0.00  0.00    +0.034 C 
ATOM      3  C   UNL     1       9.542  -0.075  21.614  0.00  0.00    +0.014 C 
ATOM      4  C   UNL     1       9.542  -0.075  21.614  0.00  0.00    +0.013 C 
ATOM      5  C   UNL     1      11.048  -1.377  22.079  0.00  0.00    +0.012 C 
ATOM      6  C   UNL     1       8.694  -0.478  26.986  0.00  0.00    -0.050 C 
ATOM      7  C   UNL     1       9.542  -0.075  21.614  0.00  0.00    +0.045 C 
ATOM      8  C   UNL     1       9.542  -0.075  21.614  0.00  0.00    +0.023 C 
ATOM      9  C   UNL     1       9.542  -0.075  21.614  0.00  0.00    -0.009 C 
ATOM     10  C   UNL     1       9.542  -0.075  21.614  0.00  0.00    +0.047 C 
ATOM     11  C   UNL     1       9.542  -0.075  21.614  0.00  0.00    +0.179 C 
ATOM     12  O   UNL     1       9.542  -0.075  21.614  0.00  0.00    -0.288 OA
ATOM     13  C   UNL     1       8.471  -0.992  22.055  0.00  0.00    +0.051 C 
ATOM     14  C   UNL     1       9.542  -0.075  21.614  0.00  0.00    +0.153 C 
ATOM     15  F   UNL     1       9.542  -0.075  21.614  0.00  0.00    -0.238 F 
ATOM     16  C   UNL     1       9.542  -0.075  21.614  0.00  0.00    +0.154 C 
ATOM     17  C   UNL     1       9.542  -0.075  21.614  0.00  0.00    +0.044 C 
ATOM     18  C   UNL     1       9.542  -0.075  21.614  0.00  0.00    +0.009 C 
ATOM     19  C   UNL     1       9.542  -0.075  21.614  0.00  0.00    +0.015 C 
ATOM     20  C   UNL     1       7.677   1.187  22.374  0.00  0.00    +0.129 C 
ATOM     21  C   UNL     1       9.542  -0.075  21.614  0.00  0.00    +0.043 C 
ATOM     22  C   UNL     1       9.542  -0.075  21.614  0.00  0.00    +0.008 C 
ENDROOT
BRANCH  20  23
ATOM     23  C   UNL     1       9.542  -0.075  21.614  0.00  0.00    +0.162 C 
ATOM     24  O   UNL     1       9.434   2.139  22.589  0.00  0.00    -0.295 OA
ATOM     25  C   UNL     1       9.212   1.877  21.878  0.00  0.00    +0.089 C 
ENDBRANCH  20  23
BRANCH  16  26
ATOM     26  O   UNL     1       7.782  -2.411  21.996  0.00  0.00    -0.389 OA
ATOM     27  H   UNL     1       6.011  -3.768  21.962  0.00  0.00    +0.210 HD
ENDBRANCH  16  26
BRANCH  20  28
ATOM     28  O   UNL     1       6.989  -0.968  22.371  0.00  0.00    -0.381 OA
ATOM     29  H   UNL     1       6.441  -2.162  21.961  0.00  0.00    +0.211 HD
ENDBRANCH  20  28
TORSDOF 3
ENDMDL
MODEL 8
REMARK VINA RESULT:     -11.6      6.593      8.289
REMARK  Name = 
REMARK  7 active torsions:
REMARK  status: ('A' for Active; 'I' for Inactive)
REMARK    1  A    between atoms: C_5  and  O_6
REMARK    2  A    between atoms: C_5  and  C_7
REMARK    3  A    between atoms: C_7  and  C_8
REMARK    4  A    between atoms: C_10  and  C_11
REMARK    5  A    between atoms: C_13  and  O_15
REMARK    6  A    between atoms: C_21  and  C_23
REMARK    7  A    between atoms: C_30  and  C_31
REMARK                            x       y       z     vdW  Elec       q    Type
REMARK                         _______ _______ _______ _____ _____    ______ ____
ROOT
ATOM      1  C   UNL     1       7.972  -5.071  26.776  0.00  0.00    +0.005 C 
ATOM      2  C   UNL     1       7.972  -5.071  26.776  0.00  0.00    +0.034 C 
ATOM      3  C   UNL     1       7.972  -5.071  26.776  0.00  0.00    +0.014 C 
ATOM      4  C   UNL     1       7.972  -5.071  26.776  0.00  0.00    +0.013 C 
ATOM      5  C   UNL     1       9.530  -5.312  25.473  0.00  0.00    +0.012 C 
ATOM      6  C   UNL     1       5.527  -3.387  22.202  0.00  0.00    -0.050 C 
ATOM      7  C   UNL     1       7.972  -5.071  26.776  0.00  0.00    +0.045 C 
ATOM      8  C   UNL     1       7.972  -5.071  26.776  0.00  0.00    +0.023 C 
ATOM      9  C   UNL     1       7.972  -5.071  26.776  0.00  0.00    -0.009 C 
ATOM     10  C   UNL     1       7.972  -5.071  26.776  0.00  0.00    +0.047 C 
ATOM     11  C   UNL     1       7.972  -5.071  26.776  0.00  0.00    +0.179 C 
ATOM     12  O   UNL     1       7.972  -5.071  26.776  0.00  0.00    -0.288 OA
ATOM     13  C   UNL     1       7.883  -3.613  26.564  0.00  0.00    +0.051 C 
ATOM     14  C   UNL     1       7.972  -5.071  26.776  0.00  0.00    +0.153 C 
ATOM     15  F   UNL     1       7.972  -5.071  26.776  0.00  0.00    -0.238 F 
ATOM     16  C   UNL     1       7.972  -5.071  26.776  0.00  0.00    +0.154 C 
ATOM     17  C   UNL     1       7.972  -5.071  26.776  0.00  0.00    +0.044 C 
ATOM     18  C   UNL     1       7.972  -5.071  26.776  0.00  0.00    +0.009 C 
ATOM     19  C   UNL     1       7.972  -5.071  26.776  0.00  0.00    +0.015 C 
ATOM     20  C   UNL     1       5.732  -4.356  27.112  0.00  0.00    +0.129 C 
ATOM     21  C   UNL     1       7.972  -5.071  26.776  0.00  0.00    +0.043 C 
ATOM     22  C   UNL     1       7.972  -5.071  26.776  0.00  0.00    +0.008 C 
ENDROOT
BRANCH  20  23
ATOM     23  C   UNL     1       7.972  -5.071  26.776  0.00  0.00    +0.162 C 
ATOM     24  O   UNL     1       5.939  -6.354  27.062  0.00  0.00    -0.295 OA
ATOM     25  C   UNL     1       6.356  -5.927  27.579  0.00  0.00    +0.089 C 
ENDBRANCH  20  23
BRANCH  16  26
ATOM     26  O   UNL     1       8.577  -2.195  26.532  0.00  0.00    -0.389 OA
ATOM     27  H   UNL     1       9.020  -0.066  27.028  0.00  0.00    +0.210 HD
ENDBRANCH  16  26
BRANCH  20  28
ATOM     28  O   UNL     1       6.940  -2.461  26.849  0.00  0.00    -0.381 OA
ATOM     29  H   UNL     1       7.341  -1.147  26.934  0.00  0.00    +0.211 HD
ENDBRANCH  20  28
TORSDOF 3
ENDMDL
