MODEL 1
REMARK VINA RESULT:      -7.9      0.000      0.000
REMARK  Name = 
REMARK  12 active torsions:
REMARK  status: ('A' for Active; 'I' for Inactive)
REMARK    1  A    between atoms: C_1  and  C_2
REMARK    2  A    between atoms: C_2  and  C_3
REMARK    3  A    between atoms: C_3  and  O_4
REMARK    4  A    between atoms: C_6  and  O_8
REMARK    5  A    between atoms: O_8  and  C_9
REMARK    6  A    between atoms: C_12  and  N_21
REMARK    7  A    between atoms: C_14  and  O_16
REMARK    8  A    between atoms: C_17  and  C_19
REMARK    9  A    between atoms: N_21  and  C_22
REMARK   10  A    between atoms: N_21  and  C_23
REMARK   11  A    between atoms: C_25  and  O_26
REMARK   12  A    between atoms: C_38  and  O_39
REMARK                            x       y       z     vdW  Elec       q    Type
REMARK                         _______ _______ _______ _____ _____    ______ ____
ROOT
ATOM      1  C   UNL     1       7.267  -4.654  22.917  0.00  0.00    +0.072 C 
ATOM      2  C   UNL     1       7.855  -3.391  22.258  0.00  0.00    +0.070 C 
ATOM      3  C   UNL     1       7.952  -2.234  23.238  0.00  0.00    -0.035 A 
ATOM      4  C   UNL     1       7.894  -2.424  24.635  0.00  0.00    +0.027 A 
ATOM      5  C   UNL     1       7.823  -1.282  25.465  0.00  0.00    +0.134 A 
ATOM      6  C   UNL     1       7.868   0.026  24.941  0.00  0.00    +0.075 A 
ATOM      7  C   UNL     1       7.660   1.237  25.787  0.00  0.00    +0.202 C 
ATOM      8  O   UNL     1       7.245   1.123  26.932  0.00  0.00    -0.286 OA
ATOM      9  C   UNL     1       7.860   2.592  25.190  0.00  0.00    +0.075 A 
ATOM     10  C   UNL     1       8.044   2.713  23.812  0.00  0.00    +0.037 A 
ATOM     11  C   UNL     1       8.171   3.975  23.208  0.00  0.00    +0.012 A 
ATOM     12  C   UNL     1       8.121   5.129  23.984  0.00  0.00    +0.004 A 
ATOM     13  C   UNL     1       7.961   5.025  25.361  0.00  0.00    +0.046 A 
ATOM     14  C   UNL     1       8.098   1.518  22.953  0.00  0.00    +0.195 C 
ATOM     15  O   UNL     1       8.216   1.636  21.738  0.00  0.00    -0.287 OA
ATOM     16  C   UNL     1       7.828   3.769  25.961  0.00  0.00    +0.128 A 
ATOM     17  C   UNL     1       8.025   0.180  23.565  0.00  0.00    +0.037 A 
ATOM     18  C   UNL     1       7.804  -3.827  25.240  0.00  0.00    +0.158 C 
ATOM     19  C   UNL     1       8.070  -0.938  22.720  0.00  0.00    +0.016 A 
ATOM     20  C   UNL     1       8.101  -4.903  24.187  0.00  0.00    +0.071 C 
ENDROOT
BRANCH   1  22
ATOM     21  C   UNL     1       6.107  -5.964  21.044  0.00  0.00    +0.007 C 
ATOM     22  C   UNL     1       7.293  -5.890  22.002  0.00  0.00    +0.032 C 
ENDBRANCH   1  22
BRANCH   1  23
ATOM     23  O   UNL     1       5.879  -4.458  23.226  0.00  0.00    -0.388 OA
ATOM     24  H   UNL     1       5.758  -3.566  23.612  0.00  0.00    +0.210 HD
ENDBRANCH   1  23
BRANCH  16  25
ATOM     25  O   UNL     1       7.694   3.715  27.318  0.00  0.00    -0.506 OA
ATOM     26  H   UNL     1       6.793   3.455  27.565  0.00  0.00    +0.292 HD
ENDBRANCH  16  25
BRANCH   5  27
ATOM     27  O   UNL     1       7.687  -1.480  26.814  0.00  0.00    -0.506 OA
ATOM     28  H   UNL     1       7.008  -2.169  26.953  0.00  0.00    +0.292 HD
ENDBRANCH   5  27
BRANCH  18  29
ATOM     29  O   UNL     1       6.463  -3.908  25.748  0.00  0.00    -0.343 OA
BRANCH  29  30
ATOM     30  C   UNL     1       6.140  -5.101  26.473  0.00  0.00    +0.253 C 
ATOM     31  O   UNL     1       6.024  -4.812  27.850  0.00  0.00    -0.346 OA
ATOM     32  C   UNL     1       5.622  -5.945  28.620  0.00  0.00    +0.148 C 
ATOM     33  C   UNL     1       5.597  -5.504  30.081  0.00  0.00    +0.041 C 
ATOM     34  C   UNL     1       4.249  -6.490  28.168  0.00  0.00    +0.160 C 
ATOM     35  C   UNL     1       4.277  -6.839  26.642  0.00  0.00    +0.092 C 
ATOM     36  C   UNL     1       4.826  -5.610  25.892  0.00  0.00    +0.083 C 
BRANCH  35  37
ATOM     37  N   UNL     1       2.962  -7.243  26.050  0.00  0.00    -0.303 NA
ATOM     38  C   UNL     1       3.034  -7.587  24.628  0.00  0.00    +0.105 C 
ATOM     39  C   UNL     1       1.923  -6.222  26.237  0.00  0.00    +0.105 C 
ENDBRANCH  35  37
BRANCH  34  40
ATOM     40  O   UNL     1       3.930  -7.624  28.984  0.00  0.00    -0.388 OA
ATOM     41  H   UNL     1       3.665  -8.356  28.404  0.00  0.00    +0.210 HD
ENDBRANCH  34  40
ENDBRANCH  29  30
ENDBRANCH  18  29
TORSDOF 8
ENDMDL
MODEL 2
REMARK VINA RESULT:      -7.7      2.356      3.725
REMARK  Name = 
REMARK  12 active torsions:
REMARK  status: ('A' for Active; 'I' for Inactive)
REMARK    1  A    between atoms: C_1  and  C_2
REMARK    2  A    between atoms: C_2  and  C_3
REMARK    3  A    between atoms: C_3  and  O_4
REMARK    4  A    between atoms: C_6  and  O_8
REMARK    5  A    between atoms: O_8  and  C_9
REMARK    6  A    between atoms: C_12  and  N_21
REMARK    7  A    between atoms: C_14  and  O_16
REMARK    8  A    between atoms: C_17  and  C_19
REMARK    9  A    between atoms: N_21  and  C_22
REMARK   10  A    between atoms: N_21  and  C_23
REMARK   11  A    between atoms: C_25  and  O_26
REMARK   12  A    between atoms: C_38  and  O_39
REMARK                            x       y       z     vdW  Elec       q    Type
REMARK                         _______ _______ _______ _____ _____    ______ ____
ROOT
ATOM      1  C   UNL     1       8.988  -2.732  24.260  0.00  0.00    +0.072 C 
ATOM      2  C   UNL     1       9.737  -1.434  24.613  0.00  0.00    +0.070 C 
ATOM      3  C   UNL     1       8.838  -0.213  24.503  0.00  0.00    -0.035 A 
ATOM      4  C   UNL     1       7.431  -0.314  24.480  0.00  0.00    +0.027 A 
ATOM      5  C   UNL     1       6.679   0.851  24.208  0.00  0.00    +0.134 A 
ATOM      6  C   UNL     1       7.290   2.106  24.019  0.00  0.00    +0.075 A 
ATOM      7  C   UNL     1       6.525   3.316  23.599  0.00  0.00    +0.202 C 
ATOM      8  O   UNL     1       5.369   3.209  23.212  0.00  0.00    -0.286 OA
ATOM      9  C   UNL     1       7.213   4.642  23.554  0.00  0.00    +0.075 A 
ATOM     10  C   UNL     1       8.599   4.699  23.713  0.00  0.00    +0.037 A 
ATOM     11  C   UNL     1       9.287   5.919  23.613  0.00  0.00    +0.012 A 
ATOM     12  C   UNL     1       8.590   7.096  23.359  0.00  0.00    +0.004 A 
ATOM     13  C   UNL     1       7.207   7.060  23.221  0.00  0.00    +0.046 A 
ATOM     14  C   UNL     1       9.376   3.477  23.978  0.00  0.00    +0.195 C 
ATOM     15  O   UNL     1      10.598   3.531  24.073  0.00  0.00    -0.287 OA
ATOM     16  C   UNL     1       6.523   5.844  23.314  0.00  0.00    +0.128 A 
ATOM     17  C   UNL     1       8.675   2.192  24.145  0.00  0.00    +0.037 A 
ATOM     18  C   UNL     1       6.733  -1.667  24.642  0.00  0.00    +0.158 C 
ATOM     19  C   UNL     1       9.443   1.045  24.388  0.00  0.00    +0.016 A 
ATOM     20  C   UNL     1       7.714  -2.742  25.125  0.00  0.00    +0.071 C 
ENDROOT
BRANCH   1  22
ATOM     21  C   UNL     1       8.973  -5.225  24.860  0.00  0.00    +0.007 C 
ATOM     22  C   UNL     1       9.818  -4.004  24.505  0.00  0.00    +0.032 C 
ENDBRANCH   1  22
BRANCH   1  23
ATOM     23  O   UNL     1       8.675  -2.765  22.859  0.00  0.00    -0.388 OA
ATOM     24  H   UNL     1       8.664  -3.695  22.553  0.00  0.00    +0.210 HD
ENDBRANCH   1  23
BRANCH  16  25
ATOM     25  O   UNL     1       5.164   5.860  23.192  0.00  0.00    -0.506 OA
ATOM     26  H   UNL     1       4.841   6.765  23.054  0.00  0.00    +0.292 HD
ENDBRANCH  16  25
BRANCH   5  27
ATOM     27  O   UNL     1       5.318   0.724  24.110  0.00  0.00    -0.506 OA
ATOM     28  H   UNL     1       5.124  -0.075  23.581  0.00  0.00    +0.292 HD
ENDBRANCH   5  27
BRANCH  18  29
ATOM     29  O   UNL     1       6.203  -1.950  23.337  0.00  0.00    -0.343 OA
BRANCH  29  30
ATOM     30  C   UNL     1       5.465  -3.172  23.212  0.00  0.00    +0.253 C 
ATOM     31  O   UNL     1       6.279  -4.169  22.632  0.00  0.00    -0.346 OA
ATOM     32  C   UNL     1       5.627  -5.437  22.555  0.00  0.00    +0.148 C 
ATOM     33  C   UNL     1       6.594  -6.392  21.859  0.00  0.00    +0.041 C 
ATOM     34  C   UNL     1       5.218  -5.960  23.950  0.00  0.00    +0.160 C 
ATOM     35  C   UNL     1       4.309  -4.914  24.678  0.00  0.00    +0.092 C 
ATOM     36  C   UNL     1       5.028  -3.551  24.622  0.00  0.00    +0.083 C 
BRANCH  35  37
ATOM     37  N   UNL     1       3.962  -5.240  26.098  0.00  0.00    -0.303 NA
ATOM     38  C   UNL     1       2.859  -4.441  26.637  0.00  0.00    +0.105 C 
ATOM     39  C   UNL     1       5.114  -5.123  27.000  0.00  0.00    +0.105 C 
ENDBRANCH  35  37
BRANCH  34  40
ATOM     40  O   UNL     1       4.568  -7.225  23.777  0.00  0.00    -0.388 OA
ATOM     41  H   UNL     1       5.248  -7.903  23.639  0.00  0.00    +0.210 HD
ENDBRANCH  34  40
ENDBRANCH  29  30
ENDBRANCH  18  29
TORSDOF 8
ENDMDL
MODEL 3
REMARK VINA RESULT:      -7.5      1.478      2.376
REMARK  Name = 
REMARK  12 active torsions:
REMARK  status: ('A' for Active; 'I' for Inactive)
REMARK    1  A    between atoms: C_1  and  C_2
REMARK    2  A    between atoms: C_2  and  C_3
REMARK    3  A    between atoms: C_3  and  O_4
REMARK    4  A    between atoms: C_6  and  O_8
REMARK    5  A    between atoms: O_8  and  C_9
REMARK    6  A    between atoms: C_12  and  N_21
REMARK    7  A    between atoms: C_14  and  O_16
REMARK    8  A    between atoms: C_17  and  C_19
REMARK    9  A    between atoms: N_21  and  C_22
REMARK   10  A    between atoms: N_21  and  C_23
REMARK   11  A    between atoms: C_25  and  O_26
REMARK   12  A    between atoms: C_38  and  O_39
REMARK                            x       y       z     vdW  Elec       q    Type
REMARK                         _______ _______ _______ _____ _____    ______ ____
ROOT
ATOM      1  C   UNL     1       7.204  -3.941  22.523  0.00  0.00    +0.072 C 
ATOM      2  C   UNL     1       8.292  -2.877  22.282  0.00  0.00    +0.070 C 
ATOM      3  C   UNL     1       8.173  -1.715  23.256  0.00  0.00    -0.035 A 
ATOM      4  C   UNL     1       7.432  -1.810  24.453  0.00  0.00    +0.027 A 
ATOM      5  C   UNL     1       7.235  -0.636  25.215  0.00  0.00    +0.134 A 
ATOM      6  C   UNL     1       7.804   0.598  24.843  0.00  0.00    +0.075 A 
ATOM      7  C   UNL     1       7.498   1.871  25.560  0.00  0.00    +0.202 C 
ATOM      8  O   UNL     1       6.585   1.914  26.372  0.00  0.00    -0.286 OA
ATOM      9  C   UNL     1       8.244   3.114  25.199  0.00  0.00    +0.075 A 
ATOM     10  C   UNL     1       9.069   3.115  24.073  0.00  0.00    +0.037 A 
ATOM     11  C   UNL     1       9.736   4.283  23.667  0.00  0.00    +0.012 A 
ATOM     12  C   UNL     1       9.586   5.462  24.392  0.00  0.00    +0.004 A 
ATOM     13  C   UNL     1       8.785   5.472  25.528  0.00  0.00    +0.046 A 
ATOM     14  C   UNL     1       9.253   1.891  23.275  0.00  0.00    +0.195 C 
ATOM     15  O   UNL     1       9.945   1.913  22.263  0.00  0.00    -0.287 OA
ATOM     16  C   UNL     1       8.117   4.311  25.928  0.00  0.00    +0.128 A 
ATOM     17  C   UNL     1       8.613   0.638  23.710  0.00  0.00    +0.037 A 
ATOM     18  C   UNL     1       6.765  -3.124  24.869  0.00  0.00    +0.158 C 
ATOM     19  C   UNL     1       8.799  -0.508  22.923  0.00  0.00    +0.016 A 
ATOM     20  C   UNL     1       7.274  -4.296  24.020  0.00  0.00    +0.071 C 
ENDROOT
BRANCH   1  22
ATOM     21  C   UNL     1       6.086  -5.982  21.447  0.00  0.00    +0.007 C 
ATOM     22  C   UNL     1       7.381  -5.202  21.660  0.00  0.00    +0.032 C 
ENDBRANCH   1  22
BRANCH   1  23
ATOM     23  O   UNL     1       5.913  -3.429  22.161  0.00  0.00    -0.388 OA
ATOM     24  H   UNL     1       5.998  -2.886  21.350  0.00  0.00    +0.210 HD
ENDBRANCH   1  23
BRANCH  16  25
ATOM     25  O   UNL     1       7.359   4.363  27.062  0.00  0.00    -0.506 OA
ATOM     26  H   UNL     1       7.841   4.803  27.779  0.00  0.00    +0.292 HD
ENDBRANCH  16  25
BRANCH   5  27
ATOM     27  O   UNL     1       6.448  -0.725  26.333  0.00  0.00    -0.506 OA
ATOM     28  H   UNL     1       5.561  -0.381  26.108  0.00  0.00    +0.292 HD
ENDBRANCH   5  27
BRANCH  18  29
ATOM     29  O   UNL     1       5.361  -2.881  24.690  0.00  0.00    -0.343 OA
BRANCH  29  30
ATOM     30  C   UNL     1       4.482  -3.901  25.180  0.00  0.00    +0.253 C 
ATOM     31  O   UNL     1       4.056  -4.724  24.115  0.00  0.00    -0.346 OA
ATOM     32  C   UNL     1       3.241  -5.812  24.550  0.00  0.00    +0.148 C 
ATOM     33  C   UNL     1       2.811  -6.573  23.298  0.00  0.00    +0.041 C 
ATOM     34  C   UNL     1       3.987  -6.729  25.544  0.00  0.00    +0.160 C 
ATOM     35  C   UNL     1       4.504  -5.901  26.768  0.00  0.00    +0.092 C 
ATOM     36  C   UNL     1       5.277  -4.686  26.217  0.00  0.00    +0.083 C 
BRANCH  35  37
ATOM     37  N   UNL     1       5.368  -6.650  27.734  0.00  0.00    -0.303 NA
ATOM     38  C   UNL     1       4.736  -6.887  29.034  0.00  0.00    +0.105 C 
ATOM     39  C   UNL     1       6.665  -5.998  27.952  0.00  0.00    +0.105 C 
ENDBRANCH  35  37
BRANCH  34  40
ATOM     40  O   UNL     1       3.097  -7.782  25.931  0.00  0.00    -0.388 OA
ATOM     41  H   UNL     1       2.824  -7.632  26.851  0.00  0.00    +0.210 HD
ENDBRANCH  34  40
ENDBRANCH  29  30
ENDBRANCH  18  29
TORSDOF 8
ENDMDL
MODEL 4
REMARK VINA RESULT:      -7.2      2.091      2.368
REMARK  Name = 
REMARK  12 active torsions:
REMARK  status: ('A' for Active; 'I' for Inactive)
REMARK    1  A    between atoms: C_1  and  C_2
REMARK    2  A    between atoms: C_2  and  C_3
REMARK    3  A    between atoms: C_3  and  O_4
REMARK    4  A    between atoms: C_6  and  O_8
REMARK    5  A    between atoms: O_8  and  C_9
REMARK    6  A    between atoms: C_12  and  N_21
REMARK    7  A    between atoms: C_14  and  O_16
REMARK    8  A    between atoms: C_17  and  C_19
REMARK    9  A    between atoms: N_21  and  C_22
REMARK   10  A    between atoms: N_21  and  C_23
REMARK   11  A    between atoms: C_25  and  O_26
REMARK   12  A    between atoms: C_38  and  O_39
REMARK                            x       y       z     vdW  Elec       q    Type
REMARK                         _______ _______ _______ _____ _____    ______ ____
ROOT
ATOM      1  C   UNL     1       7.191  -4.011  22.749  0.00  0.00    +0.072 C 
ATOM      2  C   UNL     1       8.358  -3.029  22.530  0.00  0.00    +0.070 C 
ATOM      3  C   UNL     1       8.225  -1.788  23.397  0.00  0.00    -0.035 A 
ATOM      4  C   UNL     1       7.378  -1.745  24.524  0.00  0.00    +0.027 A 
ATOM      5  C   UNL     1       7.187  -0.505  25.174  0.00  0.00    +0.134 A 
ATOM      6  C   UNL     1       7.860   0.663  24.764  0.00  0.00    +0.075 A 
ATOM      7  C   UNL     1       7.570   2.004  25.350  0.00  0.00    +0.202 C 
ATOM      8  O   UNL     1       6.593   2.163  26.069  0.00  0.00    -0.286 OA
ATOM      9  C   UNL     1       8.419   3.173  24.966  0.00  0.00    +0.075 A 
ATOM     10  C   UNL     1       9.338   3.037  23.924  0.00  0.00    +0.037 A 
ATOM     11  C   UNL     1      10.108   4.131  23.494  0.00  0.00    +0.012 A 
ATOM     12  C   UNL     1       9.966   5.371  24.110  0.00  0.00    +0.004 A 
ATOM     13  C   UNL     1       9.071   5.517  25.164  0.00  0.00    +0.046 A 
ATOM     14  C   UNL     1       9.517   1.745  23.242  0.00  0.00    +0.195 C 
ATOM     15  O   UNL     1      10.295   1.648  22.299  0.00  0.00    -0.287 OA
ATOM     16  C   UNL     1       8.301   4.429  25.588  0.00  0.00    +0.128 A 
ATOM     17  C   UNL     1       8.766   0.567  23.709  0.00  0.00    +0.037 A 
ATOM     18  C   UNL     1       6.599  -2.984  24.976  0.00  0.00    +0.158 C 
ATOM     19  C   UNL     1       8.950  -0.647  23.033  0.00  0.00    +0.016 A 
ATOM     20  C   UNL     1       7.108  -4.246  24.269  0.00  0.00    +0.071 C 
ENDROOT
BRANCH   1  22
ATOM     21  C   UNL     1       6.072  -5.877  21.394  0.00  0.00    +0.007 C 
ATOM     22  C   UNL     1       7.366  -5.345  22.004  0.00  0.00    +0.032 C 
ENDBRANCH   1  22
BRANCH   1  23
ATOM     23  O   UNL     1       5.970  -3.461  22.232  0.00  0.00    -0.388 OA
ATOM     24  H   UNL     1       6.183  -2.772  21.570  0.00  0.00    +0.210 HD
ENDBRANCH   1  23
BRANCH  16  25
ATOM     25  O   UNL     1       7.451   4.614  26.639  0.00  0.00    -0.506 OA
ATOM     26  H   UNL     1       7.140   5.533  26.674  0.00  0.00    +0.292 HD
ENDBRANCH  16  25
BRANCH   5  27
ATOM     27  O   UNL     1       6.301  -0.460  26.218  0.00  0.00    -0.506 OA
ATOM     28  H   UNL     1       5.397  -0.413  25.848  0.00  0.00    +0.292 HD
ENDBRANCH   5  27
BRANCH  18  29
ATOM     29  O   UNL     1       5.233  -2.681  24.651  0.00  0.00    -0.343 OA
BRANCH  29  30
ATOM     30  C   UNL     1       4.240  -3.326  25.457  0.00  0.00    +0.253 C 
ATOM     31  O   UNL     1       3.194  -2.424  25.748  0.00  0.00    -0.346 OA
ATOM     32  C   UNL     1       2.130  -3.029  26.482  0.00  0.00    +0.148 C 
ATOM     33  C   UNL     1       1.109  -1.932  26.772  0.00  0.00    +0.041 C 
ATOM     34  C   UNL     1       1.494  -4.206  25.709  0.00  0.00    +0.160 C 
ATOM     35  C   UNL     1       2.585  -5.267  25.338  0.00  0.00    +0.092 C 
ATOM     36  C   UNL     1       3.747  -4.521  24.652  0.00  0.00    +0.083 C 
BRANCH  35  37
ATOM     37  N   UNL     1       2.120  -6.388  24.462  0.00  0.00    -0.303 NA
ATOM     38  C   UNL     1       2.927  -7.605  24.580  0.00  0.00    +0.105 C 
ATOM     39  C   UNL     1       2.050  -6.005  23.046  0.00  0.00    +0.105 C 
ENDBRANCH  35  37
BRANCH  34  40
ATOM     40  O   UNL     1       0.448  -4.756  26.519  0.00  0.00    -0.388 OA
ATOM     41  H   UNL     1      -0.154  -5.256  25.945  0.00  0.00    +0.210 HD
ENDBRANCH  34  40
ENDBRANCH  29  30
ENDBRANCH  18  29
TORSDOF 8
ENDMDL
MODEL 5
REMARK VINA RESULT:      -7.2      3.459      9.109
REMARK  Name = 
REMARK  12 active torsions:
REMARK  status: ('A' for Active; 'I' for Inactive)
REMARK    1  A    between atoms: C_1  and  C_2
REMARK    2  A    between atoms: C_2  and  C_3
REMARK    3  A    between atoms: C_3  and  O_4
REMARK    4  A    between atoms: C_6  and  O_8
REMARK    5  A    between atoms: O_8  and  C_9
REMARK    6  A    between atoms: C_12  and  N_21
REMARK    7  A    between atoms: C_14  and  O_16
REMARK    8  A    between atoms: C_17  and  C_19
REMARK    9  A    between atoms: N_21  and  C_22
REMARK   10  A    between atoms: N_21  and  C_23
REMARK   11  A    between atoms: C_25  and  O_26
REMARK   12  A    between atoms: C_38  and  O_39
REMARK                            x       y       z     vdW  Elec       q    Type
REMARK                         _______ _______ _______ _____ _____    ______ ____
ROOT
ATOM      1  C   UNL     1       9.969   1.066  24.059  0.00  0.00    +0.072 C 
ATOM      2  C   UNL     1      10.180  -0.368  24.581  0.00  0.00    +0.070 C 
ATOM      3  C   UNL     1       8.871  -1.134  24.677  0.00  0.00    -0.035 A 
ATOM      4  C   UNL     1       7.705  -0.719  24.000  0.00  0.00    +0.027 A 
ATOM      5  C   UNL     1       6.493  -1.391  24.276  0.00  0.00    +0.134 A 
ATOM      6  C   UNL     1       6.433  -2.490  25.158  0.00  0.00    +0.075 A 
ATOM      7  C   UNL     1       5.145  -3.123  25.564  0.00  0.00    +0.202 C 
ATOM      8  O   UNL     1       4.082  -2.580  25.298  0.00  0.00    -0.286 OA
ATOM      9  C   UNL     1       5.168  -4.369  26.389  0.00  0.00    +0.075 A 
ATOM     10  C   UNL     1       6.377  -4.809  26.931  0.00  0.00    +0.037 A 
ATOM     11  C   UNL     1       6.426  -5.939  27.764  0.00  0.00    +0.012 A 
ATOM     12  C   UNL     1       5.262  -6.643  28.056  0.00  0.00    +0.004 A 
ATOM     13  C   UNL     1       4.053  -6.231  27.507  0.00  0.00    +0.046 A 
ATOM     14  C   UNL     1       7.632  -4.091  26.651  0.00  0.00    +0.195 C 
ATOM     15  O   UNL     1       8.681  -4.459  27.167  0.00  0.00    -0.287 OA
ATOM     16  C   UNL     1       4.004  -5.102  26.683  0.00  0.00    +0.128 A 
ATOM     17  C   UNL     1       7.619  -2.937  25.735  0.00  0.00    +0.037 A 
ATOM     18  C   UNL     1       7.722   0.494  23.065  0.00  0.00    +0.158 C 
ATOM     19  C   UNL     1       8.828  -2.269  25.497  0.00  0.00    +0.016 A 
ATOM     20  C   UNL     1       9.158   0.934  22.756  0.00  0.00    +0.071 C 
ENDROOT
BRANCH   1  22
ATOM     21  C   UNL     1      11.079   3.284  23.408  0.00  0.00    +0.007 C 
ATOM     22  C   UNL     1      11.283   1.824  23.803  0.00  0.00    +0.032 C 
ENDBRANCH   1  22
BRANCH   1  23
ATOM     23  O   UNL     1       9.276   1.858  25.035  0.00  0.00    -0.388 OA
ATOM     24  H   UNL     1       9.917   2.438  25.494  0.00  0.00    +0.210 HD
ENDBRANCH   1  23
BRANCH  16  25
ATOM     25  O   UNL     1       2.799  -4.748  26.149  0.00  0.00    -0.506 OA
ATOM     26  H   UNL     1       2.554  -5.345  25.424  0.00  0.00    +0.292 HD
ENDBRANCH  16  25
BRANCH   5  27
ATOM     27  O   UNL     1       5.353  -0.929  23.672  0.00  0.00    -0.506 OA
ATOM     28  H   UNL     1       5.570  -0.092  23.216  0.00  0.00    +0.292 HD
ENDBRANCH   5  27
BRANCH  18  29
ATOM     29  O   UNL     1       6.977   1.497  23.774  0.00  0.00    -0.343 OA
BRANCH  29  30
ATOM     30  C   UNL     1       6.371   2.513  22.967  0.00  0.00    +0.253 C 
ATOM     31  O   UNL     1       4.972   2.510  23.157  0.00  0.00    -0.346 OA
ATOM     32  C   UNL     1       4.315   3.556  22.441  0.00  0.00    +0.148 C 
ATOM     33  C   UNL     1       2.818   3.393  22.690  0.00  0.00    +0.041 C 
ATOM     34  C   UNL     1       4.815   4.952  22.874  0.00  0.00    +0.160 C 
ATOM     35  C   UNL     1       6.368   5.053  22.701  0.00  0.00    +0.092 C 
ATOM     36  C   UNL     1       6.996   3.833  23.403  0.00  0.00    +0.083 C 
BRANCH  35  37
ATOM     37  N   UNL     1       6.994   6.309  23.222  0.00  0.00    -0.303 NA
ATOM     38  C   UNL     1       8.446   6.369  23.037  0.00  0.00    +0.105 C 
ATOM     39  C   UNL     1       6.688   6.545  24.638  0.00  0.00    +0.105 C 
ENDBRANCH  35  37
BRANCH  34  40
ATOM     40  O   UNL     1       4.113   5.935  22.103  0.00  0.00    -0.388 OA
ATOM     41  H   UNL     1       3.748   5.503  21.314  0.00  0.00    +0.210 HD
ENDBRANCH  34  40
ENDBRANCH  29  30
ENDBRANCH  18  29
TORSDOF 8
ENDMDL
MODEL 6
REMARK VINA RESULT:      -6.9      2.964      8.579
REMARK  Name = 
REMARK  12 active torsions:
REMARK  status: ('A' for Active; 'I' for Inactive)
REMARK    1  A    between atoms: C_1  and  C_2
REMARK    2  A    between atoms: C_2  and  C_3
REMARK    3  A    between atoms: C_3  and  O_4
REMARK    4  A    between atoms: C_6  and  O_8
REMARK    5  A    between atoms: O_8  and  C_9
REMARK    6  A    between atoms: C_12  and  N_21
REMARK    7  A    between atoms: C_14  and  O_16
REMARK    8  A    between atoms: C_17  and  C_19
REMARK    9  A    between atoms: N_21  and  C_22
REMARK   10  A    between atoms: N_21  and  C_23
REMARK   11  A    between atoms: C_25  and  O_26
REMARK   12  A    between atoms: C_38  and  O_39
REMARK                            x       y       z     vdW  Elec       q    Type
REMARK                         _______ _______ _______ _____ _____    ______ ____
ROOT
ATOM      1  C   UNL     1       8.859  -1.545  23.433  0.00  0.00    +0.072 C 
ATOM      2  C   UNL     1       8.226  -2.934  23.648  0.00  0.00    +0.070 C 
ATOM      3  C   UNL     1       7.147  -2.905  24.717  0.00  0.00    -0.035 A 
ATOM      4  C   UNL     1       6.543  -1.703  25.145  0.00  0.00    +0.027 A 
ATOM      5  C   UNL     1       5.672  -1.749  26.257  0.00  0.00    +0.134 A 
ATOM      6  C   UNL     1       5.350  -2.959  26.904  0.00  0.00    +0.075 A 
ATOM      7  C   UNL     1       4.542  -3.009  28.156  0.00  0.00    +0.202 C 
ATOM      8  O   UNL     1       4.300  -1.980  28.773  0.00  0.00    -0.286 OA
ATOM      9  C   UNL     1       4.123  -4.333  28.708  0.00  0.00    +0.075 A 
ATOM     10  C   UNL     1       4.653  -5.501  28.159  0.00  0.00    +0.037 A 
ATOM     11  C   UNL     1       4.332  -6.760  28.693  0.00  0.00    +0.012 A 
ATOM     12  C   UNL     1       3.468  -6.859  29.780  0.00  0.00    +0.004 A 
ATOM     13  C   UNL     1       2.914  -5.706  30.324  0.00  0.00    +0.046 A 
ATOM     14  C   UNL     1       5.575  -5.442  27.012  0.00  0.00    +0.195 C 
ATOM     15  O   UNL     1       6.070  -6.471  26.566  0.00  0.00    -0.287 OA
ATOM     16  C   UNL     1       3.239  -4.453  29.796  0.00  0.00    +0.128 A 
ATOM     17  C   UNL     1       5.885  -4.141  26.396  0.00  0.00    +0.037 A 
ATOM     18  C   UNL     1       6.898  -0.364  24.493  0.00  0.00    +0.158 C 
ATOM     19  C   UNL     1       6.772  -4.117  25.311  0.00  0.00    +0.016 A 
ATOM     20  C   UNL     1       7.689  -0.573  23.196  0.00  0.00    +0.071 C 
ENDROOT
BRANCH   1  22
ATOM     21  C   UNL     1       9.818  -0.182  21.485  0.00  0.00    +0.007 C 
ATOM     22  C   UNL     1       9.848  -1.499  22.256  0.00  0.00    +0.032 C 
ENDBRANCH   1  22
BRANCH   1  23
ATOM     23  O   UNL     1       9.637  -1.167  24.579  0.00  0.00    -0.388 OA
ATOM     24  H   UNL     1      10.012  -1.971  24.993  0.00  0.00    +0.210 HD
ENDBRANCH   1  23
BRANCH  16  25
ATOM     25  O   UNL     1       2.654  -3.351  30.349  0.00  0.00    -0.506 OA
ATOM     26  H   UNL     1       2.010  -2.959  29.738  0.00  0.00    +0.292 HD
ENDBRANCH  16  25
BRANCH   5  27
ATOM     27  O   UNL     1       5.154  -0.564  26.712  0.00  0.00    -0.506 OA
ATOM     28  H   UNL     1       4.181  -0.605  26.626  0.00  0.00    +0.292 HD
ENDBRANCH   5  27
BRANCH  18  29
ATOM     29  O   UNL     1       7.656   0.329  25.497  0.00  0.00    -0.343 OA
BRANCH  29  30
ATOM     30  C   UNL     1       7.942   1.706  25.227  0.00  0.00    +0.253 C 
ATOM     31  O   UNL     1       9.134   1.814  24.478  0.00  0.00    -0.346 OA
ATOM     32  C   UNL     1       9.432   3.159  24.105  0.00  0.00    +0.148 C 
ATOM     33  C   UNL     1      10.765   3.128  23.360  0.00  0.00    +0.041 C 
ATOM     34  C   UNL     1       8.312   3.778  23.240  0.00  0.00    +0.160 C 
ATOM     35  C   UNL     1       6.940   3.702  23.990  0.00  0.00    +0.092 C 
ATOM     36  C   UNL     1       6.743   2.247  24.458  0.00  0.00    +0.083 C 
BRANCH  35  37
ATOM     37  N   UNL     1       5.748   4.141  23.197  0.00  0.00    -0.303 NA
ATOM     38  C   UNL     1       5.119   5.364  23.701  0.00  0.00    +0.105 C 
ATOM     39  C   UNL     1       4.725   3.093  23.092  0.00  0.00    +0.105 C 
ENDBRANCH  35  37
BRANCH  34  40
ATOM     40  O   UNL     1       8.689   5.122  22.920  0.00  0.00    -0.388 OA
ATOM     41  H   UNL     1       8.691   5.220  21.954  0.00  0.00    +0.210 HD
ENDBRANCH  34  40
ENDBRANCH  29  30
ENDBRANCH  18  29
TORSDOF 8
ENDMDL
MODEL 7
REMARK VINA RESULT:      -6.9      3.162      9.433
REMARK  Name = 
REMARK  12 active torsions:
REMARK  status: ('A' for Active; 'I' for Inactive)
REMARK    1  A    between atoms: C_1  and  C_2
REMARK    2  A    between atoms: C_2  and  C_3
REMARK    3  A    between atoms: C_3  and  O_4
REMARK    4  A    between atoms: C_6  and  O_8
REMARK    5  A    between atoms: O_8  and  C_9
REMARK    6  A    between atoms: C_12  and  N_21
REMARK    7  A    between atoms: C_14  and  O_16
REMARK    8  A    between atoms: C_17  and  C_19
REMARK    9  A    between atoms: N_21  and  C_22
REMARK   10  A    between atoms: N_21  and  C_23
REMARK   11  A    between atoms: C_25  and  O_26
REMARK   12  A    between atoms: C_38  and  O_39
REMARK                            x       y       z     vdW  Elec       q    Type
REMARK                         _______ _______ _______ _____ _____    ______ ____
ROOT
ATOM      1  C   UNL     1       5.751   1.095  28.068  0.00  0.00    +0.072 C 
ATOM      2  C   UNL     1       4.930  -0.074  28.644  0.00  0.00    +0.070 C 
ATOM      3  C   UNL     1       5.077  -1.335  27.808  0.00  0.00    -0.035 A 
ATOM      4  C   UNL     1       6.131  -1.508  26.885  0.00  0.00    +0.027 A 
ATOM      5  C   UNL     1       6.098  -2.634  26.032  0.00  0.00    +0.134 A 
ATOM      6  C   UNL     1       5.083  -3.607  26.120  0.00  0.00    +0.075 A 
ATOM      7  C   UNL     1       4.959  -4.727  25.142  0.00  0.00    +0.202 C 
ATOM      8  O   UNL     1       5.620  -4.722  24.113  0.00  0.00    -0.286 OA
ATOM      9  C   UNL     1       3.944  -5.799  25.378  0.00  0.00    +0.075 A 
ATOM     10  C   UNL     1       3.001  -5.636  26.394  0.00  0.00    +0.037 A 
ATOM     11  C   UNL     1       1.993  -6.592  26.604  0.00  0.00    +0.012 A 
ATOM     12  C   UNL     1       1.926  -7.725  25.798  0.00  0.00    +0.004 A 
ATOM     13  C   UNL     1       2.871  -7.913  24.797  0.00  0.00    +0.046 A 
ATOM     14  C   UNL     1       3.032  -4.450  27.266  0.00  0.00    +0.195 C 
ATOM     15  O   UNL     1       2.173  -4.294  28.127  0.00  0.00    -0.287 OA
ATOM     16  C   UNL     1       3.870  -6.958  24.585  0.00  0.00    +0.128 A 
ATOM     17  C   UNL     1       4.111  -3.460  27.107  0.00  0.00    +0.037 A 
ATOM     18  C   UNL     1       7.230  -0.453  26.733  0.00  0.00    +0.158 C 
ATOM     19  C   UNL     1       4.108  -2.337  27.946  0.00  0.00    +0.016 A 
ATOM     20  C   UNL     1       7.184   0.564  27.881  0.00  0.00    +0.071 C 
ENDROOT
BRANCH   1  22
ATOM     21  C   UNL     1       7.121   2.678  29.548  0.00  0.00    +0.007 C 
ATOM     22  C   UNL     1       5.749   2.344  28.966  0.00  0.00    +0.032 C 
ENDBRANCH   1  22
BRANCH   1  23
ATOM     23  O   UNL     1       5.186   1.539  26.825  0.00  0.00    -0.388 OA
ATOM     24  H   UNL     1       5.471   2.460  26.652  0.00  0.00    +0.210 HD
ENDBRANCH   1  23
BRANCH  16  25
ATOM     25  O   UNL     1       4.789  -7.196  23.603  0.00  0.00    -0.506 OA
ATOM     26  H   UNL     1       5.528  -7.725  23.943  0.00  0.00    +0.292 HD
ENDBRANCH  16  25
BRANCH   5  27
ATOM     27  O   UNL     1       7.084  -2.749  25.087  0.00  0.00    -0.506 OA
ATOM     28  H   UNL     1       6.751  -2.365  24.252  0.00  0.00    +0.292 HD
ENDBRANCH   5  27
BRANCH  18  29
ATOM     29  O   UNL     1       6.971   0.147  25.454  0.00  0.00    -0.343 OA
BRANCH  29  30
ATOM     30  C   UNL     1       8.120   0.613  24.737  0.00  0.00    +0.253 C 
ATOM     31  O   UNL     1       8.253  -0.098  23.524  0.00  0.00    -0.346 OA
ATOM     32  C   UNL     1       9.335   0.376  22.722  0.00  0.00    +0.148 C 
ATOM     33  C   UNL     1       9.394  -0.515  21.484  0.00  0.00    +0.041 C 
ATOM     34  C   UNL     1       9.163   1.864  22.344  0.00  0.00    +0.160 C 
ATOM     35  C   UNL     1       9.004   2.739  23.633  0.00  0.00    +0.092 C 
ATOM     36  C   UNL     1       7.898   2.101  24.497  0.00  0.00    +0.083 C 
BRANCH  35  37
ATOM     37  N   UNL     1       8.686   4.183  23.396  0.00  0.00    -0.303 NA
ATOM     38  C   UNL     1       8.625   4.984  24.620  0.00  0.00    +0.105 C 
ATOM     39  C   UNL     1       7.437   4.368  22.647  0.00  0.00    +0.105 C 
ENDBRANCH  35  37
BRANCH  34  40
ATOM     40  O   UNL     1      10.291   2.255  21.552  0.00  0.00    -0.388 OA
ATOM     41  H   UNL     1      10.241   3.212  21.397  0.00  0.00    +0.210 HD
ENDBRANCH  34  40
ENDBRANCH  29  30
ENDBRANCH  18  29
TORSDOF 8
ENDMDL
MODEL 8
REMARK VINA RESULT:      -6.9      1.856      2.042
REMARK  Name = 
REMARK  12 active torsions:
REMARK  status: ('A' for Active; 'I' for Inactive)
REMARK    1  A    between atoms: C_1  and  C_2
REMARK    2  A    between atoms: C_2  and  C_3
REMARK    3  A    between atoms: C_3  and  O_4
REMARK    4  A    between atoms: C_6  and  O_8
REMARK    5  A    between atoms: O_8  and  C_9
REMARK    6  A    between atoms: C_12  and  N_21
REMARK    7  A    between atoms: C_14  and  O_16
REMARK    8  A    between atoms: C_17  and  C_19
REMARK    9  A    between atoms: N_21  and  C_22
REMARK   10  A    between atoms: N_21  and  C_23
REMARK   11  A    between atoms: C_25  and  O_26
REMARK   12  A    between atoms: C_38  and  O_39
REMARK                            x       y       z     vdW  Elec       q    Type
REMARK                         _______ _______ _______ _____ _____    ______ ____
ROOT
ATOM      1  C   UNL     1       7.170  -4.334  22.712  0.00  0.00    +0.072 C 
ATOM      2  C   UNL     1       8.243  -3.273  22.401  0.00  0.00    +0.070 C 
ATOM      3  C   UNL     1       8.149  -2.081  23.339  0.00  0.00    -0.035 A 
ATOM      4  C   UNL     1       7.448  -2.140  24.562  0.00  0.00    +0.027 A 
ATOM      5  C   UNL     1       7.270  -0.942  25.292  0.00  0.00    +0.134 A 
ATOM      6  C   UNL     1       7.819   0.282  24.862  0.00  0.00    +0.075 A 
ATOM      7  C   UNL     1       7.529   1.576  25.546  0.00  0.00    +0.202 C 
ATOM      8  O   UNL     1       6.642   1.642  26.386  0.00  0.00    -0.286 OA
ATOM      9  C   UNL     1       8.255   2.811  25.120  0.00  0.00    +0.075 A 
ATOM     10  C   UNL     1       9.043   2.778  23.969  0.00  0.00    +0.037 A 
ATOM     11  C   UNL     1       9.689   3.935  23.503  0.00  0.00    +0.012 A 
ATOM     12  C   UNL     1       9.556   5.136  24.193  0.00  0.00    +0.004 A 
ATOM     13  C   UNL     1       8.793   5.180  25.354  0.00  0.00    +0.046 A 
ATOM     14  C   UNL     1       9.208   1.530  23.205  0.00  0.00    +0.195 C 
ATOM     15  O   UNL     1       9.866   1.522  22.170  0.00  0.00    -0.287 OA
ATOM     16  C   UNL     1       8.145   4.029  25.814  0.00  0.00    +0.128 A 
ATOM     17  C   UNL     1       8.589   0.288  23.701  0.00  0.00    +0.037 A 
ATOM     18  C   UNL     1       6.803  -3.443  25.043  0.00  0.00    +0.158 C 
ATOM     19  C   UNL     1       8.757  -0.882  22.947  0.00  0.00    +0.016 A 
ATOM     20  C   UNL     1       7.291  -4.639  24.216  0.00  0.00    +0.071 C 
ENDROOT
BRANCH   1  22
ATOM     21  C   UNL     1       6.087  -5.973  21.064  0.00  0.00    +0.007 C 
ATOM     22  C   UNL     1       7.326  -5.621  21.885  0.00  0.00    +0.032 C 
ENDBRANCH   1  22
BRANCH   1  23
ATOM     23  O   UNL     1       5.864  -3.840  22.376  0.00  0.00    -0.388 OA
ATOM     24  H   UNL     1       5.671  -4.052  21.439  0.00  0.00    +0.210 HD
ENDBRANCH   1  23
BRANCH  16  25
ATOM     25  O   UNL     1       7.424   4.116  26.970  0.00  0.00    -0.506 OA
ATOM     26  H   UNL     1       8.008   4.260  27.731  0.00  0.00    +0.292 HD
ENDBRANCH  16  25
BRANCH   5  27
ATOM     27  O   UNL     1       6.520  -0.998  26.437  0.00  0.00    -0.506 OA
ATOM     28  H   UNL     1       6.075  -1.868  26.468  0.00  0.00    +0.292 HD
ENDBRANCH   5  27
BRANCH  18  29
ATOM     29  O   UNL     1       5.393  -3.212  24.903  0.00  0.00    -0.343 OA
BRANCH  29  30
ATOM     30  C   UNL     1       4.546  -3.962  25.782  0.00  0.00    +0.253 C 
ATOM     31  O   UNL     1       5.212  -4.205  27.003  0.00  0.00    -0.346 OA
ATOM     32  C   UNL     1       4.390  -4.879  27.956  0.00  0.00    +0.148 C 
ATOM     33  C   UNL     1       5.253  -5.125  29.191  0.00  0.00    +0.041 C 
ATOM     34  C   UNL     1       3.123  -4.066  28.301  0.00  0.00    +0.160 C 
ATOM     35  C   UNL     1       2.312  -3.743  27.001  0.00  0.00    +0.092 C 
ATOM     36  C   UNL     1       3.290  -3.122  25.983  0.00  0.00    +0.083 C 
BRANCH  35  37
ATOM     37  N   UNL     1       1.136  -2.835  27.184  0.00  0.00    -0.303 NA
ATOM     38  C   UNL     1       0.450  -2.494  25.935  0.00  0.00    +0.105 C 
ATOM     39  C   UNL     1       1.487  -1.593  27.885  0.00  0.00    +0.105 C 
ENDBRANCH  35  37
BRANCH  34  40
ATOM     40  O   UNL     1       2.358  -4.816  29.251  0.00  0.00    -0.388 OA
ATOM     41  H   UNL     1       1.859  -4.194  29.805  0.00  0.00    +0.210 HD
ENDBRANCH  34  40
ENDBRANCH  29  30
ENDBRANCH  18  29
TORSDOF 8
ENDMDL
MODEL 9
REMARK VINA RESULT:      -6.8      2.428      4.480
REMARK  Name = 
REMARK  12 active torsions:
REMARK  status: ('A' for Active; 'I' for Inactive)
REMARK    1  A    between atoms: C_1  and  C_2
REMARK    2  A    between atoms: C_2  and  C_3
REMARK    3  A    between atoms: C_3  and  O_4
REMARK    4  A    between atoms: C_6  and  O_8
REMARK    5  A    between atoms: O_8  and  C_9
REMARK    6  A    between atoms: C_12  and  N_21
REMARK    7  A    between atoms: C_14  and  O_16
REMARK    8  A    between atoms: C_17  and  C_19
REMARK    9  A    between atoms: N_21  and  C_22
REMARK   10  A    between atoms: N_21  and  C_23
REMARK   11  A    between atoms: C_25  and  O_26
REMARK   12  A    between atoms: C_38  and  O_39
REMARK                            x       y       z     vdW  Elec       q    Type
REMARK                         _______ _______ _______ _____ _____    ______ ____
ROOT
ATOM      1  C   UNL     1       4.137  -1.532  27.454  0.00  0.00    +0.072 C 
ATOM      2  C   UNL     1       4.170   0.007  27.412  0.00  0.00    +0.070 C 
ATOM      3  C   UNL     1       5.240   0.525  26.465  0.00  0.00    -0.035 A 
ATOM      4  C   UNL     1       5.827  -0.291  25.474  0.00  0.00    +0.027 A 
ATOM      5  C   UNL     1       6.928   0.220  24.750  0.00  0.00    +0.134 A 
ATOM      6  C   UNL     1       7.410   1.529  24.951  0.00  0.00    +0.075 A 
ATOM      7  C   UNL     1       8.650   2.036  24.295  0.00  0.00    +0.202 C 
ATOM      8  O   UNL     1       9.400   1.262  23.714  0.00  0.00    -0.286 OA
ATOM      9  C   UNL     1       9.024   3.475  24.443  0.00  0.00    +0.075 A 
ATOM     10  C   UNL     1       8.323   4.274  25.347  0.00  0.00    +0.037 A 
ATOM     11  C   UNL     1       8.686   5.614  25.560  0.00  0.00    +0.012 A 
ATOM     12  C   UNL     1       9.756   6.167  24.862  0.00  0.00    +0.004 A 
ATOM     13  C   UNL     1      10.451   5.391  23.942  0.00  0.00    +0.046 A 
ATOM     14  C   UNL     1       7.188   3.728  26.111  0.00  0.00    +0.195 C 
ATOM     15  O   UNL     1       6.606   4.425  26.935  0.00  0.00    -0.287 OA
ATOM     16  C   UNL     1      10.092   4.056  23.735  0.00  0.00    +0.128 A 
ATOM     17  C   UNL     1       6.748   2.343  25.866  0.00  0.00    +0.037 A 
ATOM     18  C   UNL     1       5.356  -1.731  25.254  0.00  0.00    +0.158 C 
ATOM     19  C   UNL     1       5.670   1.849  26.615  0.00  0.00    +0.016 A 
ATOM     20  C   UNL     1       4.038  -2.000  25.991  0.00  0.00    +0.071 C 
ENDROOT
BRANCH   1  22
ATOM     21  C   UNL     1       3.011  -3.615  28.438  0.00  0.00    +0.007 C 
ATOM     22  C   UNL     1       2.971  -2.097  28.283  0.00  0.00    +0.032 C 
ENDBRANCH   1  22
BRANCH   1  23
ATOM     23  O   UNL     1       5.318  -2.041  28.093  0.00  0.00    -0.388 OA
ATOM     24  H   UNL     1       5.975  -1.319  28.177  0.00  0.00    +0.210 HD
ENDBRANCH   1  23
BRANCH  16  25
ATOM     25  O   UNL     1      10.790   3.339  22.806  0.00  0.00    -0.506 OA
ATOM     26  H   UNL     1      11.669   3.724  22.663  0.00  0.00    +0.292 HD
ENDBRANCH  16  25
BRANCH   5  27
ATOM     27  O   UNL     1       7.539  -0.610  23.847  0.00  0.00    -0.506 OA
ATOM     28  H   UNL     1       7.953  -0.056  23.156  0.00  0.00    +0.292 HD
ENDBRANCH   5  27
BRANCH  18  29
ATOM     29  O   UNL     1       6.438  -2.536  25.747  0.00  0.00    -0.343 OA
BRANCH  29  30
ATOM     30  C   UNL     1       6.454  -3.900  25.308  0.00  0.00    +0.253 C 
ATOM     31  O   UNL     1       5.502  -4.651  26.032  0.00  0.00    -0.346 OA
ATOM     32  C   UNL     1       5.411  -6.003  25.585  0.00  0.00    +0.148 C 
ATOM     33  C   UNL     1       4.397  -6.702  26.488  0.00  0.00    +0.041 C 
ATOM     34  C   UNL     1       5.002  -6.092  24.098  0.00  0.00    +0.160 C 
ATOM     35  C   UNL     1       6.004  -5.282  23.209  0.00  0.00    +0.092 C 
ATOM     36  C   UNL     1       6.135  -3.872  23.819  0.00  0.00    +0.083 C 
BRANCH  35  37
ATOM     37  N   UNL     1       5.636  -5.171  21.762  0.00  0.00    -0.303 NA
ATOM     38  C   UNL     1       6.443  -6.017  20.879  0.00  0.00    +0.105 C 
ATOM     39  C   UNL     1       5.693  -3.788  21.271  0.00  0.00    +0.105 C 
ENDBRANCH  35  37
BRANCH  34  40
ATOM     40  O   UNL     1       4.943  -7.476  23.735  0.00  0.00    -0.388 OA
ATOM     41  H   UNL     1       4.836  -8.002  24.544  0.00  0.00    +0.210 HD
ENDBRANCH  34  40
ENDBRANCH  29  30
ENDBRANCH  18  29
TORSDOF 8
ENDMDL
