MODEL 1
REMARK VINA RESULT:      -7.6      0.000      0.000
REMARK  Name = 
REMARK  9 active torsions:
REMARK  status: ('A' for Active; 'I' for Inactive)
REMARK    1  A    between atoms: C_1  and  C_2
REMARK    2  A    between atoms: C_4  and  C_5
REMARK    3  A    between atoms: C_5  and  N_6
REMARK    4  A    between atoms: N_6  and  O_7
REMARK    5  A    between atoms: N_10  and  S_13
REMARK    6  A    between atoms: C_11  and  C_12
REMARK    7  A    between atoms: S_13  and  C_16
REMARK    8  A    between atoms: C_19  and  O_20
REMARK    9  A    between atoms: O_20  and  C_21
REMARK                            x       y       z     vdW  Elec       q    Type
REMARK                         _______ _______ _______ _____ _____    ______ ____
ROOT
ATOM      1  S   UNL     1       9.537  -1.993  22.991  0.00  0.00    +0.075 S 
ATOM      2  O   UNL     1       9.244  -2.283  21.601  0.00  0.00    -0.150 OA
ATOM      3  O   UNL     1      10.504  -2.774  23.732  0.00  0.00    -0.150 OA
ENDROOT
BRANCH   1   8
ATOM      4  C   UNL     1       7.369  -5.002  22.671  0.00  0.00    +0.040 C 
ATOM      5  C   UNL     1       6.524  -3.976  23.422  0.00  0.00    +0.138 C 
ATOM      6  C   UNL     1       6.870  -2.501  23.107  0.00  0.00    +0.124 C 
ATOM      7  C   UNL     1       5.704  -1.589  23.521  0.00  0.00    +0.032 C 
ATOM      8  N   UNL     1       8.069  -2.026  23.892  0.00  0.00    -0.192 N 
ATOM      9  C   UNL     1       8.144  -2.441  25.275  0.00  0.00    +0.103 C 
ATOM     10  S   UNL     1       8.550  -1.359  26.493  0.00  0.00    -0.036 S 
ATOM     11  C   UNL     1       7.750  -3.919  25.504  0.00  0.00    +0.187 C 
ATOM     12  O   UNL     1       6.513  -4.236  24.834  0.00  0.00    -0.364 OA
BRANCH  11  13
ATOM     13  C   UNL     1       7.591  -4.342  26.980  0.00  0.00    +0.149 C 
BRANCH  13  14
ATOM     14  N   UNL     1       8.085  -5.706  27.254  0.00  0.00    -0.201 NA
ATOM     15  H   UNL     1       7.273  -6.336  27.247  0.00  0.00    +0.154 HD
BRANCH  14  16
ATOM     16  O   UNL     1       8.799  -6.110  26.052  0.00  0.00    -0.315 OA
ATOM     17  H   UNL     1       8.149  -6.697  25.619  0.00  0.00    +0.236 HD
ENDBRANCH  14  16
ENDBRANCH  13  14
ENDBRANCH  11  13
ENDBRANCH   1   8
BRANCH   1  18
ATOM     18  C   UNL     1      10.020  -0.285  23.060  0.00  0.00    +0.109 A 
ATOM     19  C   UNL     1       9.714   0.557  21.984  0.00  0.00    +0.032 A 
ATOM     20  C   UNL     1       9.976   1.930  22.078  0.00  0.00    +0.048 A 
ATOM     21  C   UNL     1      10.575   2.447  23.230  0.00  0.00    +0.129 A 
ATOM     22  C   UNL     1      10.913   1.586  24.283  0.00  0.00    +0.048 A 
ATOM     23  C   UNL     1      10.643   0.218  24.202  0.00  0.00    +0.032 A 
BRANCH  21  24
ATOM     24  O   UNL     1      10.760   3.781  23.505  0.00  0.00    -0.456 OA
BRANCH  24  25
ATOM     25  C   UNL     1       9.731   4.599  23.894  0.00  0.00    +0.131 A 
ATOM     26  C   UNL     1       8.500   4.155  24.363  0.00  0.00    +0.066 A 
ATOM     27  C   UNL     1       7.514   5.102  24.589  0.00  0.00    +0.114 A 
ATOM     28  N   UNL     1       7.672   6.426  24.368  0.00  0.00    -0.263 NA
ATOM     29  C   UNL     1       8.871   6.824  23.895  0.00  0.00    +0.114 A 
ATOM     30  C   UNL     1       9.919   5.959  23.645  0.00  0.00    +0.066 A 
ENDBRANCH  24  25
ENDBRANCH  21  24
ENDBRANCH   1  18
TORSDOF 7
ENDMDL
MODEL 2
REMARK VINA RESULT:      -7.5      2.544      3.198
REMARK  Name = 
REMARK  9 active torsions:
REMARK  status: ('A' for Active; 'I' for Inactive)
REMARK    1  A    between atoms: C_1  and  C_2
REMARK    2  A    between atoms: C_4  and  C_5
REMARK    3  A    between atoms: C_5  and  N_6
REMARK    4  A    between atoms: N_6  and  O_7
REMARK    5  A    between atoms: N_10  and  S_13
REMARK    6  A    between atoms: C_11  and  C_12
REMARK    7  A    between atoms: S_13  and  C_16
REMARK    8  A    between atoms: C_19  and  O_20
REMARK    9  A    between atoms: O_20  and  C_21
REMARK                            x       y       z     vdW  Elec       q    Type
REMARK                         _______ _______ _______ _____ _____    ______ ____
ROOT
ATOM      1  S   UNL     1       8.691  -4.026  25.274  0.00  0.00    +0.075 S 
ATOM      2  O   UNL     1       9.093  -5.039  24.320  0.00  0.00    -0.150 OA
ATOM      3  O   UNL     1       9.041  -4.133  26.675  0.00  0.00    -0.150 OA
ENDROOT
BRANCH   1   8
ATOM      4  C   UNL     1       6.956  -5.084  22.156  0.00  0.00    +0.040 C 
ATOM      5  C   UNL     1       5.907  -4.320  22.960  0.00  0.00    +0.138 C 
ATOM      6  C   UNL     1       6.481  -3.236  23.904  0.00  0.00    +0.124 C 
ATOM      7  C   UNL     1       5.377  -2.240  24.292  0.00  0.00    +0.032 C 
ATOM      8  N   UNL     1       6.981  -3.830  25.199  0.00  0.00    -0.192 N 
ATOM      9  C   UNL     1       6.164  -4.861  25.798  0.00  0.00    +0.103 C 
ATOM     10  S   UNL     1       5.819  -4.862  27.441  0.00  0.00    -0.036 S 
ATOM     11  C   UNL     1       5.605  -5.881  24.779  0.00  0.00    +0.187 C 
ATOM     12  O   UNL     1       5.016  -5.213  23.645  0.00  0.00    -0.364 OA
BRANCH  11  13
ATOM     13  C   UNL     1       4.545  -6.859  25.333  0.00  0.00    +0.149 C 
BRANCH  13  14
ATOM     14  N   UNL     1       3.886  -7.663  24.284  0.00  0.00    -0.201 NA
ATOM     15  H   UNL     1       4.600  -8.276  23.871  0.00  0.00    +0.154 HD
BRANCH  14  16
ATOM     16  O   UNL     1       3.041  -8.609  24.995  0.00  0.00    -0.315 OA
ATOM     17  H   UNL     1       2.150  -8.236  24.845  0.00  0.00    +0.236 HD
ENDBRANCH  14  16
ENDBRANCH  13  14
ENDBRANCH  11  13
ENDBRANCH   1   8
BRANCH   1  18
ATOM     18  C   UNL     1       9.307  -2.478  24.657  0.00  0.00    +0.109 A 
ATOM     19  C   UNL     1       9.924  -2.439  23.401  0.00  0.00    +0.032 A 
ATOM     20  C   UNL     1      10.301  -1.207  22.849  0.00  0.00    +0.048 A 
ATOM     21  C   UNL     1      10.092  -0.028  23.569  0.00  0.00    +0.129 A 
ATOM     22  C   UNL     1       9.510  -0.086  24.842  0.00  0.00    +0.048 A 
ATOM     23  C   UNL     1       9.120  -1.308  25.395  0.00  0.00    +0.032 A 
BRANCH  21  24
ATOM     24  O   UNL     1      10.288   1.246  23.091  0.00  0.00    -0.456 OA
BRANCH  24  25
ATOM     25  C   UNL     1       9.256   2.133  22.925  0.00  0.00    +0.131 A 
ATOM     26  C   UNL     1       8.215   1.976  22.016  0.00  0.00    +0.066 A 
ATOM     27  C   UNL     1       7.320   3.024  21.871  0.00  0.00    +0.114 A 
ATOM     28  N   UNL     1       7.406   4.191  22.547  0.00  0.00    -0.263 NA
ATOM     29  C   UNL     1       8.436   4.321  23.407  0.00  0.00    +0.114 A 
ATOM     30  C   UNL     1       9.376   3.331  23.628  0.00  0.00    +0.066 A 
ENDBRANCH  24  25
ENDBRANCH  21  24
ENDBRANCH   1  18
TORSDOF 7
ENDMDL
MODEL 3
REMARK VINA RESULT:      -7.3      1.470      1.780
REMARK  Name = 
REMARK  9 active torsions:
REMARK  status: ('A' for Active; 'I' for Inactive)
REMARK    1  A    between atoms: C_1  and  C_2
REMARK    2  A    between atoms: C_4  and  C_5
REMARK    3  A    between atoms: C_5  and  N_6
REMARK    4  A    between atoms: N_6  and  O_7
REMARK    5  A    between atoms: N_10  and  S_13
REMARK    6  A    between atoms: C_11  and  C_12
REMARK    7  A    between atoms: S_13  and  C_16
REMARK    8  A    between atoms: C_19  and  O_20
REMARK    9  A    between atoms: O_20  and  C_21
REMARK                            x       y       z     vdW  Elec       q    Type
REMARK                         _______ _______ _______ _____ _____    ______ ____
ROOT
ATOM      1  S   UNL     1       9.183  -2.015  22.874  0.00  0.00    +0.075 S 
ATOM      2  O   UNL     1       8.787  -2.278  21.505  0.00  0.00    -0.150 OA
ATOM      3  O   UNL     1      10.374  -2.615  23.438  0.00  0.00    -0.150 OA
ENDROOT
BRANCH   1   8
ATOM      4  C   UNL     1       7.472  -5.280  22.354  0.00  0.00    +0.040 C 
ATOM      5  C   UNL     1       6.594  -4.519  23.344  0.00  0.00    +0.138 C 
ATOM      6  C   UNL     1       6.665  -2.978  23.218  0.00  0.00    +0.124 C 
ATOM      7  C   UNL     1       5.444  -2.339  23.897  0.00  0.00    +0.032 C 
ATOM      8  N   UNL     1       7.876  -2.414  23.923  0.00  0.00    -0.192 N 
ATOM      9  C   UNL     1       8.203  -2.986  25.209  0.00  0.00    +0.103 C 
ATOM     10  S   UNL     1       8.605  -2.020  26.522  0.00  0.00    -0.036 S 
ATOM     11  C   UNL     1       8.073  -4.527  25.256  0.00  0.00    +0.187 C 
ATOM     12  O   UNL     1       6.817  -4.959  24.692  0.00  0.00    -0.364 OA
BRANCH  11  13
ATOM     13  C   UNL     1       8.185  -5.160  26.660  0.00  0.00    +0.149 C 
BRANCH  13  14
ATOM     14  N   UNL     1       6.996  -5.948  27.043  0.00  0.00    -0.201 NA
ATOM     15  H   UNL     1       6.996  -6.803  26.472  0.00  0.00    +0.154 HD
BRANCH  14  16
ATOM     16  O   UNL     1       7.284  -6.465  28.372  0.00  0.00    -0.315 OA
ATOM     17  H   UNL     1       7.023  -5.714  28.941  0.00  0.00    +0.236 HD
ENDBRANCH  14  16
ENDBRANCH  13  14
ENDBRANCH  11  13
ENDBRANCH   1   8
BRANCH   1  18
ATOM     18  C   UNL     1       9.311  -0.251  23.034  0.00  0.00    +0.109 A 
ATOM     19  C   UNL     1       9.159   0.553  21.898  0.00  0.00    +0.032 A 
ATOM     20  C   UNL     1       9.133   1.947  22.030  0.00  0.00    +0.048 A 
ATOM     21  C   UNL     1       9.295   2.530  23.289  0.00  0.00    +0.129 A 
ATOM     22  C   UNL     1       9.487   1.715  24.412  0.00  0.00    +0.048 A 
ATOM     23  C   UNL     1       9.502   0.324  24.292  0.00  0.00    +0.032 A 
BRANCH  21  24
ATOM     24  O   UNL     1       9.155   3.868  23.574  0.00  0.00    -0.456 OA
BRANCH  24  25
ATOM     25  C   UNL     1      10.233   4.701  23.728  0.00  0.00    +0.131 A 
ATOM     26  C   UNL     1      11.520   4.421  23.284  0.00  0.00    +0.066 A 
ATOM     27  C   UNL     1      12.530   5.303  23.633  0.00  0.00    +0.114 A 
ATOM     28  N   UNL     1      12.343   6.408  24.388  0.00  0.00    -0.263 NA
ATOM     29  C   UNL     1      11.087   6.643  24.820  0.00  0.00    +0.114 A 
ATOM     30  C   UNL     1      10.011   5.828  24.520  0.00  0.00    +0.066 A 
ENDBRANCH  24  25
ENDBRANCH  21  24
ENDBRANCH   1  18
TORSDOF 7
ENDMDL
MODEL 4
REMARK VINA RESULT:      -7.2      2.251      3.467
REMARK  Name = 
REMARK  9 active torsions:
REMARK  status: ('A' for Active; 'I' for Inactive)
REMARK    1  A    between atoms: C_1  and  C_2
REMARK    2  A    between atoms: C_4  and  C_5
REMARK    3  A    between atoms: C_5  and  N_6
REMARK    4  A    between atoms: N_6  and  O_7
REMARK    5  A    between atoms: N_10  and  S_13
REMARK    6  A    between atoms: C_11  and  C_12
REMARK    7  A    between atoms: S_13  and  C_16
REMARK    8  A    between atoms: C_19  and  O_20
REMARK    9  A    between atoms: O_20  and  C_21
REMARK                            x       y       z     vdW  Elec       q    Type
REMARK                         _______ _______ _______ _____ _____    ______ ____
ROOT
ATOM      1  S   UNL     1       6.975  -1.707  25.477  0.00  0.00    +0.075 S 
ATOM      2  O   UNL     1       7.202  -1.483  26.891  0.00  0.00    -0.150 OA
ATOM      3  O   UNL     1       5.660  -1.547  24.894  0.00  0.00    -0.150 OA
ENDROOT
BRANCH   1   8
ATOM      4  C   UNL     1       5.821  -4.543  27.595  0.00  0.00    +0.040 C 
ATOM      5  C   UNL     1       6.910  -5.127  26.699  0.00  0.00    +0.138 C 
ATOM      6  C   UNL     1       7.985  -4.111  26.243  0.00  0.00    +0.124 C 
ATOM      7  C   UNL     1       9.243  -4.855  25.767  0.00  0.00    +0.032 C 
ATOM      8  N   UNL     1       7.516  -3.291  25.066  0.00  0.00    -0.192 N 
ATOM      9  C   UNL     1       6.793  -3.995  24.031  0.00  0.00    +0.103 C 
ATOM     10  S   UNL     1       7.131  -3.751  22.405  0.00  0.00    -0.036 S 
ATOM     11  C   UNL     1       5.764  -5.014  24.575  0.00  0.00    +0.187 C 
ATOM     12  O   UNL     1       6.350  -5.851  25.593  0.00  0.00    -0.364 OA
BRANCH  11  13
ATOM     13  C   UNL     1       5.137  -5.951  23.519  0.00  0.00    +0.149 C 
BRANCH  13  14
ATOM     14  N   UNL     1       4.834  -7.299  24.040  0.00  0.00    -0.201 NA
ATOM     15  H   UNL     1       4.801  -7.233  25.065  0.00  0.00    +0.154 HD
BRANCH  14  16
ATOM     16  O   UNL     1       3.441  -7.542  23.701  0.00  0.00    -0.315 OA
ATOM     17  H   UNL     1       3.211  -8.276  24.305  0.00  0.00    +0.236 HD
ENDBRANCH  14  16
ENDBRANCH  13  14
ENDBRANCH  11  13
ENDBRANCH   1   8
BRANCH   1  18
ATOM     18  C   UNL     1       8.109  -0.650  24.610  0.00  0.00    +0.109 A 
ATOM     19  C   UNL     1       7.733  -0.112  23.373  0.00  0.00    +0.032 A 
ATOM     20  C   UNL     1       8.564   0.821  22.738  0.00  0.00    +0.048 A 
ATOM     21  C   UNL     1       9.780   1.182  23.324  0.00  0.00    +0.129 A 
ATOM     22  C   UNL     1      10.162   0.604  24.543  0.00  0.00    +0.048 A 
ATOM     23  C   UNL     1       9.335  -0.317  25.188  0.00  0.00    +0.032 A 
BRANCH  21  24
ATOM     24  O   UNL     1      10.617   2.177  22.880  0.00  0.00    -0.456 OA
BRANCH  24  25
ATOM     25  C   UNL     1      10.602   3.441  23.412  0.00  0.00    +0.131 A 
ATOM     26  C   UNL     1       9.474   4.067  23.930  0.00  0.00    +0.066 A 
ATOM     27  C   UNL     1       9.589   5.395  24.308  0.00  0.00    +0.114 A 
ATOM     28  N   UNL     1      10.725   6.120  24.192  0.00  0.00    -0.263 NA
ATOM     29  C   UNL     1      11.796   5.489  23.670  0.00  0.00    +0.114 A 
ATOM     30  C   UNL     1      11.784   4.166  23.270  0.00  0.00    +0.066 A 
ENDBRANCH  24  25
ENDBRANCH  21  24
ENDBRANCH   1  18
TORSDOF 7
ENDMDL
MODEL 5
REMARK VINA RESULT:      -6.9      2.893      7.989
REMARK  Name = 
REMARK  9 active torsions:
REMARK  status: ('A' for Active; 'I' for Inactive)
REMARK    1  A    between atoms: C_1  and  C_2
REMARK    2  A    between atoms: C_4  and  C_5
REMARK    3  A    between atoms: C_5  and  N_6
REMARK    4  A    between atoms: N_6  and  O_7
REMARK    5  A    between atoms: N_10  and  S_13
REMARK    6  A    between atoms: C_11  and  C_12
REMARK    7  A    between atoms: S_13  and  C_16
REMARK    8  A    between atoms: C_19  and  O_20
REMARK    9  A    between atoms: O_20  and  C_21
REMARK                            x       y       z     vdW  Elec       q    Type
REMARK                         _______ _______ _______ _____ _____    ______ ____
ROOT
ATOM      1  S   UNL     1       9.184   2.257  22.789  0.00  0.00    +0.075 S 
ATOM      2  O   UNL     1      10.393   3.014  23.041  0.00  0.00    -0.150 OA
ATOM      3  O   UNL     1       8.553   2.262  21.486  0.00  0.00    -0.150 OA
ENDROOT
BRANCH   1   8
ATOM      4  C   UNL     1       7.835   5.719  22.571  0.00  0.00    +0.040 C 
ATOM      5  C   UNL     1       7.306   5.164  23.891  0.00  0.00    +0.138 C 
ATOM      6  C   UNL     1       8.204   4.086  24.544  0.00  0.00    +0.124 C 
ATOM      7  C   UNL     1       7.854   3.943  26.033  0.00  0.00    +0.032 C 
ATOM      8  N   UNL     1       7.980   2.725  23.930  0.00  0.00    -0.192 N 
ATOM      9  C   UNL     1       6.612   2.358  23.645  0.00  0.00    +0.103 C 
ATOM     10  S   UNL     1       6.010   0.842  24.040  0.00  0.00    -0.036 S 
ATOM     11  C   UNL     1       5.778   3.504  23.026  0.00  0.00    +0.187 C 
ATOM     12  O   UNL     1       5.943   4.728  23.771  0.00  0.00    -0.364 OA
BRANCH  11  13
ATOM     13  C   UNL     1       4.260   3.237  22.919  0.00  0.00    +0.149 C 
BRANCH  13  14
ATOM     14  N   UNL     1       3.641   3.851  21.728  0.00  0.00    -0.201 NA
ATOM     15  H   UNL     1       2.622   3.824  21.861  0.00  0.00    +0.154 HD
BRANCH  14  16
ATOM     16  O   UNL     1       3.927   5.274  21.831  0.00  0.00    -0.315 OA
ATOM     17  H   UNL     1       3.029   5.657  21.886  0.00  0.00    +0.236 HD
ENDBRANCH  14  16
ENDBRANCH  13  14
ENDBRANCH  11  13
ENDBRANCH   1   8
BRANCH   1  18
ATOM     18  C   UNL     1       9.539   0.575  23.237  0.00  0.00    +0.109 A 
ATOM     19  C   UNL     1       9.612   0.227  24.591  0.00  0.00    +0.032 A 
ATOM     20  C   UNL     1       9.766  -1.116  24.958  0.00  0.00    +0.048 A 
ATOM     21  C   UNL     1       9.882  -2.098  23.971  0.00  0.00    +0.129 A 
ATOM     22  C   UNL     1       9.848  -1.731  22.619  0.00  0.00    +0.048 A 
ATOM     23  C   UNL     1       9.682  -0.396  22.245  0.00  0.00    +0.032 A 
BRANCH  21  24
ATOM     24  O   UNL     1       9.901  -3.455  24.192  0.00  0.00    -0.456 OA
BRANCH  24  25
ATOM     25  C   UNL     1       8.929  -4.093  24.919  0.00  0.00    +0.131 A 
ATOM     26  C   UNL     1       9.070  -4.504  26.239  0.00  0.00    +0.066 A 
ATOM     27  C   UNL     1       8.047  -5.256  26.795  0.00  0.00    +0.114 A 
ATOM     28  N   UNL     1       6.930  -5.624  26.128  0.00  0.00    -0.263 NA
ATOM     29  C   UNL     1       6.830  -5.225  24.844  0.00  0.00    +0.114 A 
ATOM     30  C   UNL     1       7.792  -4.467  24.202  0.00  0.00    +0.066 A 
ENDBRANCH  24  25
ENDBRANCH  21  24
ENDBRANCH   1  18
TORSDOF 7
ENDMDL
MODEL 6
REMARK VINA RESULT:      -6.8      2.300      2.976
REMARK  Name = 
REMARK  9 active torsions:
REMARK  status: ('A' for Active; 'I' for Inactive)
REMARK    1  A    between atoms: C_1  and  C_2
REMARK    2  A    between atoms: C_4  and  C_5
REMARK    3  A    between atoms: C_5  and  N_6
REMARK    4  A    between atoms: N_6  and  O_7
REMARK    5  A    between atoms: N_10  and  S_13
REMARK    6  A    between atoms: C_11  and  C_12
REMARK    7  A    between atoms: S_13  and  C_16
REMARK    8  A    between atoms: C_19  and  O_20
REMARK    9  A    between atoms: O_20  and  C_21
REMARK                            x       y       z     vdW  Elec       q    Type
REMARK                         _______ _______ _______ _____ _____    ______ ____
ROOT
ATOM      1  S   UNL     1       6.622  -3.730  22.879  0.00  0.00    +0.075 S 
ATOM      2  O   UNL     1       5.560  -3.783  21.894  0.00  0.00    -0.150 OA
ATOM      3  O   UNL     1       7.645  -4.752  22.934  0.00  0.00    -0.150 OA
ENDROOT
BRANCH   1   8
ATOM      4  C   UNL     1       4.687  -6.665  24.103  0.00  0.00    +0.040 C 
ATOM      5  C   UNL     1       4.407  -5.552  25.108  0.00  0.00    +0.138 C 
ATOM      6  C   UNL     1       4.496  -4.120  24.527  0.00  0.00    +0.124 C 
ATOM      7  C   UNL     1       3.760  -3.133  25.447  0.00  0.00    +0.032 C 
ATOM      8  N   UNL     1       5.924  -3.635  24.452  0.00  0.00    -0.192 N 
ATOM      9  C   UNL     1       6.775  -3.943  25.579  0.00  0.00    +0.103 C 
ATOM     10  S   UNL     1       7.787  -2.787  26.255  0.00  0.00    -0.036 S 
ATOM     11  C   UNL     1       6.596  -5.382  26.117  0.00  0.00    +0.187 C 
ATOM     12  O   UNL     1       5.200  -5.701  26.295  0.00  0.00    -0.364 OA
BRANCH  11  13
ATOM     13  C   UNL     1       7.306  -5.683  27.454  0.00  0.00    +0.149 C 
BRANCH  13  14
ATOM     14  N   UNL     1       6.374  -5.855  28.587  0.00  0.00    -0.201 NA
ATOM     15  H   UNL     1       5.482  -5.420  28.320  0.00  0.00    +0.154 HD
BRANCH  14  16
ATOM     16  O   UNL     1       6.036  -7.270  28.600  0.00  0.00    -0.315 OA
ATOM     17  H   UNL     1       6.582  -7.615  27.866  0.00  0.00    +0.236 HD
ENDBRANCH  14  16
ENDBRANCH  13  14
ENDBRANCH  11  13
ENDBRANCH   1   8
BRANCH   1  18
ATOM     18  C   UNL     1       7.412  -2.150  22.687  0.00  0.00    +0.109 A 
ATOM     19  C   UNL     1       8.695  -2.090  22.131  0.00  0.00    +0.032 A 
ATOM     20  C   UNL     1       9.278  -0.846  21.857  0.00  0.00    +0.048 A 
ATOM     21  C   UNL     1       8.591   0.329  22.175  0.00  0.00    +0.129 A 
ATOM     22  C   UNL     1       7.324   0.254  22.769  0.00  0.00    +0.048 A 
ATOM     23  C   UNL     1       6.731  -0.982  23.033  0.00  0.00    +0.032 A 
BRANCH  21  24
ATOM     24  O   UNL     1       8.986   1.602  21.838  0.00  0.00    -0.456 OA
BRANCH  24  25
ATOM     25  C   UNL     1       8.715   2.687  22.631  0.00  0.00    +0.131 A 
ATOM     26  C   UNL     1       9.383   2.991  23.812  0.00  0.00    +0.066 A 
ATOM     27  C   UNL     1       8.904   4.047  24.572  0.00  0.00    +0.114 A 
ATOM     28  N   UNL     1       7.822   4.787  24.242  0.00  0.00    -0.263 NA
ATOM     29  C   UNL     1       7.185   4.456  23.101  0.00  0.00    +0.114 A 
ATOM     30  C   UNL     1       7.588   3.426  22.271  0.00  0.00    +0.066 A 
ENDBRANCH  24  25
ENDBRANCH  21  24
ENDBRANCH   1  18
TORSDOF 7
ENDMDL
MODEL 7
REMARK VINA RESULT:      -6.8      2.633      8.345
REMARK  Name = 
REMARK  9 active torsions:
REMARK  status: ('A' for Active; 'I' for Inactive)
REMARK    1  A    between atoms: C_1  and  C_2
REMARK    2  A    between atoms: C_4  and  C_5
REMARK    3  A    between atoms: C_5  and  N_6
REMARK    4  A    between atoms: N_6  and  O_7
REMARK    5  A    between atoms: N_10  and  S_13
REMARK    6  A    between atoms: C_11  and  C_12
REMARK    7  A    between atoms: S_13  and  C_16
REMARK    8  A    between atoms: C_19  and  O_20
REMARK    9  A    between atoms: O_20  and  C_21
REMARK                            x       y       z     vdW  Elec       q    Type
REMARK                         _______ _______ _______ _____ _____    ______ ____
ROOT
ATOM      1  S   UNL     1       9.661   1.803  23.175  0.00  0.00    +0.075 S 
ATOM      2  O   UNL     1      10.854   2.148  23.922  0.00  0.00    -0.150 OA
ATOM      3  O   UNL     1       9.526   2.150  21.776  0.00  0.00    -0.150 OA
ENDROOT
BRANCH   1   8
ATOM      4  C   UNL     1       9.862   5.301  24.430  0.00  0.00    +0.040 C 
ATOM      5  C   UNL     1       8.586   4.727  25.042  0.00  0.00    +0.138 C 
ATOM      6  C   UNL     1       8.607   3.194  25.257  0.00  0.00    +0.124 C 
ATOM      7  C   UNL     1       7.526   2.792  26.273  0.00  0.00    +0.032 C 
ATOM      8  N   UNL     1       8.284   2.446  23.986  0.00  0.00    -0.192 N 
ATOM      9  C   UNL     1       7.219   2.983  23.170  0.00  0.00    +0.103 C 
ATOM     10  S   UNL     1       6.032   1.993  22.515  0.00  0.00    -0.036 S 
ATOM     11  C   UNL     1       7.255   4.524  23.036  0.00  0.00    +0.187 C 
ATOM     12  O   UNL     1       7.419   5.154  24.323  0.00  0.00    -0.364 OA
BRANCH  11  13
ATOM     13  C   UNL     1       6.014   5.161  22.372  0.00  0.00    +0.149 C 
BRANCH  13  14
ATOM     14  N   UNL     1       6.333   6.347  21.554  0.00  0.00    -0.201 NA
ATOM     15  H   UNL     1       6.059   7.178  22.094  0.00  0.00    +0.154 HD
BRANCH  14  16
ATOM     16  O   UNL     1       7.785   6.443  21.558  0.00  0.00    -0.315 OA
ATOM     17  H   UNL     1       8.048   5.545  21.277  0.00  0.00    +0.236 HD
ENDBRANCH  14  16
ENDBRANCH  13  14
ENDBRANCH  11  13
ENDBRANCH   1   8
BRANCH   1  18
ATOM     18  C   UNL     1       9.449   0.047  23.342  0.00  0.00    +0.109 A 
ATOM     19  C   UNL     1       9.164  -0.491  24.603  0.00  0.00    +0.032 A 
ATOM     20  C   UNL     1       8.871  -1.856  24.727  0.00  0.00    +0.048 A 
ATOM     21  C   UNL     1       8.902  -2.680  23.599  0.00  0.00    +0.129 A 
ATOM     22  C   UNL     1       9.229  -2.135  22.350  0.00  0.00    +0.048 A 
ATOM     23  C   UNL     1       9.509  -0.774  22.215  0.00  0.00    +0.032 A 
BRANCH  21  24
ATOM     24  O   UNL     1       8.506  -3.996  23.559  0.00  0.00    -0.456 OA
BRANCH  24  25
ATOM     25  C   UNL     1       7.281  -4.378  23.076  0.00  0.00    +0.131 A 
ATOM     26  C   UNL     1       6.062  -3.893  23.536  0.00  0.00    +0.066 A 
ATOM     27  C   UNL     1       4.906  -4.476  23.041  0.00  0.00    +0.114 A 
ATOM     28  N   UNL     1       4.893  -5.494  22.152  0.00  0.00    -0.263 NA
ATOM     29  C   UNL     1       6.091  -5.955  21.739  0.00  0.00    +0.114 A 
ATOM     30  C   UNL     1       7.299  -5.436  22.168  0.00  0.00    +0.066 A 
ENDBRANCH  24  25
ENDBRANCH  21  24
ENDBRANCH   1  18
TORSDOF 7
ENDMDL
MODEL 8
REMARK VINA RESULT:      -6.7      2.149      2.739
REMARK  Name = 
REMARK  9 active torsions:
REMARK  status: ('A' for Active; 'I' for Inactive)
REMARK    1  A    between atoms: C_1  and  C_2
REMARK    2  A    between atoms: C_4  and  C_5
REMARK    3  A    between atoms: C_5  and  N_6
REMARK    4  A    between atoms: N_6  and  O_7
REMARK    5  A    between atoms: N_10  and  S_13
REMARK    6  A    between atoms: C_11  and  C_12
REMARK    7  A    between atoms: S_13  and  C_16
REMARK    8  A    between atoms: C_19  and  O_20
REMARK    9  A    between atoms: O_20  and  C_21
REMARK                            x       y       z     vdW  Elec       q    Type
REMARK                         _______ _______ _______ _____ _____    ______ ____
ROOT
ATOM      1  S   UNL     1       8.912  -1.427  24.886  0.00  0.00    +0.075 S 
ATOM      2  O   UNL     1      10.145  -1.808  24.228  0.00  0.00    -0.150 OA
ATOM      3  O   UNL     1       8.847  -1.268  26.323  0.00  0.00    -0.150 OA
ENDROOT
BRANCH   1   8
ATOM      4  C   UNL     1       9.695  -5.060  25.091  0.00  0.00    +0.040 C 
ATOM      5  C   UNL     1       8.359  -4.978  24.358  0.00  0.00    +0.138 C 
ATOM      6  C   UNL     1       8.140  -3.670  23.560  0.00  0.00    +0.124 C 
ATOM      7  C   UNL     1       7.033  -3.872  22.514  0.00  0.00    +0.032 C 
ATOM      8  N   UNL     1       7.673  -2.542  24.449  0.00  0.00    -0.192 N 
ATOM      9  C   UNL     1       6.689  -2.874  25.454  0.00  0.00    +0.103 C 
ATOM     10  S   UNL     1       5.345  -1.903  25.718  0.00  0.00    -0.036 S 
ATOM     11  C   UNL     1       6.967  -4.212  26.178  0.00  0.00    +0.187 C 
ATOM     12  O   UNL     1       7.259  -5.263  25.234  0.00  0.00    -0.364 OA
BRANCH  11  13
ATOM     13  C   UNL     1       5.829  -4.721  27.089  0.00  0.00    +0.149 C 
BRANCH  13  14
ATOM     14  N   UNL     1       6.161  -5.975  27.796  0.00  0.00    -0.201 NA
ATOM     15  H   UNL     1       5.926  -6.754  27.168  0.00  0.00    +0.154 HD
BRANCH  14  16
ATOM     16  O   UNL     1       7.615  -6.030  27.826  0.00  0.00    -0.315 OA
ATOM     17  H   UNL     1       7.850  -5.086  27.923  0.00  0.00    +0.236 HD
ENDBRANCH  14  16
ENDBRANCH  13  14
ENDBRANCH  11  13
ENDBRANCH   1   8
BRANCH   1  18
ATOM     18  C   UNL     1       8.381   0.089  24.127  0.00  0.00    +0.109 A 
ATOM     19  C   UNL     1       8.974   1.296  24.520  0.00  0.00    +0.032 A 
ATOM     20  C   UNL     1       8.656   2.480  23.843  0.00  0.00    +0.048 A 
ATOM     21  C   UNL     1       7.723   2.459  22.804  0.00  0.00    +0.129 A 
ATOM     22  C   UNL     1       7.107   1.252  22.448  0.00  0.00    +0.048 A 
ATOM     23  C   UNL     1       7.427   0.064  23.109  0.00  0.00    +0.032 A 
BRANCH  21  24
ATOM     24  O   UNL     1       7.424   3.515  21.976  0.00  0.00    -0.456 OA
BRANCH  24  25
ATOM     25  C   UNL     1       6.937   4.705  22.452  0.00  0.00    +0.131 A 
ATOM     26  C   UNL     1       7.602   5.923  22.367  0.00  0.00    +0.066 A 
ATOM     27  C   UNL     1       7.040   7.013  23.014  0.00  0.00    +0.114 A 
ATOM     28  N   UNL     1       5.896   6.959  23.733  0.00  0.00    -0.263 NA
ATOM     29  C   UNL     1       5.285   5.760  23.812  0.00  0.00    +0.114 A 
ATOM     30  C   UNL     1       5.761   4.617  23.197  0.00  0.00    +0.066 A 
ENDBRANCH  24  25
ENDBRANCH  21  24
ENDBRANCH   1  18
TORSDOF 7
ENDMDL
MODEL 9
REMARK VINA RESULT:      -6.7      2.799      8.321
REMARK  Name = 
REMARK  9 active torsions:
REMARK  status: ('A' for Active; 'I' for Inactive)
REMARK    1  A    between atoms: C_1  and  C_2
REMARK    2  A    between atoms: C_4  and  C_5
REMARK    3  A    between atoms: C_5  and  N_6
REMARK    4  A    between atoms: N_6  and  O_7
REMARK    5  A    between atoms: N_10  and  S_13
REMARK    6  A    between atoms: C_11  and  C_12
REMARK    7  A    between atoms: S_13  and  C_16
REMARK    8  A    between atoms: C_19  and  O_20
REMARK    9  A    between atoms: O_20  and  C_21
REMARK                            x       y       z     vdW  Elec       q    Type
REMARK                         _______ _______ _______ _____ _____    ______ ____
ROOT
ATOM      1  S   UNL     1       8.358  -2.411  23.235  0.00  0.00    +0.075 S 
ATOM      2  O   UNL     1       9.624  -2.755  22.620  0.00  0.00    -0.150 OA
ATOM      3  O   UNL     1       7.150  -2.290  22.447  0.00  0.00    -0.150 OA
ENDROOT
BRANCH   1   8
ATOM      4  C   UNL     1       9.291   0.636  21.312  0.00  0.00    +0.040 C 
ATOM      5  C   UNL     1       9.430   1.029  22.781  0.00  0.00    +0.138 C 
ATOM      6  C   UNL     1       9.769  -0.143  23.734  0.00  0.00    +0.124 C 
ATOM      7  C   UNL     1      10.338   0.401  25.053  0.00  0.00    +0.032 C 
ATOM      8  N   UNL     1       8.539  -0.935  24.106  0.00  0.00    -0.192 N 
ATOM      9  C   UNL     1       7.341  -0.178  24.391  0.00  0.00    +0.103 C 
ATOM     10  S   UNL     1       6.379  -0.529  25.722  0.00  0.00    -0.036 S 
ATOM     11  C   UNL     1       7.098   0.994  23.412  0.00  0.00    +0.187 C 
ATOM     12  O   UNL     1       8.294   1.780  23.235  0.00  0.00    -0.364 OA
BRANCH  11  13
ATOM     13  C   UNL     1       5.967   1.967  23.810  0.00  0.00    +0.149 C 
BRANCH  13  14
ATOM     14  N   UNL     1       5.212   2.491  22.654  0.00  0.00    -0.201 NA
ATOM     15  H   UNL     1       4.543   3.185  23.011  0.00  0.00    +0.154 HD
BRANCH  14  16
ATOM     16  O   UNL     1       6.155   3.321  21.919  0.00  0.00    -0.315 OA
ATOM     17  H   UNL     1       5.958   3.078  20.993  0.00  0.00    +0.236 HD
ENDBRANCH  14  16
ENDBRANCH  13  14
ENDBRANCH  11  13
ENDBRANCH   1   8
BRANCH   1  18
ATOM     18  C   UNL     1       8.077  -3.609  24.517  0.00  0.00    +0.109 A 
ATOM     19  C   UNL     1       8.990  -3.707  25.574  0.00  0.00    +0.032 A 
ATOM     20  C   UNL     1       8.716  -4.557  26.654  0.00  0.00    +0.048 A 
ATOM     21  C   UNL     1       7.552  -5.330  26.653  0.00  0.00    +0.129 A 
ATOM     22  C   UNL     1       6.667  -5.252  25.569  0.00  0.00    +0.048 A 
ATOM     23  C   UNL     1       6.926  -4.398  24.495  0.00  0.00    +0.032 A 
BRANCH  21  24
ATOM     24  O   UNL     1       7.099  -6.095  27.701  0.00  0.00    -0.456 OA
BRANCH  24  25
ATOM     25  C   UNL     1       5.864  -5.908  28.267  0.00  0.00    +0.131 A 
ATOM     26  C   UNL     1       5.482  -4.773  28.974  0.00  0.00    +0.066 A 
ATOM     27  C   UNL     1       4.246  -4.788  29.600  0.00  0.00    +0.114 A 
ATOM     28  N   UNL     1       3.399  -5.841  29.577  0.00  0.00    -0.263 NA
ATOM     29  C   UNL     1       3.806  -6.933  28.899  0.00  0.00    +0.114 A 
ATOM     30  C   UNL     1       5.016  -7.014  28.236  0.00  0.00    +0.066 A 
ENDBRANCH  24  25
ENDBRANCH  21  24
ENDBRANCH   1  18
TORSDOF 7
ENDMDL
