MODEL 1
REMARK VINA RESULT:      -4.3      0.000      0.000
REMARK  Name = 
REMARK  7 active torsions:
REMARK  status: ('A' for Active; 'I' for Inactive)
REMARK    1  A    between atoms: O_1  and  C_2
REMARK    2  A    between atoms: C_2  and  C_4
REMARK    3  A    between atoms: C_4  and  N_5
REMARK    4  A    between atoms: N_5  and  C_8
REMARK    5  A    between atoms: C_8  and  P_9
REMARK    6  A    between atoms: P_9  and  O_10
REMARK    7  A    between atoms: P_9  and  O_11
REMARK                            x       y       z     vdW  Elec       q    Type
REMARK                         _______ _______ _______ _____ _____    ______ ____
ROOT
ATOM      1  N   UNL     1      11.167   4.034  22.924  0.00  0.00    +0.244 N 
ATOM      2  H   UNL     1      11.547   3.786  21.991  0.00  0.00    +0.203 HD
ATOM      3  H   UNL     1      10.229   4.378  22.652  0.00  0.00    +0.203 HD
ENDROOT
BRANCH   1   4
ATOM      4  C   UNL     1      11.947   5.173  23.488  0.00  0.00    +0.252 C 
BRANCH   4   5
ATOM      5  C   UNL     1      13.230   5.298  22.676  0.00  0.00    +0.350 C 
ATOM      6  O   UNL     1      13.187   5.641  21.496  0.00  0.00    -0.245 OA
BRANCH   5   7
ATOM      7  O   UNL     1      14.379   5.022  23.309  0.00  0.00    -0.477 OA
ATOM      8  H   UNL     1      14.625   4.087  23.433  0.00  0.00    +0.295 HD
ENDBRANCH   5   7
ENDBRANCH   4   5
ENDBRANCH   1   4
BRANCH   1   9
ATOM      9  C   UNL     1      10.960   2.742  23.672  0.00  0.00    +0.258 C 
BRANCH   9  10
ATOM     10  P   UNL     1       9.606   1.760  22.916  0.00  0.00    +0.372 P 
ATOM     11  O   UNL     1       8.228   1.816  23.458  0.00  0.00    -0.253 OA
BRANCH  10  12
ATOM     12  O   UNL     1      10.273   0.298  22.914  0.00  0.00    -0.321 OA
ATOM     13  H   UNL     1      11.069   0.208  22.347  0.00  0.00    +0.220 HD
ENDBRANCH  10  12
BRANCH  10  14
ATOM     14  O   UNL     1       9.751   2.130  21.363  0.00  0.00    -0.321 OA
ATOM     15  H   UNL     1      10.485   2.750  21.167  0.00  0.00    +0.220 HD
ENDBRANCH  10  14
ENDBRANCH   9  10
ENDBRANCH   1   9
TORSDOF 7
ENDMDL
MODEL 2
REMARK VINA RESULT:      -4.3      6.419      7.758
REMARK  Name = 
REMARK  7 active torsions:
REMARK  status: ('A' for Active; 'I' for Inactive)
REMARK    1  A    between atoms: O_1  and  C_2
REMARK    2  A    between atoms: C_2  and  C_4
REMARK    3  A    between atoms: C_4  and  N_5
REMARK    4  A    between atoms: N_5  and  C_8
REMARK    5  A    between atoms: C_8  and  P_9
REMARK    6  A    between atoms: P_9  and  O_10
REMARK    7  A    between atoms: P_9  and  O_11
REMARK                            x       y       z     vdW  Elec       q    Type
REMARK                         _______ _______ _______ _____ _____    ______ ____
ROOT
ATOM      1  N   UNL     1       8.732  -2.305  24.726  0.00  0.00    +0.244 N 
ATOM      2  H   UNL     1       7.864  -2.459  24.176  0.00  0.00    +0.203 HD
ATOM      3  H   UNL     1       8.502  -1.401  25.178  0.00  0.00    +0.203 HD
ENDROOT
BRANCH   1   4
ATOM      4  C   UNL     1       9.876  -2.093  23.793  0.00  0.00    +0.252 C 
BRANCH   4   5
ATOM      5  C   UNL     1       9.304  -1.968  22.386  0.00  0.00    +0.350 C 
ATOM      6  O   UNL     1       8.131  -2.262  22.164  0.00  0.00    -0.245 OA
BRANCH   5   7
ATOM      7  O   UNL     1      10.133  -1.526  21.431  0.00  0.00    -0.477 OA
ATOM      8  H   UNL     1       9.931  -1.752  20.504  0.00  0.00    +0.295 HD
ENDBRANCH   5   7
ENDBRANCH   4   5
ENDBRANCH   1   4
BRANCH   1   9
ATOM      9  C   UNL     1       8.754  -3.347  25.814  0.00  0.00    +0.258 C 
BRANCH   9  10
ATOM     10  P   UNL     1       8.943  -5.028  25.102  0.00  0.00    +0.372 P 
ATOM     11  O   UNL     1       8.379  -5.363  23.774  0.00  0.00    -0.253 OA
BRANCH  10  12
ATOM     12  O   UNL     1       8.390  -5.923  26.318  0.00  0.00    -0.321 OA
ATOM     13  H   UNL     1       9.028  -6.579  26.671  0.00  0.00    +0.220 HD
ENDBRANCH  10  12
BRANCH  10  14
ATOM     14  O   UNL     1      10.517  -5.287  25.267  0.00  0.00    -0.321 OA
ATOM     15  H   UNL     1      10.793  -5.502  26.183  0.00  0.00    +0.220 HD
ENDBRANCH  10  14
ENDBRANCH   9  10
ENDBRANCH   1   9
TORSDOF 7
ENDMDL
MODEL 3
REMARK VINA RESULT:      -4.2      3.906      4.919
REMARK  Name = 
REMARK  7 active torsions:
REMARK  status: ('A' for Active; 'I' for Inactive)
REMARK    1  A    between atoms: O_1  and  C_2
REMARK    2  A    between atoms: C_2  and  C_4
REMARK    3  A    between atoms: C_4  and  N_5
REMARK    4  A    between atoms: N_5  and  C_8
REMARK    5  A    between atoms: C_8  and  P_9
REMARK    6  A    between atoms: P_9  and  O_10
REMARK    7  A    between atoms: P_9  and  O_11
REMARK                            x       y       z     vdW  Elec       q    Type
REMARK                         _______ _______ _______ _____ _____    ______ ____
ROOT
ATOM      1  N   UNL     1      10.211   0.119  24.129  0.00  0.00    +0.244 N 
ATOM      2  H   UNL     1      10.888   0.551  24.787  0.00  0.00    +0.203 HD
ATOM      3  H   UNL     1      10.864  -0.270  23.426  0.00  0.00    +0.203 HD
ENDROOT
BRANCH   1   4
ATOM      4  C   UNL     1       9.399   1.191  23.484  0.00  0.00    +0.252 C 
BRANCH   4   5
ATOM      5  C   UNL     1       9.730   1.187  21.997  0.00  0.00    +0.350 C 
ATOM      6  O   UNL     1       9.499   0.191  21.313  0.00  0.00    -0.245 OA
BRANCH   5   7
ATOM      7  O   UNL     1      10.269   2.305  21.491  0.00  0.00    -0.477 OA
ATOM      8  H   UNL     1      10.328   2.391  20.522  0.00  0.00    +0.295 HD
ENDBRANCH   5   7
ENDBRANCH   4   5
ENDBRANCH   1   4
BRANCH   1   9
ATOM      9  C   UNL     1       9.587  -1.050  24.846  0.00  0.00    +0.258 C 
BRANCH   9  10
ATOM     10  P   UNL     1       9.522  -2.525  23.755  0.00  0.00    +0.372 P 
ATOM     11  O   UNL     1       9.577  -3.894  24.317  0.00  0.00    -0.253 OA
BRANCH  10  12
ATOM     12  O   UNL     1      10.698  -2.171  22.718  0.00  0.00    -0.321 OA
ATOM     13  H   UNL     1      11.087  -1.277  22.824  0.00  0.00    +0.220 HD
ENDBRANCH  10  12
BRANCH  10  14
ATOM     14  O   UNL     1       8.244  -2.207  22.839  0.00  0.00    -0.321 OA
ATOM     15  H   UNL     1       8.148  -2.804  22.067  0.00  0.00    +0.220 HD
ENDBRANCH  10  14
ENDBRANCH   9  10
ENDBRANCH   1   9
TORSDOF 7
ENDMDL
MODEL 4
REMARK VINA RESULT:      -4.2      3.077      5.165
REMARK  Name = 
REMARK  7 active torsions:
REMARK  status: ('A' for Active; 'I' for Inactive)
REMARK    1  A    between atoms: O_1  and  C_2
REMARK    2  A    between atoms: C_2  and  C_4
REMARK    3  A    between atoms: C_4  and  N_5
REMARK    4  A    between atoms: N_5  and  C_8
REMARK    5  A    between atoms: C_8  and  P_9
REMARK    6  A    between atoms: P_9  and  O_10
REMARK    7  A    between atoms: P_9  and  O_11
REMARK                            x       y       z     vdW  Elec       q    Type
REMARK                         _______ _______ _______ _____ _____    ______ ____
ROOT
ATOM      1  N   UNL     1       9.955   0.072  24.444  0.00  0.00    +0.244 N 
ATOM      2  H   UNL     1      10.523  -0.616  24.976  0.00  0.00    +0.203 HD
ATOM      3  H   UNL     1       9.389   0.472  25.214  0.00  0.00    +0.203 HD
ENDROOT
BRANCH   1   4
ATOM      4  C   UNL     1       9.045  -0.655  23.512  0.00  0.00    +0.252 C 
BRANCH   4   5
ATOM      5  C   UNL     1       9.915  -1.388  22.499  0.00  0.00    +0.350 C 
ATOM      6  O   UNL     1      10.588  -2.358  22.844  0.00  0.00    -0.245 OA
BRANCH   5   7
ATOM      7  O   UNL     1       9.902  -0.927  21.241  0.00  0.00    -0.477 OA
ATOM      8  H   UNL     1       9.197  -0.304  20.985  0.00  0.00    +0.295 HD
ENDBRANCH   5   7
ENDBRANCH   4   5
ENDBRANCH   1   4
BRANCH   1   9
ATOM      9  C   UNL     1      10.896   1.154  23.981  0.00  0.00    +0.258 C 
BRANCH   9  10
ATOM     10  P   UNL     1       9.975   2.509  23.154  0.00  0.00    +0.372 P 
ATOM     11  O   UNL     1       8.601   2.867  23.576  0.00  0.00    -0.253 OA
BRANCH  10  12
ATOM     12  O   UNL     1      10.117   2.061  21.617  0.00  0.00    -0.321 OA
ATOM     13  H   UNL     1       9.385   1.501  21.281  0.00  0.00    +0.220 HD
ENDBRANCH  10  12
BRANCH  10  14
ATOM     14  O   UNL     1      11.040   3.708  23.189  0.00  0.00    -0.321 OA
ATOM     15  H   UNL     1      11.847   3.540  22.658  0.00  0.00    +0.220 HD
ENDBRANCH  10  14
ENDBRANCH   9  10
ENDBRANCH   1   9
TORSDOF 7
ENDMDL
MODEL 5
REMARK VINA RESULT:      -4.2      6.542      8.438
REMARK  Name = 
REMARK  7 active torsions:
REMARK  status: ('A' for Active; 'I' for Inactive)
REMARK    1  A    between atoms: O_1  and  C_2
REMARK    2  A    between atoms: C_2  and  C_4
REMARK    3  A    between atoms: C_4  and  N_5
REMARK    4  A    between atoms: N_5  and  C_8
REMARK    5  A    between atoms: C_8  and  P_9
REMARK    6  A    between atoms: P_9  and  O_10
REMARK    7  A    between atoms: P_9  and  O_11
REMARK                            x       y       z     vdW  Elec       q    Type
REMARK                         _______ _______ _______ _____ _____    ______ ____
ROOT
ATOM      1  N   UNL     1       7.768  -3.581  23.884  0.00  0.00    +0.244 N 
ATOM      2  H   UNL     1       8.296  -3.087  24.629  0.00  0.00    +0.203 HD
ATOM      3  H   UNL     1       6.799  -3.356  24.169  0.00  0.00    +0.203 HD
ENDROOT
BRANCH   1   4
ATOM      4  C   UNL     1       7.978  -5.051  24.024  0.00  0.00    +0.252 C 
BRANCH   4   5
ATOM      5  C   UNL     1       9.004  -5.266  25.129  0.00  0.00    +0.350 C 
ATOM      6  O   UNL     1      10.170  -4.910  24.972  0.00  0.00    -0.245 OA
BRANCH   5   7
ATOM      7  O   UNL     1       8.569  -5.847  26.256  0.00  0.00    -0.477 OA
ATOM      8  H   UNL     1       8.133  -6.716  26.189  0.00  0.00    +0.295 HD
ENDBRANCH   5   7
ENDBRANCH   4   5
ENDBRANCH   1   4
BRANCH   1   9
ATOM      9  C   UNL     1       8.030  -2.843  22.596  0.00  0.00    +0.258 C 
BRANCH   9  10
ATOM     10  P   UNL     1       9.437  -1.679  22.786  0.00  0.00    +0.372 P 
ATOM     11  O   UNL     1       9.286  -0.415  23.543  0.00  0.00    -0.253 OA
BRANCH  10  12
ATOM     12  O   UNL     1       9.876  -1.500  21.250  0.00  0.00    -0.321 OA
ATOM     13  H   UNL     1      10.716  -1.944  21.006  0.00  0.00    +0.220 HD
ENDBRANCH  10  12
BRANCH  10  14
ATOM     14  O   UNL     1      10.608  -2.650  23.294  0.00  0.00    -0.321 OA
ATOM     15  H   UNL     1      10.390  -3.146  24.111  0.00  0.00    +0.220 HD
ENDBRANCH  10  14
ENDBRANCH   9  10
ENDBRANCH   1   9
TORSDOF 7
ENDMDL
MODEL 6
REMARK VINA RESULT:      -4.1      6.805      8.130
REMARK  Name = 
REMARK  7 active torsions:
REMARK  status: ('A' for Active; 'I' for Inactive)
REMARK    1  A    between atoms: O_1  and  C_2
REMARK    2  A    between atoms: C_2  and  C_4
REMARK    3  A    between atoms: C_4  and  N_5
REMARK    4  A    between atoms: N_5  and  C_8
REMARK    5  A    between atoms: C_8  and  P_9
REMARK    6  A    between atoms: P_9  and  O_10
REMARK    7  A    between atoms: P_9  and  O_11
REMARK                            x       y       z     vdW  Elec       q    Type
REMARK                         _______ _______ _______ _____ _____    ______ ____
ROOT
ATOM      1  N   UNL     1       7.941  -4.066  23.201  0.00  0.00    +0.244 N 
ATOM      2  H   UNL     1       8.827  -4.518  22.900  0.00  0.00    +0.203 HD
ATOM      3  H   UNL     1       7.325  -4.335  22.414  0.00  0.00    +0.203 HD
ENDROOT
BRANCH   1   4
ATOM      4  C   UNL     1       8.115  -2.585  23.185  0.00  0.00    +0.252 C 
BRANCH   4   5
ATOM      5  C   UNL     1       9.556  -2.294  22.784  0.00  0.00    +0.350 C 
ATOM      6  O   UNL     1      10.481  -2.592  23.537  0.00  0.00    -0.245 OA
BRANCH   5   7
ATOM      7  O   UNL     1       9.750  -1.715  21.592  0.00  0.00    -0.477 OA
ATOM      8  H   UNL     1       9.133  -1.929  20.868  0.00  0.00    +0.295 HD
ENDBRANCH   5   7
ENDBRANCH   4   5
ENDBRANCH   1   4
BRANCH   1   9
ATOM      9  C   UNL     1       7.456  -4.814  24.416  0.00  0.00    +0.258 C 
BRANCH   9  10
ATOM     10  P   UNL     1       8.680  -4.705  25.780  0.00  0.00    +0.372 P 
ATOM     11  O   UNL     1       8.866  -3.449  26.541  0.00  0.00    -0.253 OA
BRANCH  10  12
ATOM     12  O   UNL     1       9.997  -5.245  25.032  0.00  0.00    -0.321 OA
ATOM     13  H   UNL     1      10.664  -5.659  25.620  0.00  0.00    +0.220 HD
ENDBRANCH  10  12
BRANCH  10  14
ATOM     14  O   UNL     1       8.317  -5.996  26.659  0.00  0.00    -0.321 OA
ATOM     15  H   UNL     1       7.488  -6.444  26.387  0.00  0.00    +0.220 HD
ENDBRANCH  10  14
ENDBRANCH   9  10
ENDBRANCH   1   9
TORSDOF 7
ENDMDL
MODEL 7
REMARK VINA RESULT:      -4.1      9.283     10.511
REMARK  Name = 
REMARK  7 active torsions:
REMARK  status: ('A' for Active; 'I' for Inactive)
REMARK    1  A    between atoms: O_1  and  C_2
REMARK    2  A    between atoms: C_2  and  C_4
REMARK    3  A    between atoms: C_4  and  N_5
REMARK    4  A    between atoms: N_5  and  C_8
REMARK    5  A    between atoms: C_8  and  P_9
REMARK    6  A    between atoms: P_9  and  O_10
REMARK    7  A    between atoms: P_9  and  O_11
REMARK                            x       y       z     vdW  Elec       q    Type
REMARK                         _______ _______ _______ _____ _____    ______ ____
ROOT
ATOM      1  N   UNL     1       7.585  -4.890  23.220  0.00  0.00    +0.244 N 
ATOM      2  H   UNL     1       7.186  -4.001  22.861  0.00  0.00    +0.203 HD
ATOM      3  H   UNL     1       8.589  -4.640  23.246  0.00  0.00    +0.203 HD
ENDROOT
BRANCH   1   4
ATOM      4  C   UNL     1       7.388  -5.964  22.203  0.00  0.00    +0.252 C 
BRANCH   4   5
ATOM      5  C   UNL     1       6.028  -5.739  21.555  0.00  0.00    +0.350 C 
ATOM      6  O   UNL     1       5.936  -5.096  20.511  0.00  0.00    -0.245 OA
BRANCH   5   7
ATOM      7  O   UNL     1       4.965  -6.275  22.171  0.00  0.00    -0.477 OA
ATOM      8  H   UNL     1       4.388  -5.686  22.692  0.00  0.00    +0.295 HD
ENDBRANCH   5   7
ENDBRANCH   4   5
ENDBRANCH   1   4
BRANCH   1   9
ATOM      9  C   UNL     1       7.129  -5.031  24.649  0.00  0.00    +0.258 C 
BRANCH   9  10
ATOM     10  P   UNL     1       8.543  -4.852  25.805  0.00  0.00    +0.372 P 
ATOM     11  O   UNL     1       8.896  -3.534  26.382  0.00  0.00    -0.253 OA
BRANCH  10  12
ATOM     12  O   UNL     1       9.709  -5.551  24.949  0.00  0.00    -0.321 OA
ATOM     13  H   UNL     1      10.493  -5.831  25.469  0.00  0.00    +0.220 HD
ENDBRANCH  10  12
BRANCH  10  14
ATOM     14  O   UNL     1       8.253  -6.014  26.872  0.00  0.00    -0.321 OA
ATOM     15  H   UNL     1       8.547  -5.803  27.783  0.00  0.00    +0.220 HD
ENDBRANCH  10  14
ENDBRANCH   9  10
ENDBRANCH   1   9
TORSDOF 7
ENDMDL
MODEL 8
REMARK VINA RESULT:      -4.1      3.959      5.471
REMARK  Name = 
REMARK  7 active torsions:
REMARK  status: ('A' for Active; 'I' for Inactive)
REMARK    1  A    between atoms: O_1  and  C_2
REMARK    2  A    between atoms: C_2  and  C_4
REMARK    3  A    between atoms: C_4  and  N_5
REMARK    4  A    between atoms: N_5  and  C_8
REMARK    5  A    between atoms: C_8  and  P_9
REMARK    6  A    between atoms: P_9  and  O_10
REMARK    7  A    between atoms: P_9  and  O_11
REMARK                            x       y       z     vdW  Elec       q    Type
REMARK                         _______ _______ _______ _____ _____    ______ ____
ROOT
ATOM      1  N   UNL     1       8.006   0.188  22.652  0.00  0.00    +0.244 N 
ATOM      2  H   UNL     1       7.008   0.097  22.380  0.00  0.00    +0.203 HD
ATOM      3  H   UNL     1       8.431   0.368  21.725  0.00  0.00    +0.203 HD
ENDROOT
BRANCH   1   4
ATOM      4  C   UNL     1       8.501  -1.124  23.157  0.00  0.00    +0.252 C 
BRANCH   4   5
ATOM      5  C   UNL     1       9.720  -1.507  22.327  0.00  0.00    +0.350 C 
ATOM      6  O   UNL     1      10.553  -2.293  22.774  0.00  0.00    -0.245 OA
BRANCH   5   7
ATOM      7  O   UNL     1       9.825  -0.953  21.111  0.00  0.00    -0.477 OA
ATOM      8  H   UNL     1       9.011  -0.639  20.675  0.00  0.00    +0.295 HD
ENDBRANCH   5   7
ENDBRANCH   4   5
ENDBRANCH   1   4
BRANCH   1   9
ATOM      9  C   UNL     1       8.130   1.463  23.447  0.00  0.00    +0.258 C 
BRANCH   9  10
ATOM     10  P   UNL     1       9.704   2.323  23.060  0.00  0.00    +0.372 P 
ATOM     11  O   UNL     1      10.912   2.117  23.892  0.00  0.00    -0.253 OA
BRANCH  10  12
ATOM     12  O   UNL     1       9.192   3.844  22.975  0.00  0.00    -0.321 OA
ATOM     13  H   UNL     1       9.833   4.514  23.294  0.00  0.00    +0.220 HD
ENDBRANCH  10  12
BRANCH  10  14
ATOM     14  O   UNL     1       9.882   2.007  21.498  0.00  0.00    -0.321 OA
ATOM     15  H   UNL     1       9.427   2.644  20.907  0.00  0.00    +0.220 HD
ENDBRANCH  10  14
ENDBRANCH   9  10
ENDBRANCH   1   9
TORSDOF 7
ENDMDL
MODEL 9
REMARK VINA RESULT:      -4.1      4.001      4.800
REMARK  Name = 
REMARK  7 active torsions:
REMARK  status: ('A' for Active; 'I' for Inactive)
REMARK    1  A    between atoms: O_1  and  C_2
REMARK    2  A    between atoms: C_2  and  C_4
REMARK    3  A    between atoms: C_4  and  N_5
REMARK    4  A    between atoms: N_5  and  C_8
REMARK    5  A    between atoms: C_8  and  P_9
REMARK    6  A    between atoms: P_9  and  O_10
REMARK    7  A    between atoms: P_9  and  O_11
REMARK                            x       y       z     vdW  Elec       q    Type
REMARK                         _______ _______ _______ _____ _____    ______ ____
ROOT
ATOM      1  N   UNL     1       7.824   0.255  23.314  0.00  0.00    +0.244 N 
ATOM      2  H   UNL     1       7.084   0.322  24.039  0.00  0.00    +0.203 HD
ATOM      3  H   UNL     1       8.643   0.574  23.861  0.00  0.00    +0.203 HD
ENDROOT
BRANCH   1   4
ATOM      4  C   UNL     1       7.551   1.251  22.238  0.00  0.00    +0.252 C 
BRANCH   4   5
ATOM      5  C   UNL     1       8.738   2.205  22.183  0.00  0.00    +0.350 C 
ATOM      6  O   UNL     1       8.697   3.281  22.778  0.00  0.00    -0.245 OA
BRANCH   5   7
ATOM      7  O   UNL     1       9.802   1.811  21.471  0.00  0.00    -0.477 OA
ATOM      8  H   UNL     1      10.241   2.466  20.896  0.00  0.00    +0.295 HD
ENDBRANCH   5   7
ENDBRANCH   4   5
ENDBRANCH   1   4
BRANCH   1   9
ATOM      9  C   UNL     1       8.029  -1.211  23.030  0.00  0.00    +0.258 C 
BRANCH   9  10
ATOM     10  P   UNL     1       9.815  -1.634  23.046  0.00  0.00    +0.372 P 
ATOM     11  O   UNL     1      10.296  -2.893  23.661  0.00  0.00    -0.253 OA
BRANCH  10  12
ATOM     12  O   UNL     1      10.427  -0.292  23.685  0.00  0.00    -0.321 OA
ATOM     13  H   UNL     1      10.249   0.526  23.174  0.00  0.00    +0.220 HD
ENDBRANCH  10  12
BRANCH  10  14
ATOM     14  O   UNL     1      10.225  -1.418  21.511  0.00  0.00    -0.321 OA
ATOM     15  H   UNL     1      10.931  -0.751  21.376  0.00  0.00    +0.220 HD
ENDBRANCH  10  14
ENDBRANCH   9  10
ENDBRANCH   1   9
TORSDOF 7
ENDMDL
