MODEL 1
REMARK VINA RESULT:      -6.7      0.000      0.000
REMARK  Name = 
REMARK  17 active torsions:
REMARK  status: ('A' for Active; 'I' for Inactive)
REMARK    1  A    between atoms: O_1  and  C_2
REMARK    2  A    between atoms: C_2  and  N_3
REMARK    3  A    between atoms: N_3  and  O_4
REMARK    4  A    between atoms: N_3  and  C_5
REMARK    5  A    between atoms: C_5  and  C_7
REMARK    6  A    between atoms: C_5  and  C_32
REMARK    7  A    between atoms: C_7  and  C_8
REMARK    8  A    between atoms: C_8  and  C_9
REMARK    9  A    between atoms: C_9  and  N_10
REMARK   10  A    between atoms: C_16  and  C_18
REMARK   11  A    between atoms: C_18  and  O_19
REMARK   12  A    between atoms: O_19  and  P_20
REMARK   13  A    between atoms: P_20  and  O_21
REMARK   14  A    between atoms: P_20  and  O_22
REMARK   15  A    between atoms: C_24  and  O_26
REMARK   16  A    between atoms: C_27  and  O_29
REMARK   17  A    between atoms: C_32  and  O_33
REMARK                            x       y       z     vdW  Elec       q    Type
REMARK                         _______ _______ _______ _____ _____    ______ ____
ROOT
ATOM      1  N   UNL     1       6.653  -4.782  22.791  0.00  0.00    -0.222 N 
ATOM      2  C   UNL     1       7.817  -4.562  23.477  0.00  0.00    +0.277 C 
ATOM      3  O   UNL     1       8.562  -5.391  23.971  0.00  0.00    -0.270 OA
ATOM      4  C   UNL     1       8.010  -3.044  23.546  0.00  0.00    +0.244 C 
ATOM      5  C   UNL     1       7.345  -2.501  24.833  0.00  0.00    +0.205 C 
ATOM      6  C   UNL     1       8.545  -2.286  25.730  0.00  0.00    +0.179 C 
ATOM      7  C   UNL     1       9.662  -1.958  24.727  0.00  0.00    +0.179 C 
ATOM      8  O   UNL     1       9.316  -2.536  23.449  0.00  0.00    -0.338 OA
ATOM      9  N   UNL     1       7.263  -2.680  22.377  0.00  0.00    -0.261 N 
ATOM     10  H   UNL     1       7.438  -1.883  21.782  0.00  0.00    +0.154 HD
ATOM     11  C   UNL     1       6.428  -3.708  21.980  0.00  0.00    +0.311 C 
ATOM     12  O   UNL     1       5.688  -3.646  21.018  0.00  0.00    -0.252 OA
ENDROOT
BRANCH   6  13
ATOM     13  O   UNL     1       8.816  -3.497  26.432  0.00  0.00    -0.386 OA
ATOM     14  H   UNL     1       8.011  -4.045  26.411  0.00  0.00    +0.210 HD
ENDBRANCH   6  13
BRANCH   5  15
ATOM     15  O   UNL     1       6.689  -1.231  24.647  0.00  0.00    -0.384 OA
ATOM     16  H   UNL     1       7.372  -0.537  24.682  0.00  0.00    +0.210 HD
ENDBRANCH   5  15
BRANCH   1  17
ATOM     17  C   UNL     1       5.967  -6.062  22.706  0.00  0.00    +0.118 C 
BRANCH  17  18
ATOM     18  C   UNL     1       4.651  -5.968  23.481  0.00  0.00    +0.022 C 
BRANCH  18  19
ATOM     19  C   UNL     1       4.461  -6.957  24.628  0.00  0.00    +0.034 C 
BRANCH  19  20
ATOM     20  C   UNL     1       4.537  -6.243  26.006  0.00  0.00    +0.195 C 
BRANCH  20  21
ATOM     21  C   UNL     1       3.232  -6.553  26.780  0.00  0.00    +0.324 C 
ATOM     22  O   UNL     1       2.728  -5.804  27.606  0.00  0.00    -0.249 OA
BRANCH  21  23
ATOM     23  O   UNL     1       2.661  -7.729  26.417  0.00  0.00    -0.479 OA
ATOM     24  H   UNL     1       1.710  -7.524  26.233  0.00  0.00    +0.295 HD
ENDBRANCH  21  23
ENDBRANCH  20  21
BRANCH  20  25
ATOM     25  N   UNL     1       5.718  -6.673  26.823  0.00  0.00    -0.152 NA
BRANCH  25  26
ATOM     26  O   UNL     1       5.195  -7.437  27.959  0.00  0.00    -0.309 OA
ATOM     27  H   UNL     1       5.749  -8.255  27.932  0.00  0.00    +0.237 HD
ENDBRANCH  25  26
BRANCH  25  28
ATOM     28  C   UNL     1       6.404  -5.535  27.433  0.00  0.00    +0.270 C 
BRANCH  28  29
ATOM     29  O   UNL     1       7.776  -5.882  27.585  0.00  0.00    -0.378 OA
ATOM     30  H   UNL     1       7.796  -6.840  27.760  0.00  0.00    +0.211 HD
ENDBRANCH  28  29
ENDBRANCH  25  28
ENDBRANCH  20  25
ENDBRANCH  19  20
ENDBRANCH  18  19
ENDBRANCH  17  18
ENDBRANCH   1  17
BRANCH   7  31
ATOM     31  C   UNL     1       9.820  -0.464  24.484  0.00  0.00    +0.206 C 
BRANCH  31  32
ATOM     32  O   UNL     1      10.439  -0.219  23.237  0.00  0.00    -0.284 OA
BRANCH  32  33
ATOM     33  P   UNL     1       9.519   0.397  22.083  0.00  0.00    +0.472 P 
ATOM     34  O   UNL     1       9.923   1.735  21.572  0.00  0.00    -0.228 OA
BRANCH  33  35
ATOM     35  O   UNL     1       9.505  -0.745  20.967  0.00  0.00    -0.303 OA
ATOM     36  H   UNL     1       8.895  -1.463  21.210  0.00  0.00    +0.222 HD
ENDBRANCH  33  35
BRANCH  33  37
ATOM     37  O   UNL     1       8.044   0.346  22.690  0.00  0.00    -0.303 OA
ATOM     38  H   UNL     1       7.790   1.206  23.074  0.00  0.00    +0.222 HD
ENDBRANCH  33  37
ENDBRANCH  32  33
ENDBRANCH  31  32
ENDBRANCH   7  31
TORSDOF 17
ENDMDL
MODEL 2
REMARK VINA RESULT:      -6.5      2.834      7.061
REMARK  Name = 
REMARK  17 active torsions:
REMARK  status: ('A' for Active; 'I' for Inactive)
REMARK    1  A    between atoms: O_1  and  C_2
REMARK    2  A    between atoms: C_2  and  N_3
REMARK    3  A    between atoms: N_3  and  O_4
REMARK    4  A    between atoms: N_3  and  C_5
REMARK    5  A    between atoms: C_5  and  C_7
REMARK    6  A    between atoms: C_5  and  C_32
REMARK    7  A    between atoms: C_7  and  C_8
REMARK    8  A    between atoms: C_8  and  C_9
REMARK    9  A    between atoms: C_9  and  N_10
REMARK   10  A    between atoms: C_16  and  C_18
REMARK   11  A    between atoms: C_18  and  O_19
REMARK   12  A    between atoms: O_19  and  P_20
REMARK   13  A    between atoms: P_20  and  O_21
REMARK   14  A    between atoms: P_20  and  O_22
REMARK   15  A    between atoms: C_24  and  O_26
REMARK   16  A    between atoms: C_27  and  O_29
REMARK   17  A    between atoms: C_32  and  O_33
REMARK                            x       y       z     vdW  Elec       q    Type
REMARK                         _______ _______ _______ _____ _____    ______ ____
ROOT
ATOM      1  N   UNL     1       9.195  -1.658  24.164  0.00  0.00    -0.222 N 
ATOM      2  C   UNL     1       8.567  -2.242  25.231  0.00  0.00    +0.277 C 
ATOM      3  O   UNL     1       8.630  -1.919  26.404  0.00  0.00    -0.270 OA
ATOM      4  C   UNL     1       7.768  -3.428  24.680  0.00  0.00    +0.244 C 
ATOM      5  C   UNL     1       8.649  -4.700  24.717  0.00  0.00    +0.205 C 
ATOM      6  C   UNL     1       8.100  -5.416  25.932  0.00  0.00    +0.179 C 
ATOM      7  C   UNL     1       6.627  -4.975  25.946  0.00  0.00    +0.179 C 
ATOM      8  O   UNL     1       6.519  -3.712  25.255  0.00  0.00    -0.338 OA
ATOM      9  N   UNL     1       7.585  -2.957  23.337  0.00  0.00    -0.261 N 
ATOM     10  H   UNL     1       6.803  -3.164  22.734  0.00  0.00    +0.154 HD
ATOM     11  C   UNL     1       8.478  -1.944  23.039  0.00  0.00    +0.311 C 
ATOM     12  O   UNL     1       8.528  -1.381  21.963  0.00  0.00    -0.252 OA
ENDROOT
BRANCH   6  13
ATOM     13  O   UNL     1       8.790  -4.954  27.089  0.00  0.00    -0.386 OA
ATOM     14  H   UNL     1       9.162  -5.729  27.548  0.00  0.00    +0.210 HD
ENDBRANCH   6  13
BRANCH   5  15
ATOM     15  O   UNL     1       8.470  -5.555  23.571  0.00  0.00    -0.384 OA
ATOM     16  H   UNL     1       8.612  -6.473  23.862  0.00  0.00    +0.210 HD
ENDBRANCH   5  15
BRANCH   1  17
ATOM     17  C   UNL     1      10.245  -0.655  24.264  0.00  0.00    +0.118 C 
BRANCH  17  18
ATOM     18  C   UNL     1       9.621   0.666  24.717  0.00  0.00    +0.022 C 
BRANCH  18  19
ATOM     19  C   UNL     1       9.434   1.737  23.646  0.00  0.00    +0.034 C 
BRANCH  19  20
ATOM     20  C   UNL     1       7.942   2.153  23.521  0.00  0.00    +0.195 C 
BRANCH  20  21
ATOM     21  C   UNL     1       7.622   2.341  22.017  0.00  0.00    +0.324 C 
ATOM     22  O   UNL     1       6.729   3.061  21.589  0.00  0.00    -0.249 OA
BRANCH  21  23
ATOM     23  O   UNL     1       8.467   1.664  21.200  0.00  0.00    -0.479 OA
ATOM     24  H   UNL     1       9.372   1.787  21.581  0.00  0.00    +0.295 HD
ENDBRANCH  21  23
ENDBRANCH  20  21
BRANCH  20  25
ATOM     25  N   UNL     1       7.001   1.145  24.110  0.00  0.00    -0.152 NA
BRANCH  25  26
ATOM     26  O   UNL     1       6.351   0.461  22.989  0.00  0.00    -0.309 OA
ATOM     27  H   UNL     1       6.702   0.958  22.211  0.00  0.00    +0.237 HD
ENDBRANCH  25  26
BRANCH  25  28
ATOM     28  C   UNL     1       5.903   1.782  24.836  0.00  0.00    +0.270 C 
BRANCH  28  29
ATOM     29  O   UNL     1       4.799   1.894  23.945  0.00  0.00    -0.378 OA
ATOM     30  H   UNL     1       4.313   1.053  24.007  0.00  0.00    +0.211 HD
ENDBRANCH  28  29
ENDBRANCH  25  28
ENDBRANCH  20  25
ENDBRANCH  19  20
ENDBRANCH  18  19
ENDBRANCH  17  18
ENDBRANCH   1  17
BRANCH   7  31
ATOM     31  C   UNL     1       5.713  -5.940  25.203  0.00  0.00    +0.206 C 
BRANCH  31  32
ATOM     32  O   UNL     1       4.748  -5.237  24.445  0.00  0.00    -0.284 OA
BRANCH  32  33
ATOM     33  P   UNL     1       4.773  -5.458  22.862  0.00  0.00    +0.472 P 
ATOM     34  O   UNL     1       4.979  -4.237  22.037  0.00  0.00    -0.228 OA
BRANCH  33  35
ATOM     35  O   UNL     1       5.898  -6.573  22.658  0.00  0.00    -0.303 OA
ATOM     36  H   UNL     1       5.954  -6.846  21.726  0.00  0.00    +0.222 HD
ENDBRANCH  33  35
BRANCH  33  37
ATOM     37  O   UNL     1       3.414  -6.236  22.554  0.00  0.00    -0.303 OA
ATOM     38  H   UNL     1       3.588  -7.089  22.113  0.00  0.00    +0.222 HD
ENDBRANCH  33  37
ENDBRANCH  32  33
ENDBRANCH  31  32
ENDBRANCH   7  31
TORSDOF 17
ENDMDL
MODEL 3
REMARK VINA RESULT:      -6.3      1.511      2.310
REMARK  Name = 
REMARK  17 active torsions:
REMARK  status: ('A' for Active; 'I' for Inactive)
REMARK    1  A    between atoms: O_1  and  C_2
REMARK    2  A    between atoms: C_2  and  N_3
REMARK    3  A    between atoms: N_3  and  O_4
REMARK    4  A    between atoms: N_3  and  C_5
REMARK    5  A    between atoms: C_5  and  C_7
REMARK    6  A    between atoms: C_5  and  C_32
REMARK    7  A    between atoms: C_7  and  C_8
REMARK    8  A    between atoms: C_8  and  C_9
REMARK    9  A    between atoms: C_9  and  N_10
REMARK   10  A    between atoms: C_16  and  C_18
REMARK   11  A    between atoms: C_18  and  O_19
REMARK   12  A    between atoms: O_19  and  P_20
REMARK   13  A    between atoms: P_20  and  O_21
REMARK   14  A    between atoms: P_20  and  O_22
REMARK   15  A    between atoms: C_24  and  O_26
REMARK   16  A    between atoms: C_27  and  O_29
REMARK   17  A    between atoms: C_32  and  O_33
REMARK                            x       y       z     vdW  Elec       q    Type
REMARK                         _______ _______ _______ _____ _____    ______ ____
ROOT
ATOM      1  N   UNL     1       6.750  -4.496  23.100  0.00  0.00    -0.222 N 
ATOM      2  C   UNL     1       7.982  -4.115  23.558  0.00  0.00    +0.277 C 
ATOM      3  O   UNL     1       8.767  -4.768  24.224  0.00  0.00    -0.270 OA
ATOM      4  C   UNL     1       8.199  -2.670  23.098  0.00  0.00    +0.244 C 
ATOM      5  C   UNL     1       7.681  -1.703  24.189  0.00  0.00    +0.205 C 
ATOM      6  C   UNL     1       8.971  -1.260  24.843  0.00  0.00    +0.179 C 
ATOM      7  C   UNL     1       9.979  -1.332  23.685  0.00  0.00    +0.179 C 
ATOM      8  O   UNL     1       9.492  -2.283  22.712  0.00  0.00    -0.338 OA
ATOM      9  N   UNL     1       7.335  -2.678  21.952  0.00  0.00    -0.261 N 
ATOM     10  H   UNL     1       7.454  -2.131  21.113  0.00  0.00    +0.154 HD
ATOM     11  C   UNL     1       6.451  -3.740  22.004  0.00  0.00    +0.311 C 
ATOM     12  O   UNL     1       5.614  -3.965  21.152  0.00  0.00    -0.252 OA
ENDROOT
BRANCH   6  13
ATOM     13  O   UNL     1       9.302  -2.182  25.877  0.00  0.00    -0.386 OA
ATOM     14  H   UNL     1       9.896  -2.857  25.502  0.00  0.00    +0.210 HD
ENDBRANCH   6  13
BRANCH   5  15
ATOM     15  O   UNL     1       7.023  -0.537  23.656  0.00  0.00    -0.384 OA
ATOM     16  H   UNL     1       6.737   0.012  24.409  0.00  0.00    +0.210 HD
ENDBRANCH   5  15
BRANCH   1  17
ATOM     17  C   UNL     1       6.045  -5.700  23.513  0.00  0.00    +0.118 C 
BRANCH  17  18
ATOM     18  C   UNL     1       4.879  -5.300  24.420  0.00  0.00    +0.022 C 
BRANCH  18  19
ATOM     19  C   UNL     1       5.231  -4.517  25.681  0.00  0.00    +0.034 C 
BRANCH  19  20
ATOM     20  C   UNL     1       5.756  -5.460  26.800  0.00  0.00    +0.195 C 
BRANCH  20  21
ATOM     21  C   UNL     1       7.197  -5.018  27.160  0.00  0.00    +0.324 C 
ATOM     22  O   UNL     1       7.581  -3.857  27.153  0.00  0.00    -0.249 OA
BRANCH  21  23
ATOM     23  O   UNL     1       7.995  -6.049  27.537  0.00  0.00    -0.479 OA
ATOM     24  H   UNL     1       7.415  -6.672  28.040  0.00  0.00    +0.295 HD
ENDBRANCH  21  23
ENDBRANCH  20  21
BRANCH  20  25
ATOM     25  N   UNL     1       4.903  -5.437  28.033  0.00  0.00    -0.152 NA
BRANCH  25  26
ATOM     26  O   UNL     1       5.785  -5.110  29.156  0.00  0.00    -0.309 OA
ATOM     27  H   UNL     1       5.279  -5.463  29.928  0.00  0.00    +0.237 HD
ENDBRANCH  25  26
BRANCH  25  28
ATOM     28  C   UNL     1       4.376  -6.762  28.356  0.00  0.00    +0.270 C 
BRANCH  28  29
ATOM     29  O   UNL     1       5.483  -7.638  28.541  0.00  0.00    -0.378 OA
ATOM     30  H   UNL     1       5.905  -7.370  29.376  0.00  0.00    +0.211 HD
ENDBRANCH  28  29
ENDBRANCH  25  28
ENDBRANCH  20  25
ENDBRANCH  19  20
ENDBRANCH  18  19
ENDBRANCH  17  18
ENDBRANCH   1  17
BRANCH   7  31
ATOM     31  C   UNL     1      10.126  -0.010  22.944  0.00  0.00    +0.206 C 
BRANCH  31  32
ATOM     32  O   UNL     1       9.712   1.070  23.756  0.00  0.00    -0.284 OA
BRANCH  32  33
ATOM     33  P   UNL     1       9.263   2.408  23.004  0.00  0.00    +0.472 P 
ATOM     34  O   UNL     1       9.556   3.684  23.711  0.00  0.00    -0.228 OA
BRANCH  33  35
ATOM     35  O   UNL     1       9.963   2.285  21.574  0.00  0.00    -0.303 OA
ATOM     36  H   UNL     1       9.496   1.644  21.010  0.00  0.00    +0.222 HD
ENDBRANCH  33  35
BRANCH  33  37
ATOM     37  O   UNL     1       7.716   2.176  22.685  0.00  0.00    -0.303 OA
ATOM     38  H   UNL     1       7.182   2.183  23.502  0.00  0.00    +0.222 HD
ENDBRANCH  33  37
ENDBRANCH  32  33
ENDBRANCH  31  32
ENDBRANCH   7  31
TORSDOF 17
ENDMDL
MODEL 4
REMARK VINA RESULT:      -6.3      2.789      7.325
REMARK  Name = 
REMARK  17 active torsions:
REMARK  status: ('A' for Active; 'I' for Inactive)
REMARK    1  A    between atoms: O_1  and  C_2
REMARK    2  A    between atoms: C_2  and  N_3
REMARK    3  A    between atoms: N_3  and  O_4
REMARK    4  A    between atoms: N_3  and  C_5
REMARK    5  A    between atoms: C_5  and  C_7
REMARK    6  A    between atoms: C_5  and  C_32
REMARK    7  A    between atoms: C_7  and  C_8
REMARK    8  A    between atoms: C_8  and  C_9
REMARK    9  A    between atoms: C_9  and  N_10
REMARK   10  A    between atoms: C_16  and  C_18
REMARK   11  A    between atoms: C_18  and  O_19
REMARK   12  A    between atoms: O_19  and  P_20
REMARK   13  A    between atoms: P_20  and  O_21
REMARK   14  A    between atoms: P_20  and  O_22
REMARK   15  A    between atoms: C_24  and  O_26
REMARK   16  A    between atoms: C_27  and  O_29
REMARK   17  A    between atoms: C_32  and  O_33
REMARK                            x       y       z     vdW  Elec       q    Type
REMARK                         _______ _______ _______ _____ _____    ______ ____
ROOT
ATOM      1  N   UNL     1       8.966  -3.098  23.802  0.00  0.00    -0.222 N 
ATOM      2  C   UNL     1       7.627  -3.184  23.530  0.00  0.00    +0.277 C 
ATOM      3  O   UNL     1       7.035  -2.767  22.549  0.00  0.00    -0.270 OA
ATOM      4  C   UNL     1       6.977  -3.891  24.724  0.00  0.00    +0.244 C 
ATOM      5  C   UNL     1       6.527  -2.834  25.761  0.00  0.00    +0.205 C 
ATOM      6  C   UNL     1       5.037  -2.770  25.506  0.00  0.00    +0.179 C 
ATOM      7  C   UNL     1       4.716  -4.195  25.028  0.00  0.00    +0.179 C 
ATOM      8  O   UNL     1       5.916  -4.776  24.474  0.00  0.00    -0.338 OA
ATOM      9  N   UNL     1       8.120  -4.625  25.186  0.00  0.00    -0.261 N 
ATOM     10  H   UNL     1       8.104  -5.518  25.656  0.00  0.00    +0.154 HD
ATOM     11  C   UNL     1       9.290  -4.103  24.666  0.00  0.00    +0.311 C 
ATOM     12  O   UNL     1      10.395  -4.545  24.910  0.00  0.00    -0.252 OA
ENDROOT
BRANCH   6  13
ATOM     13  O   UNL     1       4.787  -1.811  24.483  0.00  0.00    -0.386 OA
ATOM     14  H   UNL     1       4.049  -1.244  24.774  0.00  0.00    +0.210 HD
ENDBRANCH   6  13
BRANCH   5  15
ATOM     15  O   UNL     1       6.733  -3.248  27.126  0.00  0.00    -0.384 OA
ATOM     16  H   UNL     1       5.879  -3.175  27.589  0.00  0.00    +0.210 HD
ENDBRANCH   5  15
BRANCH   1  17
ATOM     17  C   UNL     1       9.916  -2.288  23.054  0.00  0.00    +0.118 C 
BRANCH  17  18
ATOM     18  C   UNL     1       9.982  -0.897  23.687  0.00  0.00    +0.022 C 
BRANCH  18  19
ATOM     19  C   UNL     1       9.753   0.289  22.754  0.00  0.00    +0.034 C 
BRANCH  19  20
ATOM     20  C   UNL     1       8.499   1.104  23.178  0.00  0.00    +0.195 C 
BRANCH  20  21
ATOM     21  C   UNL     1       7.951   1.827  21.922  0.00  0.00    +0.324 C 
ATOM     22  O   UNL     1       7.095   2.701  21.951  0.00  0.00    -0.249 OA
BRANCH  21  23
ATOM     23  O   UNL     1       8.552   1.433  20.771  0.00  0.00    -0.479 OA
ATOM     24  H   UNL     1       8.420   2.172  20.127  0.00  0.00    +0.295 HD
ENDBRANCH  21  23
ENDBRANCH  20  21
BRANCH  20  25
ATOM     25  N   UNL     1       7.420   0.251  23.775  0.00  0.00    -0.152 NA
BRANCH  25  26
ATOM     26  O   UNL     1       6.472  -0.053  22.699  0.00  0.00    -0.309 OA
ATOM     27  H   UNL     1       5.636   0.347  23.040  0.00  0.00    +0.237 HD
ENDBRANCH  25  26
BRANCH  25  28
ATOM     28  C   UNL     1       6.629   0.983  24.762  0.00  0.00    +0.270 C 
BRANCH  28  29
ATOM     29  O   UNL     1       5.323   1.165  24.227  0.00  0.00    -0.378 OA
ATOM     30  H   UNL     1       5.236   0.524  23.499  0.00  0.00    +0.211 HD
ENDBRANCH  28  29
ENDBRANCH  25  28
ENDBRANCH  20  25
ENDBRANCH  19  20
ENDBRANCH  18  19
ENDBRANCH  17  18
ENDBRANCH   1  17
BRANCH   7  31
ATOM     31  C   UNL     1       4.286  -5.117  26.161  0.00  0.00    +0.206 C 
BRANCH  31  32
ATOM     32  O   UNL     1       5.309  -6.043  26.472  0.00  0.00    -0.284 OA
BRANCH  32  33
ATOM     33  P   UNL     1       5.792  -6.100  27.995  0.00  0.00    +0.472 P 
ATOM     34  O   UNL     1       5.221  -5.066  28.900  0.00  0.00    -0.228 OA
BRANCH  33  35
ATOM     35  O   UNL     1       5.461  -7.599  28.435  0.00  0.00    -0.303 OA
ATOM     36  H   UNL     1       5.859  -7.806  29.298  0.00  0.00    +0.222 HD
ENDBRANCH  33  35
BRANCH  33  37
ATOM     37  O   UNL     1       7.385  -6.081  27.900  0.00  0.00    -0.303 OA
ATOM     38  H   UNL     1       7.692  -6.423  27.039  0.00  0.00    +0.222 HD
ENDBRANCH  33  37
ENDBRANCH  32  33
ENDBRANCH  31  32
ENDBRANCH   7  31
TORSDOF 17
ENDMDL
MODEL 5
REMARK VINA RESULT:      -6.2      3.006      4.825
REMARK  Name = 
REMARK  17 active torsions:
REMARK  status: ('A' for Active; 'I' for Inactive)
REMARK    1  A    between atoms: O_1  and  C_2
REMARK    2  A    between atoms: C_2  and  N_3
REMARK    3  A    between atoms: N_3  and  O_4
REMARK    4  A    between atoms: N_3  and  C_5
REMARK    5  A    between atoms: C_5  and  C_7
REMARK    6  A    between atoms: C_5  and  C_32
REMARK    7  A    between atoms: C_7  and  C_8
REMARK    8  A    between atoms: C_8  and  C_9
REMARK    9  A    between atoms: C_9  and  N_10
REMARK   10  A    between atoms: C_16  and  C_18
REMARK   11  A    between atoms: C_18  and  O_19
REMARK   12  A    between atoms: O_19  and  P_20
REMARK   13  A    between atoms: P_20  and  O_21
REMARK   14  A    between atoms: P_20  and  O_22
REMARK   15  A    between atoms: C_24  and  O_26
REMARK   16  A    between atoms: C_27  and  O_29
REMARK   17  A    between atoms: C_32  and  O_33
REMARK                            x       y       z     vdW  Elec       q    Type
REMARK                         _______ _______ _______ _____ _____    ______ ____
ROOT
ATOM      1  N   UNL     1       7.818  -0.995  24.492  0.00  0.00    -0.222 N 
ATOM      2  C   UNL     1       7.758   0.128  23.713  0.00  0.00    +0.277 C 
ATOM      3  O   UNL     1       6.986   0.365  22.801  0.00  0.00    -0.270 OA
ATOM      4  C   UNL     1       8.885   1.054  24.184  0.00  0.00    +0.244 C 
ATOM      5  C   UNL     1      10.165   0.759  23.365  0.00  0.00    +0.205 C 
ATOM      6  C   UNL     1      10.175   1.913  22.387  0.00  0.00    +0.179 C 
ATOM      7  C   UNL     1       9.492   3.037  23.184  0.00  0.00    +0.179 C 
ATOM      8  O   UNL     1       8.648   2.438  24.191  0.00  0.00    -0.338 OA
ATOM      9  N   UNL     1       9.004   0.578  25.532  0.00  0.00    -0.261 N 
ATOM     10  H   UNL     1       9.291   1.121  26.333  0.00  0.00    +0.154 HD
ATOM     11  C   UNL     1       8.410  -0.662  25.676  0.00  0.00    +0.311 C 
ATOM     12  O   UNL     1       8.380  -1.281  26.722  0.00  0.00    -0.252 OA
ENDROOT
BRANCH   6  13
ATOM     13  O   UNL     1       9.409   1.551  21.241  0.00  0.00    -0.386 OA
ATOM     14  H   UNL     1       8.505   1.893  21.361  0.00  0.00    +0.210 HD
ENDBRANCH   6  13
BRANCH   5  15
ATOM     15  O   UNL     1      11.373   0.822  24.148  0.00  0.00    -0.384 OA
ATOM     16  H   UNL     1      11.203   0.364  24.991  0.00  0.00    +0.210 HD
ENDBRANCH   5  15
BRANCH   1  17
ATOM     17  C   UNL     1       7.094  -2.230  24.228  0.00  0.00    +0.118 C 
BRANCH  17  18
ATOM     18  C   UNL     1       8.093  -3.303  23.792  0.00  0.00    +0.022 C 
BRANCH  18  19
ATOM     19  C   UNL     1       7.621  -4.752  23.880  0.00  0.00    +0.034 C 
BRANCH  19  20
ATOM     20  C   UNL     1       6.470  -4.907  24.913  0.00  0.00    +0.195 C 
BRANCH  20  21
ATOM     21  C   UNL     1       5.212  -5.403  24.158  0.00  0.00    +0.324 C 
ATOM     22  O   UNL     1       4.080  -4.987  24.362  0.00  0.00    -0.249 OA
BRANCH  21  23
ATOM     23  O   UNL     1       5.490  -6.321  23.199  0.00  0.00    -0.479 OA
ATOM     24  H   UNL     1       4.620  -6.714  22.937  0.00  0.00    +0.295 HD
ENDBRANCH  21  23
ENDBRANCH  20  21
BRANCH  20  25
ATOM     25  N   UNL     1       6.801  -5.864  26.019  0.00  0.00    -0.152 NA
BRANCH  25  26
ATOM     26  O   UNL     1       5.598  -6.666  26.263  0.00  0.00    -0.309 OA
ATOM     27  H   UNL     1       5.614  -7.299  25.505  0.00  0.00    +0.237 HD
ENDBRANCH  25  26
BRANCH  25  28
ATOM     28  C   UNL     1       7.043  -5.174  27.285  0.00  0.00    +0.270 C 
BRANCH  28  29
ATOM     29  O   UNL     1       8.186  -4.343  27.117  0.00  0.00    -0.378 OA
ATOM     30  H   UNL     1       8.471  -4.089  28.012  0.00  0.00    +0.211 HD
ENDBRANCH  28  29
ENDBRANCH  25  28
ENDBRANCH  20  25
ENDBRANCH  19  20
ENDBRANCH  18  19
ENDBRANCH  17  18
ENDBRANCH   1  17
BRANCH   7  31
ATOM     31  C   UNL     1      10.483   3.917  23.934  0.00  0.00    +0.206 C 
BRANCH  31  32
ATOM     32  O   UNL     1      11.775   3.814  23.370  0.00  0.00    -0.284 OA
BRANCH  32  33
ATOM     33  P   UNL     1      12.590   5.176  23.179  0.00  0.00    +0.472 P 
ATOM     34  O   UNL     1      12.158   6.319  24.028  0.00  0.00    -0.228 OA
BRANCH  33  35
ATOM     35  O   UNL     1      14.108   4.737  23.410  0.00  0.00    -0.303 OA
ATOM     36  H   UNL     1      14.212   3.774  23.314  0.00  0.00    +0.222 HD
ENDBRANCH  33  35
BRANCH  33  37
ATOM     37  O   UNL     1      12.516   5.460  21.610  0.00  0.00    -0.303 OA
ATOM     38  H   UNL     1      12.961   4.756  21.103  0.00  0.00    +0.222 HD
ENDBRANCH  33  37
ENDBRANCH  32  33
ENDBRANCH  31  32
ENDBRANCH   7  31
TORSDOF 17
ENDMDL
MODEL 6
REMARK VINA RESULT:      -6.1      3.055      5.482
REMARK  Name = 
REMARK  17 active torsions:
REMARK  status: ('A' for Active; 'I' for Inactive)
REMARK    1  A    between atoms: O_1  and  C_2
REMARK    2  A    between atoms: C_2  and  N_3
REMARK    3  A    between atoms: N_3  and  O_4
REMARK    4  A    between atoms: N_3  and  C_5
REMARK    5  A    between atoms: C_5  and  C_7
REMARK    6  A    between atoms: C_5  and  C_32
REMARK    7  A    between atoms: C_7  and  C_8
REMARK    8  A    between atoms: C_8  and  C_9
REMARK    9  A    between atoms: C_9  and  N_10
REMARK   10  A    between atoms: C_16  and  C_18
REMARK   11  A    between atoms: C_18  and  O_19
REMARK   12  A    between atoms: O_19  and  P_20
REMARK   13  A    between atoms: P_20  and  O_21
REMARK   14  A    between atoms: P_20  and  O_22
REMARK   15  A    between atoms: C_24  and  O_26
REMARK   16  A    between atoms: C_27  and  O_29
REMARK   17  A    between atoms: C_32  and  O_33
REMARK                            x       y       z     vdW  Elec       q    Type
REMARK                         _______ _______ _______ _____ _____    ______ ____
ROOT
ATOM      1  N   UNL     1       7.976  -0.746  24.640  0.00  0.00    -0.222 N 
ATOM      2  C   UNL     1       7.890   0.398  23.894  0.00  0.00    +0.277 C 
ATOM      3  O   UNL     1       7.059   0.679  23.048  0.00  0.00    -0.270 OA
ATOM      4  C   UNL     1       9.075   1.281  24.299  0.00  0.00    +0.244 C 
ATOM      5  C   UNL     1      10.281   0.973  23.380  0.00  0.00    +0.205 C 
ATOM      6  C   UNL     1      10.250   2.151  22.431  0.00  0.00    +0.179 C 
ATOM      7  C   UNL     1       9.662   3.272  23.302  0.00  0.00    +0.179 C 
ATOM      8  O   UNL     1       8.879   2.671  24.357  0.00  0.00    -0.338 OA
ATOM      9  N   UNL     1       9.281   0.768  25.623  0.00  0.00    -0.261 N 
ATOM     10  H   UNL     1       9.643   1.283  26.412  0.00  0.00    +0.154 HD
ATOM     11  C   UNL     1       8.664  -0.458  25.783  0.00  0.00    +0.311 C 
ATOM     12  O   UNL     1       8.695  -1.102  26.814  0.00  0.00    -0.252 OA
ENDROOT
BRANCH   6  13
ATOM     13  O   UNL     1       9.391   1.838  21.338  0.00  0.00    -0.386 OA
ATOM     14  H   UNL     1       8.478   2.056  21.600  0.00  0.00    +0.210 HD
ENDBRANCH   6  13
BRANCH   5  15
ATOM     15  O   UNL     1      11.546   0.984  24.071  0.00  0.00    -0.384 OA
ATOM     16  H   UNL     1      11.866   0.065  24.115  0.00  0.00    +0.210 HD
ENDBRANCH   5  15
BRANCH   1  17
ATOM     17  C   UNL     1       7.199  -1.953  24.403  0.00  0.00    +0.118 C 
BRANCH  17  18
ATOM     18  C   UNL     1       8.128  -3.037  23.852  0.00  0.00    +0.022 C 
BRANCH  18  19
ATOM     19  C   UNL     1       7.565  -4.454  23.793  0.00  0.00    +0.034 C 
BRANCH  19  20
ATOM     20  C   UNL     1       8.003  -5.286  25.031  0.00  0.00    +0.195 C 
BRANCH  20  21
ATOM     21  C   UNL     1       9.376  -4.748  25.508  0.00  0.00    +0.324 C 
ATOM     22  O   UNL     1      10.418  -4.873  24.880  0.00  0.00    -0.249 OA
BRANCH  21  23
ATOM     23  O   UNL     1       9.308  -4.071  26.682  0.00  0.00    -0.479 OA
ATOM     24  H   UNL     1       9.770  -3.210  26.526  0.00  0.00    +0.295 HD
ENDBRANCH  21  23
ENDBRANCH  20  21
BRANCH  20  25
ATOM     25  N   UNL     1       7.019  -5.218  26.159  0.00  0.00    -0.152 NA
BRANCH  25  26
ATOM     26  O   UNL     1       7.551  -6.053  27.240  0.00  0.00    -0.309 OA
ATOM     27  H   UNL     1       8.161  -6.659  26.753  0.00  0.00    +0.237 HD
ENDBRANCH  25  26
BRANCH  25  28
ATOM     28  C   UNL     1       5.744  -5.843  25.810  0.00  0.00    +0.270 C 
BRANCH  28  29
ATOM     29  O   UNL     1       5.465  -6.841  26.785  0.00  0.00    -0.378 OA
ATOM     30  H   UNL     1       6.302  -7.001  27.257  0.00  0.00    +0.211 HD
ENDBRANCH  28  29
ENDBRANCH  25  28
ENDBRANCH  20  25
ENDBRANCH  19  20
ENDBRANCH  18  19
ENDBRANCH  17  18
ENDBRANCH   1  17
BRANCH   7  31
ATOM     31  C   UNL     1      10.731   4.106  23.995  0.00  0.00    +0.206 C 
BRANCH  31  32
ATOM     32  O   UNL     1      11.988   3.934  23.371  0.00  0.00    -0.284 OA
BRANCH  32  33
ATOM     33  P   UNL     1      12.808   5.261  23.021  0.00  0.00    +0.472 P 
ATOM     34  O   UNL     1      12.590   5.824  21.661  0.00  0.00    -0.228 OA
BRANCH  33  35
ATOM     35  O   UNL     1      12.421   6.261  24.205  0.00  0.00    -0.303 OA
ATOM     36  H   UNL     1      12.056   5.776  24.966  0.00  0.00    +0.222 HD
ENDBRANCH  33  35
BRANCH  33  37
ATOM     37  O   UNL     1      14.325   4.876  23.336  0.00  0.00    -0.303 OA
ATOM     38  H   UNL     1      14.942   5.408  22.799  0.00  0.00    +0.222 HD
ENDBRANCH  33  37
ENDBRANCH  32  33
ENDBRANCH  31  32
ENDBRANCH   7  31
TORSDOF 17
ENDMDL
MODEL 7
REMARK VINA RESULT:      -6.0      2.942      7.571
REMARK  Name = 
REMARK  17 active torsions:
REMARK  status: ('A' for Active; 'I' for Inactive)
REMARK    1  A    between atoms: O_1  and  C_2
REMARK    2  A    between atoms: C_2  and  N_3
REMARK    3  A    between atoms: N_3  and  O_4
REMARK    4  A    between atoms: N_3  and  C_5
REMARK    5  A    between atoms: C_5  and  C_7
REMARK    6  A    between atoms: C_5  and  C_32
REMARK    7  A    between atoms: C_7  and  C_8
REMARK    8  A    between atoms: C_8  and  C_9
REMARK    9  A    between atoms: C_9  and  N_10
REMARK   10  A    between atoms: C_16  and  C_18
REMARK   11  A    between atoms: C_18  and  O_19
REMARK   12  A    between atoms: O_19  and  P_20
REMARK   13  A    between atoms: P_20  and  O_21
REMARK   14  A    between atoms: P_20  and  O_22
REMARK   15  A    between atoms: C_24  and  O_26
REMARK   16  A    between atoms: C_27  and  O_29
REMARK   17  A    between atoms: C_32  and  O_33
REMARK                            x       y       z     vdW  Elec       q    Type
REMARK                         _______ _______ _______ _____ _____    ______ ____
ROOT
ATOM      1  N   UNL     1       9.646  -1.057  24.302  0.00  0.00    -0.222 N 
ATOM      2  C   UNL     1       8.409  -1.328  24.822  0.00  0.00    +0.277 C 
ATOM      3  O   UNL     1       7.776  -0.668  25.628  0.00  0.00    -0.270 OA
ATOM      4  C   UNL     1       7.958  -2.663  24.220  0.00  0.00    +0.244 C 
ATOM      5  C   UNL     1       8.414  -3.820  25.140  0.00  0.00    +0.205 C 
ATOM      6  C   UNL     1       7.126  -4.170  25.853  0.00  0.00    +0.179 C 
ATOM      7  C   UNL     1       6.056  -3.819  24.806  0.00  0.00    +0.179 C 
ATOM      8  O   UNL     1       6.598  -2.825  23.910  0.00  0.00    -0.338 OA
ATOM      9  N   UNL     1       8.727  -2.622  23.010  0.00  0.00    -0.261 N 
ATOM     10  H   UNL     1       8.471  -3.038  22.127  0.00  0.00    +0.154 HD
ATOM     11  C   UNL     1       9.753  -1.700  23.103  0.00  0.00    +0.311 C 
ATOM     12  O   UNL     1      10.549  -1.480  22.211  0.00  0.00    -0.252 OA
ENDROOT
BRANCH   6  13
ATOM     13  O   UNL     1       7.005  -3.351  27.013  0.00  0.00    -0.386 OA
ATOM     14  H   UNL     1       6.128  -3.511  27.406  0.00  0.00    +0.210 HD
ENDBRANCH   6  13
BRANCH   5  15
ATOM     15  O   UNL     1       8.860  -4.985  24.419  0.00  0.00    -0.384 OA
ATOM     16  H   UNL     1       8.440  -5.763  24.826  0.00  0.00    +0.210 HD
ENDBRANCH   5  15
BRANCH   1  17
ATOM     17  C   UNL     1      10.542  -0.018  24.786  0.00  0.00    +0.118 C 
BRANCH  17  18
ATOM     18  C   UNL     1      10.392   1.217  23.896  0.00  0.00    +0.022 C 
BRANCH  18  19
ATOM     19  C   UNL     1       9.193   2.118  24.174  0.00  0.00    +0.034 C 
BRANCH  19  20
ATOM     20  C   UNL     1       8.604   2.695  22.856  0.00  0.00    +0.195 C 
BRANCH  20  21
ATOM     21  C   UNL     1       8.081   1.510  22.007  0.00  0.00    +0.324 C 
ATOM     22  O   UNL     1       7.192   0.749  22.364  0.00  0.00    -0.249 OA
BRANCH  21  23
ATOM     23  O   UNL     1       8.672   1.420  20.789  0.00  0.00    -0.479 OA
ATOM     24  H   UNL     1       9.548   1.872  20.878  0.00  0.00    +0.295 HD
ENDBRANCH  21  23
ENDBRANCH  20  21
BRANCH  20  25
ATOM     25  N   UNL     1       7.493   3.673  23.090  0.00  0.00    -0.152 NA
BRANCH  25  26
ATOM     26  O   UNL     1       6.631   3.632  21.905  0.00  0.00    -0.309 OA
ATOM     27  H   UNL     1       7.289   3.547  21.173  0.00  0.00    +0.237 HD
ENDBRANCH  25  26
BRANCH  25  28
ATOM     28  C   UNL     1       7.979   5.051  23.140  0.00  0.00    +0.270 C 
BRANCH  28  29
ATOM     29  O   UNL     1       9.388   5.024  22.938  0.00  0.00    -0.378 OA
ATOM     30  H   UNL     1       9.523   4.830  21.994  0.00  0.00    +0.211 HD
ENDBRANCH  28  29
ENDBRANCH  25  28
ENDBRANCH  20  25
ENDBRANCH  19  20
ENDBRANCH  18  19
ENDBRANCH  17  18
ENDBRANCH   1  17
BRANCH   7  31
ATOM     31  C   UNL     1       5.669  -5.006  23.934  0.00  0.00    +0.206 C 
BRANCH  31  32
ATOM     32  O   UNL     1       5.625  -4.635  22.571  0.00  0.00    -0.284 OA
BRANCH  32  33
ATOM     33  P   UNL     1       6.375  -5.596  21.536  0.00  0.00    +0.472 P 
ATOM     34  O   UNL     1       5.976  -5.456  20.109  0.00  0.00    -0.228 OA
BRANCH  33  35
ATOM     35  O   UNL     1       7.921  -5.304  21.808  0.00  0.00    -0.303 OA
ATOM     36  H   UNL     1       8.293  -5.948  22.436  0.00  0.00    +0.222 HD
ENDBRANCH  33  35
BRANCH  33  37
ATOM     37  O   UNL     1       6.159  -7.060  22.136  0.00  0.00    -0.303 OA
ATOM     38  H   UNL     1       7.012  -7.489  22.336  0.00  0.00    +0.222 HD
ENDBRANCH  33  37
ENDBRANCH  32  33
ENDBRANCH  31  32
ENDBRANCH   7  31
TORSDOF 17
ENDMDL
MODEL 8
REMARK VINA RESULT:      -6.0      2.061      2.984
REMARK  Name = 
REMARK  17 active torsions:
REMARK  status: ('A' for Active; 'I' for Inactive)
REMARK    1  A    between atoms: O_1  and  C_2
REMARK    2  A    between atoms: C_2  and  N_3
REMARK    3  A    between atoms: N_3  and  O_4
REMARK    4  A    between atoms: N_3  and  C_5
REMARK    5  A    between atoms: C_5  and  C_7
REMARK    6  A    between atoms: C_5  and  C_32
REMARK    7  A    between atoms: C_7  and  C_8
REMARK    8  A    between atoms: C_8  and  C_9
REMARK    9  A    between atoms: C_9  and  N_10
REMARK   10  A    between atoms: C_16  and  C_18
REMARK   11  A    between atoms: C_18  and  O_19
REMARK   12  A    between atoms: O_19  and  P_20
REMARK   13  A    between atoms: P_20  and  O_21
REMARK   14  A    between atoms: P_20  and  O_22
REMARK   15  A    between atoms: C_24  and  O_26
REMARK   16  A    between atoms: C_27  and  O_29
REMARK   17  A    between atoms: C_32  and  O_33
REMARK                            x       y       z     vdW  Elec       q    Type
REMARK                         _______ _______ _______ _____ _____    ______ ____
ROOT
ATOM      1  N   UNL     1       5.332  -1.679  24.976  0.00  0.00    -0.222 N 
ATOM      2  C   UNL     1       6.100  -2.349  24.064  0.00  0.00    +0.277 C 
ATOM      3  O   UNL     1       5.852  -3.407  23.510  0.00  0.00    -0.270 OA
ATOM      4  C   UNL     1       7.381  -1.529  23.875  0.00  0.00    +0.244 C 
ATOM      5  C   UNL     1       8.452  -2.013  24.882  0.00  0.00    +0.205 C 
ATOM      6  C   UNL     1       9.344  -2.855  23.997  0.00  0.00    +0.179 C 
ATOM      7  C   UNL     1       9.207  -2.169  22.629  0.00  0.00    +0.179 C 
ATOM      8  O   UNL     1       7.946  -1.467  22.591  0.00  0.00    -0.338 OA
ATOM      9  N   UNL     1       6.865  -0.241  24.238  0.00  0.00    -0.261 N 
ATOM     10  H   UNL     1       7.181   0.650  23.883  0.00  0.00    +0.154 HD
ATOM     11  C   UNL     1       5.677  -0.359  24.935  0.00  0.00    +0.311 C 
ATOM     12  O   UNL     1       5.042   0.588  25.358  0.00  0.00    -0.252 OA
ENDROOT
BRANCH   6  13
ATOM     13  O   UNL     1       8.835  -4.186  23.964  0.00  0.00    -0.386 OA
ATOM     14  H   UNL     1       8.657  -4.464  24.880  0.00  0.00    +0.210 HD
ENDBRANCH   6  13
BRANCH   5  15
ATOM     15  O   UNL     1       9.244  -0.943  25.434  0.00  0.00    -0.384 OA
ATOM     16  H   UNL     1       9.722  -0.519  24.698  0.00  0.00    +0.210 HD
ENDBRANCH   5  15
BRANCH   1  17
ATOM     17  C   UNL     1       4.149  -2.223  25.627  0.00  0.00    +0.118 C 
BRANCH  17  18
ATOM     18  C   UNL     1       4.593  -3.121  26.783  0.00  0.00    +0.022 C 
BRANCH  18  19
ATOM     19  C   UNL     1       3.961  -4.508  26.852  0.00  0.00    +0.034 C 
BRANCH  19  20
ATOM     20  C   UNL     1       4.982  -5.612  26.457  0.00  0.00    +0.195 C 
BRANCH  20  21
ATOM     21  C   UNL     1       4.443  -6.333  25.196  0.00  0.00    +0.324 C 
ATOM     22  O   UNL     1       4.418  -7.548  25.057  0.00  0.00    -0.249 OA
BRANCH  21  23
ATOM     23  O   UNL     1       3.946  -5.482  24.263  0.00  0.00    -0.479 OA
ATOM     24  H   UNL     1       3.002  -5.746  24.128  0.00  0.00    +0.295 HD
ENDBRANCH  21  23
ENDBRANCH  20  21
BRANCH  20  25
ATOM     25  N   UNL     1       6.351  -5.070  26.177  0.00  0.00    -0.152 NA
BRANCH  25  26
ATOM     26  O   UNL     1       6.807  -5.686  24.927  0.00  0.00    -0.309 OA
ATOM     27  H   UNL     1       7.114  -4.903  24.410  0.00  0.00    +0.237 HD
ENDBRANCH  25  26
BRANCH  25  28
ATOM     28  C   UNL     1       7.326  -5.508  27.176  0.00  0.00    +0.270 C 
BRANCH  28  29
ATOM     29  O   UNL     1       8.523  -5.860  26.492  0.00  0.00    -0.378 OA
ATOM     30  H   UNL     1       8.811  -6.710  26.868  0.00  0.00    +0.211 HD
ENDBRANCH  28  29
ENDBRANCH  25  28
ENDBRANCH  20  25
ENDBRANCH  19  20
ENDBRANCH  18  19
ENDBRANCH  17  18
ENDBRANCH   1  17
BRANCH   7  31
ATOM     31  C   UNL     1      10.282  -1.119  22.382  0.00  0.00    +0.206 C 
BRANCH  31  32
ATOM     32  O   UNL     1       9.787  -0.075  21.566  0.00  0.00    -0.284 OA
BRANCH  32  33
ATOM     33  P   UNL     1       9.448   1.309  22.290  0.00  0.00    +0.472 P 
ATOM     34  O   UNL     1       9.655   1.342  23.764  0.00  0.00    -0.228 OA
BRANCH  33  35
ATOM     35  O   UNL     1      10.328   2.374  21.490  0.00  0.00    -0.303 OA
ATOM     36  H   UNL     1      10.788   2.976  22.101  0.00  0.00    +0.222 HD
ENDBRANCH  33  35
BRANCH  33  37
ATOM     37  O   UNL     1       7.955   1.635  21.831  0.00  0.00    -0.303 OA
ATOM     38  H   UNL     1       7.359   0.883  22.009  0.00  0.00    +0.222 HD
ENDBRANCH  33  37
ENDBRANCH  32  33
ENDBRANCH  31  32
ENDBRANCH   7  31
TORSDOF 17
ENDMDL
MODEL 9
REMARK VINA RESULT:      -6.0      3.406      7.675
REMARK  Name = 
REMARK  17 active torsions:
REMARK  status: ('A' for Active; 'I' for Inactive)
REMARK    1  A    between atoms: O_1  and  C_2
REMARK    2  A    between atoms: C_2  and  N_3
REMARK    3  A    between atoms: N_3  and  O_4
REMARK    4  A    between atoms: N_3  and  C_5
REMARK    5  A    between atoms: C_5  and  C_7
REMARK    6  A    between atoms: C_5  and  C_32
REMARK    7  A    between atoms: C_7  and  C_8
REMARK    8  A    between atoms: C_8  and  C_9
REMARK    9  A    between atoms: C_9  and  N_10
REMARK   10  A    between atoms: C_16  and  C_18
REMARK   11  A    between atoms: C_18  and  O_19
REMARK   12  A    between atoms: O_19  and  P_20
REMARK   13  A    between atoms: P_20  and  O_21
REMARK   14  A    between atoms: P_20  and  O_22
REMARK   15  A    between atoms: C_24  and  O_26
REMARK   16  A    between atoms: C_27  and  O_29
REMARK   17  A    between atoms: C_32  and  O_33
REMARK                            x       y       z     vdW  Elec       q    Type
REMARK                         _______ _______ _______ _____ _____    ______ ____
ROOT
ATOM      1  N   UNL     1       9.861   0.098  22.908  0.00  0.00    -0.222 N 
ATOM      2  C   UNL     1       9.699  -1.221  22.580  0.00  0.00    +0.277 C 
ATOM      3  O   UNL     1       9.793  -1.735  21.479  0.00  0.00    -0.270 OA
ATOM      4  C   UNL     1       9.338  -1.957  23.875  0.00  0.00    +0.244 C 
ATOM      5  C   UNL     1       7.800  -1.983  24.037  0.00  0.00    +0.205 C 
ATOM      6  C   UNL     1       7.471  -3.399  23.618  0.00  0.00    +0.179 C 
ATOM      7  C   UNL     1       8.734  -4.173  24.028  0.00  0.00    +0.179 C 
ATOM      8  O   UNL     1       9.846  -3.253  24.065  0.00  0.00    -0.338 OA
ATOM      9  N   UNL     1       9.949  -1.057  24.810  0.00  0.00    -0.261 N 
ATOM     10  H   UNL     1      10.339  -1.305  25.707  0.00  0.00    +0.154 HD
ATOM     11  C   UNL     1      10.201   0.171  24.227  0.00  0.00    +0.311 C 
ATOM     12  O   UNL     1      10.710   1.106  24.812  0.00  0.00    -0.252 OA
ENDROOT
BRANCH   6  13
ATOM     13  O   UNL     1       7.280  -3.428  22.206  0.00  0.00    -0.386 OA
ATOM     14  H   UNL     1       7.383  -2.520  21.869  0.00  0.00    +0.210 HD
ENDBRANCH   6  13
BRANCH   5  15
ATOM     15  O   UNL     1       7.364  -1.803  25.399  0.00  0.00    -0.384 OA
ATOM     16  H   UNL     1       8.062  -1.314  25.871  0.00  0.00    +0.210 HD
ENDBRANCH   5  15
BRANCH   1  17
ATOM     17  C   UNL     1       9.967   1.186  21.947  0.00  0.00    +0.118 C 
BRANCH  17  18
ATOM     18  C   UNL     1       8.576   1.485  21.385  0.00  0.00    +0.022 C 
BRANCH  18  19
ATOM     19  C   UNL     1       7.481   1.793  22.402  0.00  0.00    +0.034 C 
BRANCH  19  20
ATOM     20  C   UNL     1       7.786   3.105  23.178  0.00  0.00    +0.195 C 
BRANCH  20  21
ATOM     21  C   UNL     1       6.956   4.245  22.536  0.00  0.00    +0.324 C 
ATOM     22  O   UNL     1       5.739   4.338  22.618  0.00  0.00    -0.249 OA
BRANCH  21  23
ATOM     23  O   UNL     1       7.719   5.174  21.906  0.00  0.00    -0.479 OA
ATOM     24  H   UNL     1       8.658   4.899  22.052  0.00  0.00    +0.295 HD
ENDBRANCH  21  23
ENDBRANCH  20  21
BRANCH  20  25
ATOM     25  N   UNL     1       7.461   3.010  24.639  0.00  0.00    -0.152 NA
BRANCH  25  26
ATOM     26  O   UNL     1       8.719   3.192  25.368  0.00  0.00    -0.309 OA
ATOM     27  H   UNL     1       8.426   3.122  26.309  0.00  0.00    +0.237 HD
ENDBRANCH  25  26
BRANCH  25  28
ATOM     28  C   UNL     1       7.013   1.669  25.012  0.00  0.00    +0.270 C 
BRANCH  28  29
ATOM     29  O   UNL     1       7.879   1.190  26.035  0.00  0.00    -0.378 OA
ATOM     30  H   UNL     1       8.619   1.819  26.081  0.00  0.00    +0.211 HD
ENDBRANCH  28  29
ENDBRANCH  25  28
ENDBRANCH  20  25
ENDBRANCH  19  20
ENDBRANCH  18  19
ENDBRANCH  17  18
ENDBRANCH   1  17
BRANCH   7  31
ATOM     31  C   UNL     1       8.635  -4.770  25.425  0.00  0.00    +0.206 C 
BRANCH  31  32
ATOM     32  O   UNL     1       7.472  -5.564  25.552  0.00  0.00    -0.284 OA
BRANCH  32  33
ATOM     33  P   UNL     1       6.644  -5.420  26.913  0.00  0.00    +0.472 P 
ATOM     34  O   UNL     1       6.146  -4.054  27.231  0.00  0.00    -0.228 OA
BRANCH  33  35
ATOM     35  O   UNL     1       5.489  -6.512  26.764  0.00  0.00    -0.303 OA
ATOM     36  H   UNL     1       4.609  -6.102  26.841  0.00  0.00    +0.222 HD
ENDBRANCH  33  35
BRANCH  33  37
ATOM     37  O   UNL     1       7.607  -6.042  28.024  0.00  0.00    -0.303 OA
ATOM     38  H   UNL     1       8.330  -6.555  27.616  0.00  0.00    +0.222 HD
ENDBRANCH  33  37
ENDBRANCH  32  33
ENDBRANCH  31  32
ENDBRANCH   7  31
TORSDOF 17
ENDMDL
