MODEL 1
REMARK VINA RESULT:      -5.7      0.000      0.000
REMARK  Name = 
REMARK  14 active torsions:
REMARK  status: ('A' for Active; 'I' for Inactive)
REMARK    1  A    between atoms: C_8  and  C_10
REMARK    2  A    between atoms: C_11  and  C_12
REMARK    3  A    between atoms: C_12  and  C_13
REMARK    4  A    between atoms: C_13  and  C_14
REMARK    5  A    between atoms: C_14  and  C_15
REMARK    6  A    between atoms: C_15  and  C_16
REMARK    7  A    between atoms: C_16  and  O_17
REMARK    8  A    between atoms: C_19  and  C_21
REMARK    9  A    between atoms: C_22  and  C_23
REMARK   10  A    between atoms: C_23  and  C_24
REMARK   11  A    between atoms: C_24  and  C_25
REMARK   12  A    between atoms: C_25  and  C_26
REMARK   13  A    between atoms: C_26  and  C_27
REMARK   14  A    between atoms: C_27  and  C_28
REMARK                            x       y       z     vdW  Elec       q    Type
REMARK                         _______ _______ _______ _____ _____    ______ ____
ROOT
ATOM      1  C   UNL     1       6.152  -5.395  22.361  0.00  0.00    +0.137 C 
ATOM      2  C   UNL     1       7.401  -4.692  22.952  0.00  0.00    +0.047 C 
ATOM      3  C   UNL     1       6.913  -3.209  22.985  0.00  0.00    +0.047 C 
ATOM      4  C   UNL     1       5.512  -3.343  22.332  0.00  0.00    +0.137 C 
ATOM      5  N   UNL     1       5.694  -3.768  20.919  0.00  0.00    -0.188 NA
ATOM      6  N   UNL     1       6.071  -4.978  20.935  0.00  0.00    -0.188 NA
ATOM      7  C   UNL     1       4.977  -4.627  22.941  0.00  0.00    +0.058 C 
ENDROOT
BRANCH   2   8
ATOM      8  C   UNL     1       7.755  -5.208  24.329  0.00  0.00    -0.025 C 
ATOM      9  C   UNL     1       8.072  -4.415  25.363  0.00  0.00    -0.031 C 
BRANCH   9  10
ATOM     10  C   UNL     1       8.406  -4.931  26.734  0.00  0.00    +0.027 C 
BRANCH  10  11
ATOM     11  C   UNL     1       7.201  -5.638  27.357  0.00  0.00    +0.004 C 
BRANCH  11  12
ATOM     12  C   UNL     1       6.032  -4.674  27.558  0.00  0.00    +0.000 C 
BRANCH  12  13
ATOM     13  C   UNL     1       4.796  -5.138  26.786  0.00  0.00    -0.000 C 
BRANCH  13  14
ATOM     14  C   UNL     1       4.717  -6.662  26.729  0.00  0.00    -0.003 C 
ATOM     15  C   UNL     1       4.299  -7.143  25.348  0.00  0.00    +0.004 C 
ENDBRANCH  13  14
ENDBRANCH  12  13
ENDBRANCH  11  12
ENDBRANCH  10  11
ENDBRANCH   9  10
ENDBRANCH   2   8
BRANCH   3  16
ATOM     16  C   UNL     1       7.844  -2.258  22.273  0.00  0.00    -0.025 C 
ATOM     17  C   UNL     1       9.053  -1.897  22.732  0.00  0.00    -0.031 C 
BRANCH  17  18
ATOM     18  C   UNL     1       9.978  -0.969  21.996  0.00  0.00    +0.027 C 
BRANCH  18  19
ATOM     19  C   UNL     1       9.283   0.357  21.681  0.00  0.00    +0.005 C 
BRANCH  19  20
ATOM     20  C   UNL     1      10.148   1.551  22.084  0.00  0.00    +0.011 C 
BRANCH  20  21
ATOM     21  C   UNL     1      10.568   1.464  23.551  0.00  0.00    +0.120 C 
BRANCH  21  22
ATOM     22  C   UNL     1       9.411   1.736  24.485  0.00  0.00    +0.305 C 
ATOM     23  O   UNL     1       8.714   2.737  24.474  0.00  0.00    -0.251 OA
BRANCH  22  24
ATOM     24  O   UNL     1       9.215   0.727  25.364  0.00  0.00    -0.481 OA
ATOM     25  H   UNL     1       8.312   0.358  25.347  0.00  0.00    +0.295 HD
ENDBRANCH  22  24
ENDBRANCH  21  22
ENDBRANCH  20  21
ENDBRANCH  19  20
ENDBRANCH  18  19
ENDBRANCH  17  18
ENDBRANCH   3  16
TORSDOF 13
ENDMDL
MODEL 2
REMARK VINA RESULT:      -5.6      3.075      7.811
REMARK  Name = 
REMARK  14 active torsions:
REMARK  status: ('A' for Active; 'I' for Inactive)
REMARK    1  A    between atoms: C_8  and  C_10
REMARK    2  A    between atoms: C_11  and  C_12
REMARK    3  A    between atoms: C_12  and  C_13
REMARK    4  A    between atoms: C_13  and  C_14
REMARK    5  A    between atoms: C_14  and  C_15
REMARK    6  A    between atoms: C_15  and  C_16
REMARK    7  A    between atoms: C_16  and  O_17
REMARK    8  A    between atoms: C_19  and  C_21
REMARK    9  A    between atoms: C_22  and  C_23
REMARK   10  A    between atoms: C_23  and  C_24
REMARK   11  A    between atoms: C_24  and  C_25
REMARK   12  A    between atoms: C_25  and  C_26
REMARK   13  A    between atoms: C_26  and  C_27
REMARK   14  A    between atoms: C_27  and  C_28
REMARK                            x       y       z     vdW  Elec       q    Type
REMARK                         _______ _______ _______ _____ _____    ______ ____
ROOT
ATOM      1  C   UNL     1      10.220  -0.295  22.270  0.00  0.00    +0.137 C 
ATOM      2  C   UNL     1       8.689  -0.055  22.207  0.00  0.00    +0.047 C 
ATOM      3  C   UNL     1       8.284  -0.375  23.682  0.00  0.00    +0.047 C 
ATOM      4  C   UNL     1       9.649  -0.812  24.276  0.00  0.00    +0.137 C 
ATOM      5  N   UNL     1      10.073  -2.067  23.601  0.00  0.00    -0.188 NA
ATOM      6  N   UNL     1      10.410  -1.763  22.418  0.00  0.00    -0.188 NA
ATOM      7  C   UNL     1      10.620   0.178  23.657  0.00  0.00    +0.058 C 
ENDROOT
BRANCH   2   8
ATOM      8  C   UNL     1       8.343   1.363  21.814  0.00  0.00    -0.025 C 
ATOM      9  C   UNL     1       7.434   2.113  22.454  0.00  0.00    -0.031 C 
BRANCH   9  10
ATOM     10  C   UNL     1       7.106   3.528  22.071  0.00  0.00    +0.027 C 
BRANCH  10  11
ATOM     11  C   UNL     1       7.347   4.478  23.245  0.00  0.00    +0.004 C 
BRANCH  11  12
ATOM     12  C   UNL     1       8.474   3.974  24.147  0.00  0.00    +0.000 C 
BRANCH  12  13
ATOM     13  C   UNL     1       9.766   4.755  23.903  0.00  0.00    -0.000 C 
BRANCH  13  14
ATOM     14  C   UNL     1      10.889   3.836  23.429  0.00  0.00    -0.003 C 
ATOM     15  C   UNL     1      12.199   4.594  23.281  0.00  0.00    +0.004 C 
ENDBRANCH  13  14
ENDBRANCH  12  13
ENDBRANCH  11  12
ENDBRANCH  10  11
ENDBRANCH   9  10
ENDBRANCH   2   8
BRANCH   3  16
ATOM     16  C   UNL     1       7.196  -1.416  23.790  0.00  0.00    -0.025 C 
ATOM     17  C   UNL     1       6.615  -2.014  22.737  0.00  0.00    -0.031 C 
BRANCH  17  18
ATOM     18  C   UNL     1       5.551  -3.068  22.863  0.00  0.00    +0.027 C 
BRANCH  18  19
ATOM     19  C   UNL     1       5.350  -3.467  24.327  0.00  0.00    +0.005 C 
BRANCH  19  20
ATOM     20  C   UNL     1       5.813  -4.902  24.583  0.00  0.00    +0.011 C 
BRANCH  20  21
ATOM     21  C   UNL     1       7.194  -4.932  25.236  0.00  0.00    +0.120 C 
BRANCH  21  22
ATOM     22  C   UNL     1       8.297  -5.097  24.216  0.00  0.00    +0.305 C 
ATOM     23  O   UNL     1       8.160  -5.563  23.096  0.00  0.00    -0.251 OA
BRANCH  22  24
ATOM     24  O   UNL     1       9.491  -4.660  24.677  0.00  0.00    -0.481 OA
ATOM     25  H   UNL     1      10.259  -5.080  24.246  0.00  0.00    +0.295 HD
ENDBRANCH  22  24
ENDBRANCH  21  22
ENDBRANCH  20  21
ENDBRANCH  19  20
ENDBRANCH  18  19
ENDBRANCH  17  18
ENDBRANCH   3  16
TORSDOF 13
ENDMDL
MODEL 3
REMARK VINA RESULT:      -5.5      3.166      7.313
REMARK  Name = 
REMARK  14 active torsions:
REMARK  status: ('A' for Active; 'I' for Inactive)
REMARK    1  A    between atoms: C_8  and  C_10
REMARK    2  A    between atoms: C_11  and  C_12
REMARK    3  A    between atoms: C_12  and  C_13
REMARK    4  A    between atoms: C_13  and  C_14
REMARK    5  A    between atoms: C_14  and  C_15
REMARK    6  A    between atoms: C_15  and  C_16
REMARK    7  A    between atoms: C_16  and  O_17
REMARK    8  A    between atoms: C_19  and  C_21
REMARK    9  A    between atoms: C_22  and  C_23
REMARK   10  A    between atoms: C_23  and  C_24
REMARK   11  A    between atoms: C_24  and  C_25
REMARK   12  A    between atoms: C_25  and  C_26
REMARK   13  A    between atoms: C_26  and  C_27
REMARK   14  A    between atoms: C_27  and  C_28
REMARK                            x       y       z     vdW  Elec       q    Type
REMARK                         _______ _______ _______ _____ _____    ______ ____
ROOT
ATOM      1  C   UNL     1      10.155  -0.278  22.349  0.00  0.00    +0.137 C 
ATOM      2  C   UNL     1       8.613  -0.132  22.266  0.00  0.00    +0.047 C 
ATOM      3  C   UNL     1       8.208  -0.493  23.731  0.00  0.00    +0.047 C 
ATOM      4  C   UNL     1       9.589  -0.852  24.341  0.00  0.00    +0.137 C 
ATOM      5  N   UNL     1      10.099  -2.071  23.659  0.00  0.00    -0.188 NA
ATOM      6  N   UNL     1      10.433  -1.733  22.484  0.00  0.00    -0.188 NA
ATOM      7  C   UNL     1      10.505   0.203  23.747  0.00  0.00    +0.058 C 
ENDROOT
BRANCH   2   8
ATOM      8  C   UNL     1       8.186   1.267  21.884  0.00  0.00    -0.025 C 
ATOM      9  C   UNL     1       7.095   1.873  22.374  0.00  0.00    -0.031 C 
BRANCH   9  10
ATOM     10  C   UNL     1       6.683   3.270  22.004  0.00  0.00    +0.027 C 
BRANCH  10  11
ATOM     11  C   UNL     1       6.794   4.206  23.209  0.00  0.00    +0.004 C 
BRANCH  11  12
ATOM     12  C   UNL     1       8.251   4.556  23.508  0.00  0.00    +0.000 C 
BRANCH  12  13
ATOM     13  C   UNL     1       8.757   3.803  24.740  0.00  0.00    -0.000 C 
BRANCH  13  14
ATOM     14  C   UNL     1       7.636   3.579  25.753  0.00  0.00    -0.003 C 
ATOM     15  C   UNL     1       7.492   2.106  26.103  0.00  0.00    +0.004 C 
ENDBRANCH  13  14
ENDBRANCH  12  13
ENDBRANCH  11  12
ENDBRANCH  10  11
ENDBRANCH   9  10
ENDBRANCH   2   8
BRANCH   3  16
ATOM     16  C   UNL     1       7.185  -1.600  23.812  0.00  0.00    -0.025 C 
ATOM     17  C   UNL     1       6.516  -2.090  22.756  0.00  0.00    -0.031 C 
BRANCH  17  18
ATOM     18  C   UNL     1       5.520  -3.210  22.850  0.00  0.00    +0.027 C 
BRANCH  18  19
ATOM     19  C   UNL     1       5.686  -3.979  24.163  0.00  0.00    +0.005 C 
BRANCH  19  20
ATOM     20  C   UNL     1       6.403  -5.311  23.944  0.00  0.00    +0.011 C 
BRANCH  20  21
ATOM     21  C   UNL     1       7.898  -5.105  23.704  0.00  0.00    +0.120 C 
BRANCH  21  22
ATOM     22  C   UNL     1       8.702  -5.281  24.971  0.00  0.00    +0.305 C 
ATOM     23  O   UNL     1       8.240  -5.530  26.072  0.00  0.00    -0.251 OA
BRANCH  22  24
ATOM     24  O   UNL     1      10.030  -5.135  24.760  0.00  0.00    -0.481 OA
ATOM     25  H   UNL     1      10.554  -5.050  25.578  0.00  0.00    +0.295 HD
ENDBRANCH  22  24
ENDBRANCH  21  22
ENDBRANCH  20  21
ENDBRANCH  19  20
ENDBRANCH  18  19
ENDBRANCH  17  18
ENDBRANCH   3  16
TORSDOF 13
ENDMDL
MODEL 4
REMARK VINA RESULT:      -5.3      3.336      5.032
REMARK  Name = 
REMARK  14 active torsions:
REMARK  status: ('A' for Active; 'I' for Inactive)
REMARK    1  A    between atoms: C_8  and  C_10
REMARK    2  A    between atoms: C_11  and  C_12
REMARK    3  A    between atoms: C_12  and  C_13
REMARK    4  A    between atoms: C_13  and  C_14
REMARK    5  A    between atoms: C_14  and  C_15
REMARK    6  A    between atoms: C_15  and  C_16
REMARK    7  A    between atoms: C_16  and  O_17
REMARK    8  A    between atoms: C_19  and  C_21
REMARK    9  A    between atoms: C_22  and  C_23
REMARK   10  A    between atoms: C_23  and  C_24
REMARK   11  A    between atoms: C_24  and  C_25
REMARK   12  A    between atoms: C_25  and  C_26
REMARK   13  A    between atoms: C_26  and  C_27
REMARK   14  A    between atoms: C_27  and  C_28
REMARK                            x       y       z     vdW  Elec       q    Type
REMARK                         _______ _______ _______ _____ _____    ______ ____
ROOT
ATOM      1  C   UNL     1       9.528  -0.983  24.593  0.00  0.00    +0.137 C 
ATOM      2  C   UNL     1       8.220  -0.360  24.041  0.00  0.00    +0.047 C 
ATOM      3  C   UNL     1       8.647  -0.040  22.573  0.00  0.00    +0.047 C 
ATOM      4  C   UNL     1      10.138  -0.467  22.598  0.00  0.00    +0.137 C 
ATOM      5  N   UNL     1      10.868   0.434  23.529  0.00  0.00    -0.188 NA
ATOM      6  N   UNL     1      10.509   0.131  24.705  0.00  0.00    -0.188 NA
ATOM      7  C   UNL     1      10.109  -1.747  23.415  0.00  0.00    +0.058 C 
ENDROOT
BRANCH   2   8
ATOM      8  C   UNL     1       7.055  -1.322  24.101  0.00  0.00    -0.025 C 
ATOM      9  C   UNL     1       6.516  -1.908  23.021  0.00  0.00    -0.031 C 
BRANCH   9  10
ATOM     10  C   UNL     1       5.369  -2.875  23.086  0.00  0.00    +0.027 C 
BRANCH  10  11
ATOM     11  C   UNL     1       5.533  -3.834  24.267  0.00  0.00    +0.004 C 
BRANCH  11  12
ATOM     12  C   UNL     1       5.855  -5.251  23.793  0.00  0.00    +0.000 C 
BRANCH  12  13
ATOM     13  C   UNL     1       7.310  -5.362  23.336  0.00  0.00    -0.000 C 
BRANCH  13  14
ATOM     14  C   UNL     1       7.402  -5.723  21.855  0.00  0.00    -0.003 C 
ATOM     15  C   UNL     1       6.023  -5.933  21.250  0.00  0.00    +0.004 C 
ENDBRANCH  13  14
ENDBRANCH  12  13
ENDBRANCH  11  12
ENDBRANCH  10  11
ENDBRANCH   9  10
ENDBRANCH   2   8
BRANCH   3  16
ATOM     16  C   UNL     1       8.418   1.402  22.187  0.00  0.00    -0.025 C 
ATOM     17  C   UNL     1       7.944   2.342  23.020  0.00  0.00    -0.031 C 
BRANCH  17  18
ATOM     18  C   UNL     1       7.747   3.778  22.626  0.00  0.00    +0.027 C 
BRANCH  18  19
ATOM     19  C   UNL     1       8.333   4.718  23.682  0.00  0.00    +0.005 C 
BRANCH  19  20
ATOM     20  C   UNL     1       9.832   4.483  23.870  0.00  0.00    +0.011 C 
BRANCH  20  21
ATOM     21  C   UNL     1      10.620   5.786  23.746  0.00  0.00    +0.120 C 
BRANCH  21  22
ATOM     22  C   UNL     1      12.111   5.543  23.715  0.00  0.00    +0.305 C 
ATOM     23  O   UNL     1      12.687   4.779  22.958  0.00  0.00    -0.251 OA
BRANCH  22  24
ATOM     24  O   UNL     1      12.769   6.282  24.637  0.00  0.00    -0.481 OA
ATOM     25  H   UNL     1      12.643   5.975  25.554  0.00  0.00    +0.295 HD
ENDBRANCH  22  24
ENDBRANCH  21  22
ENDBRANCH  20  21
ENDBRANCH  19  20
ENDBRANCH  18  19
ENDBRANCH  17  18
ENDBRANCH   3  16
TORSDOF 13
ENDMDL
MODEL 5
REMARK VINA RESULT:      -5.3      3.549      8.432
REMARK  Name = 
REMARK  14 active torsions:
REMARK  status: ('A' for Active; 'I' for Inactive)
REMARK    1  A    between atoms: C_8  and  C_10
REMARK    2  A    between atoms: C_11  and  C_12
REMARK    3  A    between atoms: C_12  and  C_13
REMARK    4  A    between atoms: C_13  and  C_14
REMARK    5  A    between atoms: C_14  and  C_15
REMARK    6  A    between atoms: C_15  and  C_16
REMARK    7  A    between atoms: C_16  and  O_17
REMARK    8  A    between atoms: C_19  and  C_21
REMARK    9  A    between atoms: C_22  and  C_23
REMARK   10  A    between atoms: C_23  and  C_24
REMARK   11  A    between atoms: C_24  and  C_25
REMARK   12  A    between atoms: C_25  and  C_26
REMARK   13  A    between atoms: C_26  and  C_27
REMARK   14  A    between atoms: C_27  and  C_28
REMARK                            x       y       z     vdW  Elec       q    Type
REMARK                         _______ _______ _______ _____ _____    ______ ____
ROOT
ATOM      1  C   UNL     1       9.073   0.964  21.359  0.00  0.00    +0.137 C 
ATOM      2  C   UNL     1       7.836   1.398  22.186  0.00  0.00    +0.047 C 
ATOM      3  C   UNL     1       8.409   1.308  23.637  0.00  0.00    +0.047 C 
ATOM      4  C   UNL     1       9.835   0.763  23.359  0.00  0.00    +0.137 C 
ATOM      5  N   UNL     1       9.710  -0.607  22.795  0.00  0.00    -0.188 NA
ATOM      6  N   UNL     1       9.262  -0.490  21.616  0.00  0.00    -0.188 NA
ATOM      7  C   UNL     1      10.257   1.536  22.122  0.00  0.00    +0.058 C 
ENDROOT
BRANCH   2   8
ATOM      8  C   UNL     1       7.373   2.795  21.841  0.00  0.00    -0.025 C 
ATOM      9  C   UNL     1       7.516   3.851  22.655  0.00  0.00    -0.031 C 
BRANCH   9  10
ATOM     10  C   UNL     1       7.070   5.241  22.301  0.00  0.00    +0.027 C 
BRANCH  10  11
ATOM     11  C   UNL     1       8.133   6.269  22.694  0.00  0.00    +0.004 C 
BRANCH  11  12
ATOM     12  C   UNL     1       8.958   5.788  23.887  0.00  0.00    +0.000 C 
BRANCH  12  13
ATOM     13  C   UNL     1      10.446   6.075  23.679  0.00  0.00    -0.000 C 
BRANCH  13  14
ATOM     14  C   UNL     1      11.250   4.782  23.561  0.00  0.00    -0.003 C 
ATOM     15  C   UNL     1      12.703   5.063  23.211  0.00  0.00    +0.004 C 
ENDBRANCH  13  14
ENDBRANCH  12  13
ENDBRANCH  11  12
ENDBRANCH  10  11
ENDBRANCH   9  10
ENDBRANCH   2   8
BRANCH   3  16
ATOM     16  C   UNL     1       7.579   0.442  24.554  0.00  0.00    -0.025 C 
ATOM     17  C   UNL     1       6.460  -0.200  24.180  0.00  0.00    -0.031 C 
BRANCH  17  18
ATOM     18  C   UNL     1       5.660  -1.079  25.099  0.00  0.00    +0.027 C 
BRANCH  18  19
ATOM     19  C   UNL     1       6.578  -1.860  26.042  0.00  0.00    +0.005 C 
BRANCH  19  20
ATOM     20  C   UNL     1       6.777  -3.298  25.564  0.00  0.00    +0.011 C 
BRANCH  20  21
ATOM     21  C   UNL     1       8.094  -3.455  24.805  0.00  0.00    +0.120 C 
BRANCH  21  22
ATOM     22  C   UNL     1       7.882  -4.020  23.419  0.00  0.00    +0.305 C 
ATOM     23  O   UNL     1       7.755  -5.203  23.151  0.00  0.00    -0.251 OA
BRANCH  22  24
ATOM     24  O   UNL     1       7.841  -3.055  22.474  0.00  0.00    -0.481 OA
ATOM     25  H   UNL     1       6.976  -2.970  22.032  0.00  0.00    +0.295 HD
ENDBRANCH  22  24
ENDBRANCH  21  22
ENDBRANCH  20  21
ENDBRANCH  19  20
ENDBRANCH  18  19
ENDBRANCH  17  18
ENDBRANCH   3  16
TORSDOF 13
ENDMDL
MODEL 6
REMARK VINA RESULT:      -5.1      3.471      8.523
REMARK  Name = 
REMARK  14 active torsions:
REMARK  status: ('A' for Active; 'I' for Inactive)
REMARK    1  A    between atoms: C_8  and  C_10
REMARK    2  A    between atoms: C_11  and  C_12
REMARK    3  A    between atoms: C_12  and  C_13
REMARK    4  A    between atoms: C_13  and  C_14
REMARK    5  A    between atoms: C_14  and  C_15
REMARK    6  A    between atoms: C_15  and  C_16
REMARK    7  A    between atoms: C_16  and  O_17
REMARK    8  A    between atoms: C_19  and  C_21
REMARK    9  A    between atoms: C_22  and  C_23
REMARK   10  A    between atoms: C_23  and  C_24
REMARK   11  A    between atoms: C_24  and  C_25
REMARK   12  A    between atoms: C_25  and  C_26
REMARK   13  A    between atoms: C_26  and  C_27
REMARK   14  A    between atoms: C_27  and  C_28
REMARK                            x       y       z     vdW  Elec       q    Type
REMARK                         _______ _______ _______ _____ _____    ______ ____
ROOT
ATOM      1  C   UNL     1       8.441   1.729  22.858  0.00  0.00    +0.137 C 
ATOM      2  C   UNL     1       9.540   1.195  23.811  0.00  0.00    +0.047 C 
ATOM      3  C   UNL     1       9.788  -0.223  23.205  0.00  0.00    +0.047 C 
ATOM      4  C   UNL     1       8.725  -0.252  22.074  0.00  0.00    +0.137 C 
ATOM      5  N   UNL     1       7.376  -0.214  22.699  0.00  0.00    -0.188 NA
ATOM      6  N   UNL     1       7.207   0.953  23.161  0.00  0.00    -0.188 NA
ATOM      7  C   UNL     1       8.805   1.152  21.500  0.00  0.00    +0.058 C 
ENDROOT
BRANCH   2   8
ATOM      8  C   UNL     1      10.786   2.050  23.791  0.00  0.00    -0.025 C 
ATOM      9  C   UNL     1      10.801   3.338  23.415  0.00  0.00    -0.031 C 
BRANCH   9  10
ATOM     10  C   UNL     1      12.039   4.189  23.412  0.00  0.00    +0.027 C 
BRANCH  10  11
ATOM     11  C   UNL     1      11.679   5.669  23.269  0.00  0.00    +0.004 C 
BRANCH  11  12
ATOM     12  C   UNL     1      11.812   6.405  24.602  0.00  0.00    +0.000 C 
BRANCH  12  13
ATOM     13  C   UNL     1      10.440   6.674  25.222  0.00  0.00    -0.000 C 
BRANCH  13  14
ATOM     14  C   UNL     1       9.350   6.739  24.153  0.00  0.00    -0.003 C 
ATOM     15  C   UNL     1       8.176   5.838  24.503  0.00  0.00    +0.004 C 
ENDBRANCH  13  14
ENDBRANCH  12  13
ENDBRANCH  11  12
ENDBRANCH  10  11
ENDBRANCH   9  10
ENDBRANCH   2   8
BRANCH   3  16
ATOM     16  C   UNL     1       9.652  -1.337  24.215  0.00  0.00    -0.025 C 
ATOM     17  C   UNL     1       9.571  -2.639  23.898  0.00  0.00    -0.031 C 
BRANCH  17  18
ATOM     18  C   UNL     1       9.462  -3.737  24.918  0.00  0.00    +0.027 C 
BRANCH  18  19
ATOM     19  C   UNL     1       8.572  -4.871  24.406  0.00  0.00    +0.005 C 
BRANCH  19  20
ATOM     20  C   UNL     1       7.095  -4.591  24.683  0.00  0.00    +0.011 C 
BRANCH  20  21
ATOM     21  C   UNL     1       6.525  -5.572  25.706  0.00  0.00    +0.120 C 
BRANCH  21  22
ATOM     22  C   UNL     1       6.819  -5.141  27.125  0.00  0.00    +0.305 C 
ATOM     23  O   UNL     1       6.398  -4.127  27.657  0.00  0.00    -0.251 OA
BRANCH  22  24
ATOM     24  O   UNL     1       7.617  -6.020  27.772  0.00  0.00    -0.481 OA
ATOM     25  H   UNL     1       7.484  -6.947  27.502  0.00  0.00    +0.295 HD
ENDBRANCH  22  24
ENDBRANCH  21  22
ENDBRANCH  20  21
ENDBRANCH  19  20
ENDBRANCH  18  19
ENDBRANCH  17  18
ENDBRANCH   3  16
TORSDOF 13
ENDMDL
MODEL 7
REMARK VINA RESULT:      -5.1      3.447      6.766
REMARK  Name = 
REMARK  14 active torsions:
REMARK  status: ('A' for Active; 'I' for Inactive)
REMARK    1  A    between atoms: C_8  and  C_10
REMARK    2  A    between atoms: C_11  and  C_12
REMARK    3  A    between atoms: C_12  and  C_13
REMARK    4  A    between atoms: C_13  and  C_14
REMARK    5  A    between atoms: C_14  and  C_15
REMARK    6  A    between atoms: C_15  and  C_16
REMARK    7  A    between atoms: C_16  and  O_17
REMARK    8  A    between atoms: C_19  and  C_21
REMARK    9  A    between atoms: C_22  and  C_23
REMARK   10  A    between atoms: C_23  and  C_24
REMARK   11  A    between atoms: C_24  and  C_25
REMARK   12  A    between atoms: C_25  and  C_26
REMARK   13  A    between atoms: C_26  and  C_27
REMARK   14  A    between atoms: C_27  and  C_28
REMARK                            x       y       z     vdW  Elec       q    Type
REMARK                         _______ _______ _______ _____ _____    ______ ____
ROOT
ATOM      1  C   UNL     1       6.279   0.126  27.298  0.00  0.00    +0.137 C 
ATOM      2  C   UNL     1       7.114  -0.697  26.283  0.00  0.00    +0.047 C 
ATOM      3  C   UNL     1       6.346  -0.389  24.958  0.00  0.00    +0.047 C 
ATOM      4  C   UNL     1       5.177   0.483  25.488  0.00  0.00    +0.137 C 
ATOM      5  N   UNL     1       4.324  -0.362  26.364  0.00  0.00    -0.188 NA
ATOM      6  N   UNL     1       4.972  -0.573  27.432  0.00  0.00    -0.188 NA
ATOM      7  C   UNL     1       5.855   1.363  26.524  0.00  0.00    +0.058 C 
ENDROOT
BRANCH   2   8
ATOM      8  C   UNL     1       8.556  -0.248  26.225  0.00  0.00    -0.025 C 
ATOM      9  C   UNL     1       9.230  -0.049  25.083  0.00  0.00    -0.031 C 
BRANCH   9  10
ATOM     10  C   UNL     1      10.659   0.413  25.030  0.00  0.00    +0.027 C 
BRANCH  10  11
ATOM     11  C   UNL     1      10.787   1.681  24.183  0.00  0.00    +0.004 C 
BRANCH  11  12
ATOM     12  C   UNL     1       9.582   1.859  23.261  0.00  0.00    +0.000 C 
BRANCH  12  13
ATOM     13  C   UNL     1       9.920   1.453  21.826  0.00  0.00    -0.000 C 
BRANCH  13  14
ATOM     14  C   UNL     1       9.015   0.322  21.341  0.00  0.00    -0.003 C 
ATOM     15  C   UNL     1       9.642  -1.039  21.601  0.00  0.00    +0.004 C 
ENDBRANCH  13  14
ENDBRANCH  12  13
ENDBRANCH  11  12
ENDBRANCH  10  11
ENDBRANCH   9  10
ENDBRANCH   2   8
BRANCH   3  16
ATOM     16  C   UNL     1       5.911  -1.631  24.218  0.00  0.00    -0.025 C 
ATOM     17  C   UNL     1       6.636  -2.234  23.262  0.00  0.00    -0.031 C 
BRANCH  17  18
ATOM     18  C   UNL     1       6.199  -3.485  22.553  0.00  0.00    +0.027 C 
BRANCH  18  19
ATOM     19  C   UNL     1       6.954  -4.705  23.086  0.00  0.00    +0.005 C 
BRANCH  19  20
ATOM     20  C   UNL     1       8.111  -4.292  23.996  0.00  0.00    +0.011 C 
BRANCH  20  21
ATOM     21  C   UNL     1       8.382  -5.348  25.066  0.00  0.00    +0.120 C 
BRANCH  21  22
ATOM     22  C   UNL     1       7.721  -5.002  26.381  0.00  0.00    +0.305 C 
ATOM     23  O   UNL     1       6.934  -4.087  26.556  0.00  0.00    -0.251 OA
BRANCH  22  24
ATOM     24  O   UNL     1       8.096  -5.835  27.377  0.00  0.00    -0.481 OA
ATOM     25  H   UNL     1       7.880  -5.507  28.270  0.00  0.00    +0.295 HD
ENDBRANCH  22  24
ENDBRANCH  21  22
ENDBRANCH  20  21
ENDBRANCH  19  20
ENDBRANCH  18  19
ENDBRANCH  17  18
ENDBRANCH   3  16
TORSDOF 13
ENDMDL
MODEL 8
REMARK VINA RESULT:      -5.1      3.227      7.340
REMARK  Name = 
REMARK  14 active torsions:
REMARK  status: ('A' for Active; 'I' for Inactive)
REMARK    1  A    between atoms: C_8  and  C_10
REMARK    2  A    between atoms: C_11  and  C_12
REMARK    3  A    between atoms: C_12  and  C_13
REMARK    4  A    between atoms: C_13  and  C_14
REMARK    5  A    between atoms: C_14  and  C_15
REMARK    6  A    between atoms: C_15  and  C_16
REMARK    7  A    between atoms: C_16  and  O_17
REMARK    8  A    between atoms: C_19  and  C_21
REMARK    9  A    between atoms: C_22  and  C_23
REMARK   10  A    between atoms: C_23  and  C_24
REMARK   11  A    between atoms: C_24  and  C_25
REMARK   12  A    between atoms: C_25  and  C_26
REMARK   13  A    between atoms: C_26  and  C_27
REMARK   14  A    between atoms: C_27  and  C_28
REMARK                            x       y       z     vdW  Elec       q    Type
REMARK                         _______ _______ _______ _____ _____    ______ ____
ROOT
ATOM      1  C   UNL     1       6.144  -4.109  21.668  0.00  0.00    +0.137 C 
ATOM      2  C   UNL     1       6.783  -3.341  22.853  0.00  0.00    +0.047 C 
ATOM      3  C   UNL     1       7.329  -4.529  23.709  0.00  0.00    +0.047 C 
ATOM      4  C   UNL     1       6.825  -5.743  22.886  0.00  0.00    +0.137 C 
ATOM      5  N   UNL     1       5.338  -5.752  22.926  0.00  0.00    -0.188 NA
ATOM      6  N   UNL     1       4.936  -4.788  22.209  0.00  0.00    -0.188 NA
ATOM      7  C   UNL     1       7.060  -5.301  21.452  0.00  0.00    +0.058 C 
ENDROOT
BRANCH   2   8
ATOM      8  C   UNL     1       7.884  -2.405  22.408  0.00  0.00    -0.025 C 
ATOM      9  C   UNL     1       9.112  -2.388  22.947  0.00  0.00    -0.031 C 
BRANCH   9  10
ATOM     10  C   UNL     1      10.208  -1.468  22.490  0.00  0.00    +0.027 C 
BRANCH  10  11
ATOM     11  C   UNL     1       9.868  -0.013  22.821  0.00  0.00    +0.004 C 
BRANCH  11  12
ATOM     12  C   UNL     1       9.581   0.793  21.555  0.00  0.00    +0.000 C 
BRANCH  12  13
ATOM     13  C   UNL     1       8.401   1.743  21.762  0.00  0.00    -0.000 C 
BRANCH  13  14
ATOM     14  C   UNL     1       7.692   1.467  23.087  0.00  0.00    -0.003 C 
ATOM     15  C   UNL     1       6.261   1.980  23.067  0.00  0.00    +0.004 C 
ENDBRANCH  13  14
ENDBRANCH  12  13
ENDBRANCH  11  12
ENDBRANCH  10  11
ENDBRANCH   9  10
ENDBRANCH   2   8
BRANCH   3  16
ATOM     16  C   UNL     1       6.848  -4.504  25.140  0.00  0.00    -0.025 C 
ATOM     17  C   UNL     1       7.270  -5.349  26.094  0.00  0.00    -0.031 C 
BRANCH  17  18
ATOM     18  C   UNL     1       6.801  -5.294  27.520  0.00  0.00    +0.027 C 
BRANCH  18  19
ATOM     19  C   UNL     1       5.282  -5.465  27.601  0.00  0.00    +0.005 C 
BRANCH  19  20
ATOM     20  C   UNL     1       4.845  -6.831  27.074  0.00  0.00    +0.011 C 
BRANCH  20  21
ATOM     21  C   UNL     1       3.355  -6.847  26.736  0.00  0.00    +0.120 C 
BRANCH  21  22
ATOM     22  C   UNL     1       3.110  -7.201  25.287  0.00  0.00    +0.305 C 
ATOM     23  O   UNL     1       2.981  -8.332  24.848  0.00  0.00    -0.251 OA
BRANCH  22  24
ATOM     24  O   UNL     1       3.040  -6.106  24.497  0.00  0.00    -0.481 OA
ATOM     25  H   UNL     1       3.579  -5.356  24.812  0.00  0.00    +0.295 HD
ENDBRANCH  22  24
ENDBRANCH  21  22
ENDBRANCH  20  21
ENDBRANCH  19  20
ENDBRANCH  18  19
ENDBRANCH  17  18
ENDBRANCH   3  16
TORSDOF 13
ENDMDL
MODEL 9
REMARK VINA RESULT:      -5.0      3.456      8.463
REMARK  Name = 
REMARK  14 active torsions:
REMARK  status: ('A' for Active; 'I' for Inactive)
REMARK    1  A    between atoms: C_8  and  C_10
REMARK    2  A    between atoms: C_11  and  C_12
REMARK    3  A    between atoms: C_12  and  C_13
REMARK    4  A    between atoms: C_13  and  C_14
REMARK    5  A    between atoms: C_14  and  C_15
REMARK    6  A    between atoms: C_15  and  C_16
REMARK    7  A    between atoms: C_16  and  O_17
REMARK    8  A    between atoms: C_19  and  C_21
REMARK    9  A    between atoms: C_22  and  C_23
REMARK   10  A    between atoms: C_23  and  C_24
REMARK   11  A    between atoms: C_24  and  C_25
REMARK   12  A    between atoms: C_25  and  C_26
REMARK   13  A    between atoms: C_26  and  C_27
REMARK   14  A    between atoms: C_27  and  C_28
REMARK                            x       y       z     vdW  Elec       q    Type
REMARK                         _______ _______ _______ _____ _____    ______ ____
ROOT
ATOM      1  C   UNL     1       8.388   1.704  22.703  0.00  0.00    +0.137 C 
ATOM      2  C   UNL     1       9.382   1.275  23.813  0.00  0.00    +0.047 C 
ATOM      3  C   UNL     1       9.620  -0.220  23.428  0.00  0.00    +0.047 C 
ATOM      4  C   UNL     1       8.654  -0.374  22.223  0.00  0.00    +0.137 C 
ATOM      5  N   UNL     1       7.261  -0.210  22.717  0.00  0.00    -0.188 NA
ATOM      6  N   UNL     1       7.103   1.015  23.000  0.00  0.00    -0.188 NA
ATOM      7  C   UNL     1       8.839   0.934  21.474  0.00  0.00    +0.058 C 
ENDROOT
BRANCH   2   8
ATOM      8  C   UNL     1      10.660   2.082  23.786  0.00  0.00    -0.025 C 
ATOM      9  C   UNL     1      10.718   3.377  23.440  0.00  0.00    -0.031 C 
BRANCH   9  10
ATOM     10  C   UNL     1      11.987   4.179  23.430  0.00  0.00    +0.027 C 
BRANCH  10  11
ATOM     11  C   UNL     1      11.684   5.672  23.286  0.00  0.00    +0.004 C 
BRANCH  11  12
ATOM     12  C   UNL     1      11.958   6.424  24.588  0.00  0.00    +0.000 C 
BRANCH  12  13
ATOM     13  C   UNL     1      10.656   6.756  25.316  0.00  0.00    -0.000 C 
BRANCH  13  14
ATOM     14  C   UNL     1       9.474   6.801  24.350  0.00  0.00    -0.003 C 
ATOM     15  C   UNL     1       8.313   5.959  24.854  0.00  0.00    +0.004 C 
ENDBRANCH  13  14
ENDBRANCH  12  13
ENDBRANCH  11  12
ENDBRANCH  10  11
ENDBRANCH   9  10
ENDBRANCH   2   8
BRANCH   3  16
ATOM     16  C   UNL     1       9.356  -1.179  24.564  0.00  0.00    -0.025 C 
ATOM     17  C   UNL     1       9.128  -2.493  24.407  0.00  0.00    -0.031 C 
BRANCH  17  18
ATOM     18  C   UNL     1       8.892  -3.438  25.551  0.00  0.00    +0.027 C 
BRANCH  18  19
ATOM     19  C   UNL     1       7.892  -4.528  25.161  0.00  0.00    +0.005 C 
BRANCH  19  20
ATOM     20  C   UNL     1       7.988  -4.867  23.673  0.00  0.00    +0.011 C 
BRANCH  20  21
ATOM     21  C   UNL     1       6.643  -5.337  23.121  0.00  0.00    +0.120 C 
BRANCH  21  22
ATOM     22  C   UNL     1       5.865  -4.203  22.493  0.00  0.00    +0.305 C 
ATOM     23  O   UNL     1       4.648  -4.118  22.453  0.00  0.00    -0.251 OA
BRANCH  22  24
ATOM     24  O   UNL     1       6.674  -3.257  21.966  0.00  0.00    -0.481 OA
ATOM     25  H   UNL     1       6.209  -2.605  21.408  0.00  0.00    +0.295 HD
ENDBRANCH  22  24
ENDBRANCH  21  22
ENDBRANCH  20  21
ENDBRANCH  19  20
ENDBRANCH  18  19
ENDBRANCH  17  18
ENDBRANCH   3  16
TORSDOF 13
ENDMDL
