MODEL 1
REMARK VINA RESULT:      -5.8      0.000      0.000
REMARK  Name = 
REMARK  14 active torsions:
REMARK  status: ('A' for Active; 'I' for Inactive)
REMARK    1  A    between atoms: C_1  and  S_2
REMARK    2  A    between atoms: S_2  and  C_3
REMARK    3  A    between atoms: C_3  and  C_4
REMARK    4  A    between atoms: C_4  and  N_6
REMARK    5  A    between atoms: C_4  and  C_17
REMARK    6  A    between atoms: C_7  and  C_9
REMARK    7  A    between atoms: C_9  and  C_10
REMARK    8  A    between atoms: C_10  and  C_11
REMARK    9  A    between atoms: C_11  and  N_13
REMARK   10  A    between atoms: C_11  and  C_14
REMARK   11  A    between atoms: C_14  and  O_15
REMARK   12  A    between atoms: N_19  and  CA_20
REMARK   13  A    between atoms: CA_20  and  C_21
REMARK   14  A    between atoms: C_21  and  O_22
REMARK                            x       y       z     vdW  Elec       q    Type
REMARK                         _______ _______ _______ _____ _____    ______ ____
ROOT
ATOM      1  N   UNK A   1       8.276  -4.058  23.649  0.00  0.00    -0.303 N 
ATOM      2  H   UNK A   1       8.576  -4.882  24.155  0.00  0.00    +0.149 HD
ATOM      3  C   UNK A   1       7.395  -4.227  22.604  0.00  0.00    +0.214 C 
ATOM      4  O   UNK A   1       6.804  -3.301  22.057  0.00  0.00    -0.276 OA
ENDROOT
BRANCH   1   5
ATOM      5  C   UNK A   1       8.396  -2.765  24.344  0.00  0.00    +0.169 C 
BRANCH   5   6
ATOM      6  C   UNK A   1       9.535  -1.931  23.675  0.00  0.00    +0.235 C 
ATOM      7  N   GLY A   2       9.400  -0.564  23.779  0.00  0.00    -0.303 N 
ATOM      8  H   GLY A   2       8.541  -0.186  24.176  0.00  0.00    +0.149 HD
ATOM      9  O   UNK A   1      10.467  -2.433  23.050  0.00  0.00    -0.274 OA
BRANCH   7  10
ATOM     10  CA  GLY A   2      10.352   0.376  23.192  0.00  0.00    +0.224 C 
BRANCH  10  11
ATOM     11  C   GLY A   2       9.862   0.972  21.873  0.00  0.00    +0.322 C 
ATOM     12  OXT GLY A   2       9.143   0.371  21.083  0.00  0.00    -0.249 OA
BRANCH  11  13
ATOM     13  O   GLY A   2      10.258   2.247  21.662  0.00  0.00    -0.480 OA
ATOM     14  H   GLY A   2       9.501   2.784  21.352  0.00  0.00    +0.295 HD
ENDBRANCH  11  13
ENDBRANCH  10  11
ENDBRANCH   7  10
ENDBRANCH   5   6
BRANCH   5  15
ATOM     15  C   UNK A   1       8.529  -2.943  25.872  0.00  0.00    +0.100 C 
BRANCH  15  17
ATOM     16  C   UNK A   1       7.334  -5.173  27.011  0.00  0.00    +0.084 C 
ATOM     17  S   UNK A   1       8.956  -4.653  26.392  0.00  0.00    -0.162 S 
ENDBRANCH  15  17
ENDBRANCH   5  15
ENDBRANCH   1   5
BRANCH   3  18
ATOM     18  C   UNK A   1       7.271  -5.654  22.119  0.00  0.00    +0.098 C 
BRANCH  18  19
ATOM     19  C   UNK A   1       5.790  -6.036  22.037  0.00  0.00    +0.039 C 
BRANCH  19  20
ATOM     20  C   UNK A   1       5.050  -5.991  23.377  0.00  0.00    +0.161 C 
BRANCH  20  21
ATOM     21  N   UNK A   1       4.532  -7.328  23.772  0.00  0.00    -0.318 NA
ATOM     22  H   UNK A   1       4.864  -8.012  23.082  0.00  0.00    +0.119 HD
ATOM     23  H   UNK A   1       5.005  -7.608  24.639  0.00  0.00    +0.119 HD
ENDBRANCH  20  21
BRANCH  20  24
ATOM     24  C   UNK A   1       3.872  -5.013  23.292  0.00  0.00    +0.322 C 
ATOM     25  O   UNK A   1       2.744  -5.305  22.922  0.00  0.00    -0.249 OA
BRANCH  24  26
ATOM     26  O   UNK A   1       4.219  -3.783  23.745  0.00  0.00    -0.480 OA
ATOM     27  H   UNK A   1       4.992  -3.916  24.349  0.00  0.00    +0.295 HD
ENDBRANCH  24  26
ENDBRANCH  20  24
ENDBRANCH  19  20
ENDBRANCH  18  19
ENDBRANCH   3  18
TORSDOF 13
ENDMDL
MODEL 2
REMARK VINA RESULT:      -5.7      2.802      7.282
REMARK  Name = 
REMARK  14 active torsions:
REMARK  status: ('A' for Active; 'I' for Inactive)
REMARK    1  A    between atoms: C_1  and  S_2
REMARK    2  A    between atoms: S_2  and  C_3
REMARK    3  A    between atoms: C_3  and  C_4
REMARK    4  A    between atoms: C_4  and  N_6
REMARK    5  A    between atoms: C_4  and  C_17
REMARK    6  A    between atoms: C_7  and  C_9
REMARK    7  A    between atoms: C_9  and  C_10
REMARK    8  A    between atoms: C_10  and  C_11
REMARK    9  A    between atoms: C_11  and  N_13
REMARK   10  A    between atoms: C_11  and  C_14
REMARK   11  A    between atoms: C_14  and  O_15
REMARK   12  A    between atoms: N_19  and  CA_20
REMARK   13  A    between atoms: CA_20  and  C_21
REMARK   14  A    between atoms: C_21  and  O_22
REMARK                            x       y       z     vdW  Elec       q    Type
REMARK                         _______ _______ _______ _____ _____    ______ ____
ROOT
ATOM      1  N   UNK A   1       9.563  -1.505  24.022  0.00  0.00    -0.303 N 
ATOM      2  H   UNK A   1      10.032  -1.250  23.161  0.00  0.00    +0.149 HD
ATOM      3  C   UNK A   1       9.637  -0.627  25.081  0.00  0.00    +0.214 C 
ATOM      4  O   UNK A   1       8.948  -0.723  26.092  0.00  0.00    -0.276 OA
ENDROOT
BRANCH   1   5
ATOM      5  C   UNK A   1       8.477  -2.495  23.926  0.00  0.00    +0.169 C 
BRANCH   5   6
ATOM      6  C   UNK A   1       8.848  -3.743  24.789  0.00  0.00    +0.235 C 
ATOM      7  N   GLY A   2       8.036  -3.966  25.879  0.00  0.00    -0.303 N 
ATOM      8  H   GLY A   2       7.331  -3.268  26.115  0.00  0.00    +0.149 HD
ATOM      9  O   UNK A   1       9.822  -4.460  24.564  0.00  0.00    -0.274 OA
BRANCH   7  10
ATOM     10  CA  GLY A   2       8.245  -5.068  26.816  0.00  0.00    +0.224 C 
BRANCH  10  11
ATOM     11  C   GLY A   2       6.942  -5.584  27.425  0.00  0.00    +0.322 C 
ATOM     12  OXT GLY A   2       6.604  -5.370  28.583  0.00  0.00    -0.249 OA
BRANCH  11  13
ATOM     13  O   GLY A   2       6.163  -6.270  26.560  0.00  0.00    -0.480 OA
ATOM     14  H   GLY A   2       5.393  -6.649  27.033  0.00  0.00    +0.295 HD
ENDBRANCH  11  13
ENDBRANCH  10  11
ENDBRANCH   7  10
ENDBRANCH   5   6
BRANCH   5  15
ATOM     15  C   UNK A   1       8.107  -2.803  22.459  0.00  0.00    +0.100 C 
BRANCH  15  17
ATOM     16  C   UNK A   1       5.397  -3.397  22.425  0.00  0.00    +0.084 C 
ATOM     17  S   UNK A   1       6.989  -4.247  22.257  0.00  0.00    -0.162 S 
ENDBRANCH  15  17
ENDBRANCH   5  15
ENDBRANCH   1   5
BRANCH   3  18
ATOM     18  C   UNK A   1      10.706   0.433  24.939  0.00  0.00    +0.098 C 
BRANCH  18  19
ATOM     19  C   UNK A   1      10.071   1.730  24.431  0.00  0.00    +0.039 C 
BRANCH  19  20
ATOM     20  C   UNK A   1      10.581   2.192  23.063  0.00  0.00    +0.161 C 
BRANCH  20  21
ATOM     21  N   UNK A   1      10.467   3.666  22.895  0.00  0.00    -0.318 NA
ATOM     22  H   UNK A   1       9.565   3.862  22.446  0.00  0.00    +0.119 HD
ATOM     23  H   UNK A   1      10.370   4.085  23.828  0.00  0.00    +0.119 HD
ENDBRANCH  20  21
BRANCH  20  24
ATOM     24  C   UNK A   1       9.783   1.507  21.948  0.00  0.00    +0.322 C 
ATOM     25  O   UNK A   1       9.897   0.335  21.623  0.00  0.00    -0.249 OA
BRANCH  24  26
ATOM     26  O   UNK A   1       8.874   2.353  21.402  0.00  0.00    -0.480 OA
ATOM     27  H   UNK A   1       8.112   2.389  22.034  0.00  0.00    +0.295 HD
ENDBRANCH  24  26
ENDBRANCH  20  24
ENDBRANCH  19  20
ENDBRANCH  18  19
ENDBRANCH   3  18
TORSDOF 13
ENDMDL
MODEL 3
REMARK VINA RESULT:      -5.6      2.923      6.559
REMARK  Name = 
REMARK  14 active torsions:
REMARK  status: ('A' for Active; 'I' for Inactive)
REMARK    1  A    between atoms: C_1  and  S_2
REMARK    2  A    between atoms: S_2  and  C_3
REMARK    3  A    between atoms: C_3  and  C_4
REMARK    4  A    between atoms: C_4  and  N_6
REMARK    5  A    between atoms: C_4  and  C_17
REMARK    6  A    between atoms: C_7  and  C_9
REMARK    7  A    between atoms: C_9  and  C_10
REMARK    8  A    between atoms: C_10  and  C_11
REMARK    9  A    between atoms: C_11  and  N_13
REMARK   10  A    between atoms: C_11  and  C_14
REMARK   11  A    between atoms: C_14  and  O_15
REMARK   12  A    between atoms: N_19  and  CA_20
REMARK   13  A    between atoms: CA_20  and  C_21
REMARK   14  A    between atoms: C_21  and  O_22
REMARK                            x       y       z     vdW  Elec       q    Type
REMARK                         _______ _______ _______ _____ _____    ______ ____
ROOT
ATOM      1  N   UNK A   1       6.593  -0.879  22.704  0.00  0.00    -0.303 N 
ATOM      2  H   UNK A   1       6.361  -0.695  21.735  0.00  0.00    +0.149 HD
ATOM      3  C   UNK A   1       6.715   0.199  23.554  0.00  0.00    +0.214 C 
ATOM      4  O   UNK A   1       6.786   0.096  24.774  0.00  0.00    -0.276 OA
ENDROOT
BRANCH   1   5
ATOM      5  C   UNK A   1       6.302  -2.227  23.218  0.00  0.00    +0.169 C 
BRANCH   5   6
ATOM      6  C   UNK A   1       7.615  -2.847  23.793  0.00  0.00    +0.235 C 
ATOM      7  N   GLY A   2       7.603  -3.095  25.148  0.00  0.00    -0.303 N 
ATOM      8  H   GLY A   2       6.809  -2.771  25.698  0.00  0.00    +0.149 HD
ATOM      9  O   UNK A   1       8.620  -3.060  23.116  0.00  0.00    -0.274 OA
BRANCH   7  10
ATOM     10  CA  GLY A   2       8.749  -3.648  25.866  0.00  0.00    +0.224 C 
BRANCH  10  11
ATOM     11  C   GLY A   2       8.852  -5.167  25.740  0.00  0.00    +0.322 C 
ATOM     12  OXT GLY A   2       9.452  -5.734  24.834  0.00  0.00    -0.249 OA
BRANCH  11  13
ATOM     13  O   GLY A   2       8.254  -5.846  26.745  0.00  0.00    -0.480 OA
ATOM     14  H   GLY A   2       8.932  -6.229  27.338  0.00  0.00    +0.295 HD
ENDBRANCH  11  13
ENDBRANCH  10  11
ENDBRANCH   7  10
ENDBRANCH   5   6
BRANCH   5  15
ATOM     15  C   UNK A   1       5.573  -3.097  22.172  0.00  0.00    +0.100 C 
BRANCH  15  17
ATOM     16  C   UNK A   1       6.296  -5.585  21.178  0.00  0.00    +0.084 C 
ATOM     17  S   UNK A   1       5.462  -4.875  22.623  0.00  0.00    -0.162 S 
ENDBRANCH  15  17
ENDBRANCH   5  15
ENDBRANCH   1   5
BRANCH   3  18
ATOM     18  C   UNK A   1       6.841   1.534  22.854  0.00  0.00    +0.098 C 
BRANCH  18  19
ATOM     19  C   UNK A   1       7.962   1.458  21.814  0.00  0.00    +0.039 C 
BRANCH  19  20
ATOM     20  C   UNK A   1       9.375   1.443  22.405  0.00  0.00    +0.161 C 
BRANCH  20  21
ATOM     21  N   UNK A   1      10.291   2.364  21.681  0.00  0.00    -0.318 NA
ATOM     22  H   UNK A   1      11.018   2.667  22.340  0.00  0.00    +0.119 HD
ATOM     23  H   UNK A   1      10.808   1.815  20.984  0.00  0.00    +0.119 HD
ENDBRANCH  20  21
BRANCH  20  24
ATOM     24  C   UNK A   1       9.953   0.024  22.341  0.00  0.00    +0.322 C 
ATOM     25  O   UNK A   1      10.700  -0.466  23.175  0.00  0.00    -0.249 OA
BRANCH  24  26
ATOM     26  O   UNK A   1       9.478  -0.654  21.267  0.00  0.00    -0.480 OA
ATOM     27  H   UNK A   1      10.173  -1.318  21.027  0.00  0.00    +0.295 HD
ENDBRANCH  24  26
ENDBRANCH  20  24
ENDBRANCH  19  20
ENDBRANCH  18  19
ENDBRANCH   3  18
TORSDOF 13
ENDMDL
MODEL 4
REMARK VINA RESULT:      -5.5      4.306      6.617
REMARK  Name = 
REMARK  14 active torsions:
REMARK  status: ('A' for Active; 'I' for Inactive)
REMARK    1  A    between atoms: C_1  and  S_2
REMARK    2  A    between atoms: S_2  and  C_3
REMARK    3  A    between atoms: C_3  and  C_4
REMARK    4  A    between atoms: C_4  and  N_6
REMARK    5  A    between atoms: C_4  and  C_17
REMARK    6  A    between atoms: C_7  and  C_9
REMARK    7  A    between atoms: C_9  and  C_10
REMARK    8  A    between atoms: C_10  and  C_11
REMARK    9  A    between atoms: C_11  and  N_13
REMARK   10  A    between atoms: C_11  and  C_14
REMARK   11  A    between atoms: C_14  and  O_15
REMARK   12  A    between atoms: N_19  and  CA_20
REMARK   13  A    between atoms: CA_20  and  C_21
REMARK   14  A    between atoms: C_21  and  O_22
REMARK                            x       y       z     vdW  Elec       q    Type
REMARK                         _______ _______ _______ _____ _____    ______ ____
ROOT
ATOM      1  N   UNK A   1       9.312   2.177  24.520  0.00  0.00    -0.303 N 
ATOM      2  H   UNK A   1       8.866   1.928  25.394  0.00  0.00    +0.149 HD
ATOM      3  C   UNK A   1      10.025   1.201  23.859  0.00  0.00    +0.214 C 
ATOM      4  O   UNK A   1      10.430   1.319  22.707  0.00  0.00    -0.276 OA
ENDROOT
BRANCH   1   5
ATOM      5  C   UNK A   1       8.778   3.348  23.805  0.00  0.00    +0.169 C 
BRANCH   5   6
ATOM      6  C   UNK A   1       9.709   4.574  24.070  0.00  0.00    +0.235 C 
ATOM      7  N   GLY A   2      10.889   4.581  23.359  0.00  0.00    -0.303 N 
ATOM      8  H   GLY A   2      11.130   3.761  22.803  0.00  0.00    +0.149 HD
ATOM      9  O   UNK A   1       9.455   5.457  24.889  0.00  0.00    -0.274 OA
BRANCH   7  10
ATOM     10  CA  GLY A   2      11.896   5.631  23.496  0.00  0.00    +0.224 C 
BRANCH  10  11
ATOM     11  C   GLY A   2      13.139   5.375  22.645  0.00  0.00    +0.322 C 
ATOM     12  OXT GLY A   2      13.177   5.543  21.432  0.00  0.00    -0.249 OA
BRANCH  11  13
ATOM     13  O   GLY A   2      14.221   4.982  23.355  0.00  0.00    -0.480 OA
ATOM     14  H   GLY A   2      14.402   5.627  24.069  0.00  0.00    +0.295 HD
ENDBRANCH  11  13
ENDBRANCH  10  11
ENDBRANCH   7  10
ENDBRANCH   5   6
BRANCH   5  15
ATOM     15  C   UNK A   1       7.285   3.583  24.119  0.00  0.00    +0.100 C 
BRANCH  15  17
ATOM     16  C   UNK A   1       6.688   1.507  22.378  0.00  0.00    +0.084 C 
ATOM     17  S   UNK A   1       6.158   3.207  22.718  0.00  0.00    -0.162 S 
ENDBRANCH  15  17
ENDBRANCH   5  15
ENDBRANCH   1   5
BRANCH   3  18
ATOM     18  C   UNK A   1      10.349  -0.012  24.701  0.00  0.00    +0.098 C 
BRANCH  18  19
ATOM     19  C   UNK A   1       9.278  -1.084  24.481  0.00  0.00    +0.039 C 
BRANCH  19  20
ATOM     20  C   UNK A   1       9.585  -2.062  23.343  0.00  0.00    +0.161 C 
BRANCH  20  21
ATOM     21  N   UNK A   1      10.979  -1.917  22.845  0.00  0.00    -0.318 NA
ATOM     22  H   UNK A   1      11.148  -0.920  22.666  0.00  0.00    +0.119 HD
ATOM     23  H   UNK A   1      11.617  -2.137  23.619  0.00  0.00    +0.119 HD
ENDBRANCH  20  21
BRANCH  20  24
ATOM     24  C   UNK A   1       8.619  -1.826  22.176  0.00  0.00    +0.322 C 
ATOM     25  O   UNK A   1       7.462  -2.215  22.134  0.00  0.00    -0.249 OA
BRANCH  24  26
ATOM     26  O   UNK A   1       9.192  -1.066  21.208  0.00  0.00    -0.480 OA
ATOM     27  H   UNK A   1       8.481  -0.465  20.869  0.00  0.00    +0.295 HD
ENDBRANCH  24  26
ENDBRANCH  20  24
ENDBRANCH  19  20
ENDBRANCH  18  19
ENDBRANCH   3  18
TORSDOF 13
ENDMDL
MODEL 5
REMARK VINA RESULT:      -5.5      2.297      6.551
REMARK  Name = 
REMARK  14 active torsions:
REMARK  status: ('A' for Active; 'I' for Inactive)
REMARK    1  A    between atoms: C_1  and  S_2
REMARK    2  A    between atoms: S_2  and  C_3
REMARK    3  A    between atoms: C_3  and  C_4
REMARK    4  A    between atoms: C_4  and  N_6
REMARK    5  A    between atoms: C_4  and  C_17
REMARK    6  A    between atoms: C_7  and  C_9
REMARK    7  A    between atoms: C_9  and  C_10
REMARK    8  A    between atoms: C_10  and  C_11
REMARK    9  A    between atoms: C_11  and  N_13
REMARK   10  A    between atoms: C_11  and  C_14
REMARK   11  A    between atoms: C_14  and  O_15
REMARK   12  A    between atoms: N_19  and  CA_20
REMARK   13  A    between atoms: CA_20  and  C_21
REMARK   14  A    between atoms: C_21  and  O_22
REMARK                            x       y       z     vdW  Elec       q    Type
REMARK                         _______ _______ _______ _____ _____    ______ ____
ROOT
ATOM      1  N   UNK A   1       8.764  -1.621  23.330  0.00  0.00    -0.303 N 
ATOM      2  H   UNK A   1       7.983  -0.985  23.437  0.00  0.00    +0.149 HD
ATOM      3  C   UNK A   1       9.741  -1.294  22.416  0.00  0.00    +0.214 C 
ATOM      4  O   UNK A   1      10.824  -1.866  22.346  0.00  0.00    -0.276 OA
ENDROOT
BRANCH   1   5
ATOM      5  C   UNK A   1       9.043  -2.533  24.452  0.00  0.00    +0.169 C 
BRANCH   5   6
ATOM      6  C   UNK A   1       8.669  -3.989  24.029  0.00  0.00    +0.235 C 
ATOM      7  N   GLY A   2       7.554  -4.100  23.227  0.00  0.00    -0.303 N 
ATOM      8  H   GLY A   2       6.993  -3.267  23.051  0.00  0.00    +0.149 HD
ATOM      9  O   UNK A   1       9.278  -4.986  24.412  0.00  0.00    -0.274 OA
BRANCH   7  10
ATOM     10  CA  GLY A   2       7.037  -5.382  22.755  0.00  0.00    +0.224 C 
BRANCH  10  11
ATOM     11  C   GLY A   2       5.819  -5.232  21.844  0.00  0.00    +0.322 C 
ATOM     12  OXT GLY A   2       5.795  -4.504  20.858  0.00  0.00    -0.249 OA
BRANCH  11  13
ATOM     13  O   GLY A   2       4.769  -6.007  22.195  0.00  0.00    -0.480 OA
ATOM     14  H   GLY A   2       4.519  -5.827  23.124  0.00  0.00    +0.295 HD
ENDBRANCH  11  13
ENDBRANCH  10  11
ENDBRANCH   7  10
ENDBRANCH   5   6
BRANCH   5  15
ATOM     15  C   UNK A   1       8.391  -2.047  25.764  0.00  0.00    +0.100 C 
BRANCH  15  17
ATOM     16  C   UNK A   1       7.476   0.274  26.977  0.00  0.00    +0.084 C 
ATOM     17  S   UNK A   1       7.109  -0.752  25.529  0.00  0.00    -0.162 S 
ENDBRANCH  15  17
ENDBRANCH   5  15
ENDBRANCH   1   5
BRANCH   3  18
ATOM     18  C   UNK A   1       9.340  -0.215  21.434  0.00  0.00    +0.098 C 
BRANCH  18  19
ATOM     19  C   UNK A   1       8.392   0.770  22.122  0.00  0.00    +0.039 C 
BRANCH  19  20
ATOM     20  C   UNK A   1       9.054   2.075  22.574  0.00  0.00    +0.161 C 
BRANCH  20  21
ATOM     21  N   UNK A   1      10.297   2.363  21.811  0.00  0.00    -0.318 NA
ATOM     22  H   UNK A   1      11.073   2.416  22.480  0.00  0.00    +0.119 HD
ATOM     23  H   UNK A   1      10.520   1.536  21.244  0.00  0.00    +0.119 HD
ENDBRANCH  20  21
BRANCH  20  24
ATOM     24  C   UNK A   1       9.401   1.996  24.066  0.00  0.00    +0.322 C 
ATOM     25  O   UNK A   1      10.138   1.163  24.571  0.00  0.00    -0.249 OA
BRANCH  24  26
ATOM     26  O   UNK A   1       8.835   3.016  24.758  0.00  0.00    -0.480 OA
ATOM     27  H   UNK A   1       9.549   3.393  25.333  0.00  0.00    +0.295 HD
ENDBRANCH  24  26
ENDBRANCH  20  24
ENDBRANCH  19  20
ENDBRANCH  18  19
ENDBRANCH   3  18
TORSDOF 13
ENDMDL
MODEL 6
REMARK VINA RESULT:      -5.4      1.843      6.829
REMARK  Name = 
REMARK  14 active torsions:
REMARK  status: ('A' for Active; 'I' for Inactive)
REMARK    1  A    between atoms: C_1  and  S_2
REMARK    2  A    between atoms: S_2  and  C_3
REMARK    3  A    between atoms: C_3  and  C_4
REMARK    4  A    between atoms: C_4  and  N_6
REMARK    5  A    between atoms: C_4  and  C_17
REMARK    6  A    between atoms: C_7  and  C_9
REMARK    7  A    between atoms: C_9  and  C_10
REMARK    8  A    between atoms: C_10  and  C_11
REMARK    9  A    between atoms: C_11  and  N_13
REMARK   10  A    between atoms: C_11  and  C_14
REMARK   11  A    between atoms: C_14  and  O_15
REMARK   12  A    between atoms: N_19  and  CA_20
REMARK   13  A    between atoms: CA_20  and  C_21
REMARK   14  A    between atoms: C_21  and  O_22
REMARK                            x       y       z     vdW  Elec       q    Type
REMARK                         _______ _______ _______ _____ _____    ______ ____
ROOT
ATOM      1  N   UNK A   1       8.258  -2.517  22.659  0.00  0.00    -0.303 N 
ATOM      2  H   UNK A   1       7.427  -1.989  22.421  0.00  0.00    +0.149 HD
ATOM      3  C   UNK A   1       9.480  -1.901  22.501  0.00  0.00    +0.214 C 
ATOM      4  O   UNK A   1      10.531  -2.354  22.945  0.00  0.00    -0.276 OA
ENDROOT
BRANCH   1   5
ATOM      5  C   UNK A   1       8.089  -3.653  23.580  0.00  0.00    +0.169 C 
BRANCH   5   6
ATOM      6  C   UNK A   1       7.151  -4.711  22.916  0.00  0.00    +0.235 C 
ATOM      7  N   GLY A   2       6.266  -5.330  23.771  0.00  0.00    -0.303 N 
ATOM      8  H   GLY A   2       6.344  -5.149  24.772  0.00  0.00    +0.149 HD
ATOM      9  O   UNK A   1       7.214  -5.026  21.729  0.00  0.00    -0.274 OA
BRANCH   7  10
ATOM     10  CA  GLY A   2       5.330  -6.365  23.337  0.00  0.00    +0.224 C 
BRANCH  10  11
ATOM     11  C   GLY A   2       3.939  -5.814  23.024  0.00  0.00    +0.322 C 
ATOM     12  OXT GLY A   2       3.688  -4.618  22.938  0.00  0.00    -0.249 OA
BRANCH  11  13
ATOM     13  O   GLY A   2       3.005  -6.766  22.809  0.00  0.00    -0.480 OA
ATOM     14  H   GLY A   2       3.284  -7.345  22.069  0.00  0.00    +0.295 HD
ENDBRANCH  11  13
ENDBRANCH  10  11
ENDBRANCH   7  10
ENDBRANCH   5   6
BRANCH   5  15
ATOM     15  C   UNK A   1       7.659  -3.193  24.989  0.00  0.00    +0.100 C 
BRANCH  15  17
ATOM     16  C   UNK A   1       9.735  -4.993  25.369  0.00  0.00    +0.084 C 
ATOM     17  S   UNK A   1       8.573  -4.012  26.356  0.00  0.00    -0.162 S 
ENDBRANCH  15  17
ENDBRANCH   5  15
ENDBRANCH   1   5
BRANCH   3  18
ATOM     18  C   UNK A   1       9.442  -0.648  21.656  0.00  0.00    +0.098 C 
BRANCH  18  19
ATOM     19  C   UNK A   1       8.510   0.377  22.308  0.00  0.00    +0.039 C 
BRANCH  19  20
ATOM     20  C   UNK A   1       9.211   1.645  22.804  0.00  0.00    +0.161 C 
BRANCH  20  21
ATOM     21  N   UNK A   1      10.172   2.179  21.802  0.00  0.00    -0.318 NA
ATOM     22  H   UNK A   1      10.993   2.529  22.308  0.00  0.00    +0.119 HD
ATOM     23  H   UNK A   1      10.538   1.387  21.261  0.00  0.00    +0.119 HD
ENDBRANCH  20  21
BRANCH  20  24
ATOM     24  C   UNK A   1       9.971   1.349  24.103  0.00  0.00    +0.322 C 
ATOM     25  O   UNK A   1      11.180   1.198  24.189  0.00  0.00    -0.249 OA
BRANCH  24  26
ATOM     26  O   UNK A   1       9.135   1.340  25.172  0.00  0.00    -0.480 OA
ATOM     27  H   UNK A   1       9.398   0.561  25.724  0.00  0.00    +0.295 HD
ENDBRANCH  24  26
ENDBRANCH  20  24
ENDBRANCH  19  20
ENDBRANCH  18  19
ENDBRANCH   3  18
TORSDOF 13
ENDMDL
MODEL 7
REMARK VINA RESULT:      -5.4      2.864      3.929
REMARK  Name = 
REMARK  14 active torsions:
REMARK  status: ('A' for Active; 'I' for Inactive)
REMARK    1  A    between atoms: C_1  and  S_2
REMARK    2  A    between atoms: S_2  and  C_3
REMARK    3  A    between atoms: C_3  and  C_4
REMARK    4  A    between atoms: C_4  and  N_6
REMARK    5  A    between atoms: C_4  and  C_17
REMARK    6  A    between atoms: C_7  and  C_9
REMARK    7  A    between atoms: C_9  and  C_10
REMARK    8  A    between atoms: C_10  and  C_11
REMARK    9  A    between atoms: C_11  and  N_13
REMARK   10  A    between atoms: C_11  and  C_14
REMARK   11  A    between atoms: C_14  and  O_15
REMARK   12  A    between atoms: N_19  and  CA_20
REMARK   13  A    between atoms: CA_20  and  C_21
REMARK   14  A    between atoms: C_21  and  O_22
REMARK                            x       y       z     vdW  Elec       q    Type
REMARK                         _______ _______ _______ _____ _____    ______ ____
ROOT
ATOM      1  N   UNK A   1       8.098  -3.676  24.685  0.00  0.00    -0.303 N 
ATOM      2  H   UNK A   1       7.325  -3.252  25.183  0.00  0.00    +0.149 HD
ATOM      3  C   UNK A   1       8.688  -4.791  25.239  0.00  0.00    +0.214 C 
ATOM      4  O   UNK A   1       9.482  -5.508  24.639  0.00  0.00    -0.276 OA
ENDROOT
BRANCH   1   5
ATOM      5  C   UNK A   1       8.200  -3.395  23.243  0.00  0.00    +0.169 C 
BRANCH   5   6
ATOM      6  C   UNK A   1       9.127  -2.156  23.031  0.00  0.00    +0.235 C 
ATOM      7  N   GLY A   2       8.891  -1.436  21.881  0.00  0.00    -0.303 N 
ATOM      8  H   GLY A   2       8.221  -1.800  21.204  0.00  0.00    +0.149 HD
ATOM      9  O   UNK A   1      10.045  -1.855  23.793  0.00  0.00    -0.274 OA
BRANCH   7  10
ATOM     10  CA  GLY A   2       9.674  -0.263  21.501  0.00  0.00    +0.224 C 
BRANCH  10  11
ATOM     11  C   GLY A   2       8.927   1.050  21.732  0.00  0.00    +0.322 C 
ATOM     12  OXT GLY A   2       7.774   1.111  22.144  0.00  0.00    -0.249 OA
BRANCH  11  13
ATOM     13  O   GLY A   2       9.663   2.156  21.480  0.00  0.00    -0.480 OA
ATOM     14  H   GLY A   2      10.138   2.051  20.630  0.00  0.00    +0.295 HD
ENDBRANCH  11  13
ENDBRANCH  10  11
ENDBRANCH   7  10
ENDBRANCH   5   6
BRANCH   5  15
ATOM     15  C   UNK A   1       6.812  -3.293  22.577  0.00  0.00    +0.100 C 
BRANCH  15  17
ATOM     16  C   UNK A   1       6.273  -5.593  21.121  0.00  0.00    +0.084 C 
ATOM     17  S   UNK A   1       5.809  -4.828  22.697  0.00  0.00    -0.162 S 
ENDBRANCH  15  17
ENDBRANCH   5  15
ENDBRANCH   1   5
BRANCH   3  18
ATOM     18  C   UNK A   1       8.342  -5.022  26.693  0.00  0.00    +0.098 C 
BRANCH  18  19
ATOM     19  C   UNK A   1       6.891  -4.603  26.942  0.00  0.00    +0.039 C 
BRANCH  19  20
ATOM     20  C   UNK A   1       5.909  -5.770  27.085  0.00  0.00    +0.161 C 
BRANCH  20  21
ATOM     21  N   UNK A   1       4.518  -5.373  26.737  0.00  0.00    -0.318 NA
ATOM     22  H   UNK A   1       4.549  -4.862  25.847  0.00  0.00    +0.119 HD
ATOM     23  H   UNK A   1       3.993  -6.226  26.509  0.00  0.00    +0.119 HD
ENDBRANCH  20  21
BRANCH  20  24
ATOM     24  C   UNK A   1       5.925  -6.294  28.526  0.00  0.00    +0.322 C 
ATOM     25  O   UNK A   1       6.231  -5.635  29.508  0.00  0.00    -0.249 OA
BRANCH  24  26
ATOM     26  O   UNK A   1       5.488  -7.577  28.588  0.00  0.00    -0.480 OA
ATOM     27  H   UNK A   1       6.192  -8.088  29.063  0.00  0.00    +0.295 HD
ENDBRANCH  24  26
ENDBRANCH  20  24
ENDBRANCH  19  20
ENDBRANCH  18  19
ENDBRANCH   3  18
TORSDOF 13
ENDMDL
MODEL 8
REMARK VINA RESULT:      -5.3      1.549      6.517
REMARK  Name = 
REMARK  14 active torsions:
REMARK  status: ('A' for Active; 'I' for Inactive)
REMARK    1  A    between atoms: C_1  and  S_2
REMARK    2  A    between atoms: S_2  and  C_3
REMARK    3  A    between atoms: C_3  and  C_4
REMARK    4  A    between atoms: C_4  and  N_6
REMARK    5  A    between atoms: C_4  and  C_17
REMARK    6  A    between atoms: C_7  and  C_9
REMARK    7  A    between atoms: C_9  and  C_10
REMARK    8  A    between atoms: C_10  and  C_11
REMARK    9  A    between atoms: C_11  and  N_13
REMARK   10  A    between atoms: C_11  and  C_14
REMARK   11  A    between atoms: C_14  and  O_15
REMARK   12  A    between atoms: N_19  and  CA_20
REMARK   13  A    between atoms: CA_20  and  C_21
REMARK   14  A    between atoms: C_21  and  O_22
REMARK                            x       y       z     vdW  Elec       q    Type
REMARK                         _______ _______ _______ _____ _____    ______ ____
ROOT
ATOM      1  N   UNK A   1       9.272  -1.997  24.201  0.00  0.00    -0.303 N 
ATOM      2  H   UNK A   1       9.054  -1.610  25.111  0.00  0.00    +0.149 HD
ATOM      3  C   UNK A   1      10.195  -1.334  23.422  0.00  0.00    +0.214 C 
ATOM      4  O   UNK A   1      10.691  -1.808  22.405  0.00  0.00    -0.276 OA
ENDROOT
BRANCH   1   5
ATOM      5  C   UNK A   1       8.986  -3.427  23.995  0.00  0.00    +0.169 C 
BRANCH   5   6
ATOM      6  C   UNK A   1       7.711  -3.567  23.104  0.00  0.00    +0.235 C 
ATOM      7  N   GLY A   2       7.427  -4.848  22.683  0.00  0.00    -0.303 N 
ATOM      8  H   GLY A   2       8.100  -5.588  22.878  0.00  0.00    +0.149 HD
ATOM      9  O   UNK A   1       7.023  -2.613  22.745  0.00  0.00    -0.274 OA
BRANCH   7  10
ATOM     10  CA  GLY A   2       6.291  -5.170  21.822  0.00  0.00    +0.224 C 
BRANCH  10  11
ATOM     11  C   GLY A   2       5.026  -5.509  22.610  0.00  0.00    +0.322 C 
ATOM     12  OXT GLY A   2       4.083  -4.738  22.743  0.00  0.00    -0.249 OA
BRANCH  11  13
ATOM     13  O   GLY A   2       5.015  -6.761  23.121  0.00  0.00    -0.480 OA
ATOM     14  H   GLY A   2       5.387  -6.753  24.026  0.00  0.00    +0.295 HD
ENDBRANCH  11  13
ENDBRANCH  10  11
ENDBRANCH   7  10
ENDBRANCH   5   6
BRANCH   5  15
ATOM     15  C   UNK A   1       8.939  -4.202  25.328  0.00  0.00    +0.100 C 
BRANCH  15  17
ATOM     16  C   UNK A   1       6.632  -5.485  26.186  0.00  0.00    +0.084 C 
ATOM     17  S   UNK A   1       7.439  -3.868  26.336  0.00  0.00    -0.162 S 
ENDBRANCH  15  17
ENDBRANCH   5  15
ENDBRANCH   1   5
BRANCH   3  18
ATOM     18  C   UNK A   1      10.495   0.077  23.877  0.00  0.00    +0.098 C 
BRANCH  18  19
ATOM     19  C   UNK A   1       9.249   0.674  24.536  0.00  0.00    +0.039 C 
BRANCH  19  20
ATOM     20  C   UNK A   1       8.323   1.428  23.576  0.00  0.00    +0.161 C 
BRANCH  20  21
ATOM     21  N   UNK A   1       7.678   0.516  22.594  0.00  0.00    -0.318 NA
ATOM     22  H   UNK A   1       8.131   0.662  21.684  0.00  0.00    +0.119 HD
ATOM     23  H   UNK A   1       7.933  -0.447  22.841  0.00  0.00    +0.119 HD
ENDBRANCH  20  21
BRANCH  20  24
ATOM     24  C   UNK A   1       9.118   2.492  22.811  0.00  0.00    +0.322 C 
ATOM     25  O   UNK A   1       9.705   3.433  23.324  0.00  0.00    -0.249 OA
BRANCH  24  26
ATOM     26  O   UNK A   1       9.148   2.224  21.481  0.00  0.00    -0.480 OA
ATOM     27  H   UNK A   1       9.534   1.316  21.389  0.00  0.00    +0.295 HD
ENDBRANCH  24  26
ENDBRANCH  20  24
ENDBRANCH  19  20
ENDBRANCH  18  19
ENDBRANCH   3  18
TORSDOF 13
ENDMDL
MODEL 9
REMARK VINA RESULT:      -5.3      2.865      3.674
REMARK  Name = 
REMARK  14 active torsions:
REMARK  status: ('A' for Active; 'I' for Inactive)
REMARK    1  A    between atoms: C_1  and  S_2
REMARK    2  A    between atoms: S_2  and  C_3
REMARK    3  A    between atoms: C_3  and  C_4
REMARK    4  A    between atoms: C_4  and  N_6
REMARK    5  A    between atoms: C_4  and  C_17
REMARK    6  A    between atoms: C_7  and  C_9
REMARK    7  A    between atoms: C_9  and  C_10
REMARK    8  A    between atoms: C_10  and  C_11
REMARK    9  A    between atoms: C_11  and  N_13
REMARK   10  A    between atoms: C_11  and  C_14
REMARK   11  A    between atoms: C_14  and  O_15
REMARK   12  A    between atoms: N_19  and  CA_20
REMARK   13  A    between atoms: CA_20  and  C_21
REMARK   14  A    between atoms: C_21  and  O_22
REMARK                            x       y       z     vdW  Elec       q    Type
REMARK                         _______ _______ _______ _____ _____    ______ ____
ROOT
ATOM      1  N   UNK A   1       8.783  -3.017  25.284  0.00  0.00    -0.303 N 
ATOM      2  H   UNK A   1       7.935  -2.683  25.724  0.00  0.00    +0.149 HD
ATOM      3  C   UNK A   1       9.126  -4.339  25.464  0.00  0.00    +0.214 C 
ATOM      4  O   UNK A   1      10.003  -4.907  24.821  0.00  0.00    -0.276 OA
ENDROOT
BRANCH   1   5
ATOM      5  C   UNK A   1       9.291  -2.247  24.137  0.00  0.00    +0.169 C 
BRANCH   5   6
ATOM      6  C   UNK A   1       9.624  -0.795  24.606  0.00  0.00    +0.235 C 
ATOM      7  N   GLY A   2      10.201   0.013  23.651  0.00  0.00    -0.303 N 
ATOM      8  H   GLY A   2      10.468  -0.399  22.758  0.00  0.00    +0.149 HD
ATOM      9  O   UNK A   1       9.444  -0.393  25.754  0.00  0.00    -0.274 OA
BRANCH   7  10
ATOM     10  CA  GLY A   2      10.607   1.392  23.914  0.00  0.00    +0.224 C 
BRANCH  10  11
ATOM     11  C   GLY A   2       9.975   2.391  22.945  0.00  0.00    +0.322 C 
ATOM     12  OXT GLY A   2       9.295   3.346  23.303  0.00  0.00    -0.249 OA
BRANCH  11  13
ATOM     13  O   GLY A   2      10.264   2.157  21.646  0.00  0.00    -0.480 OA
ATOM     14  H   GLY A   2      11.180   2.444  21.452  0.00  0.00    +0.295 HD
ENDBRANCH  11  13
ENDBRANCH  10  11
ENDBRANCH   7  10
ENDBRANCH   5   6
BRANCH   5  15
ATOM     15  C   UNK A   1       8.346  -2.338  22.919  0.00  0.00    +0.100 C 
BRANCH  15  17
ATOM     16  C   UNK A   1       5.750  -3.315  22.994  0.00  0.00    +0.084 C 
ATOM     17  S   UNK A   1       6.635  -1.755  23.255  0.00  0.00    -0.162 S 
ENDBRANCH  15  17
ENDBRANCH   5  15
ENDBRANCH   1   5
BRANCH   3  18
ATOM     18  C   UNK A   1       8.384  -5.028  26.588  0.00  0.00    +0.098 C 
BRANCH  18  19
ATOM     19  C   UNK A   1       6.989  -5.431  26.104  0.00  0.00    +0.039 C 
BRANCH  19  20
ATOM     20  C   UNK A   1       5.919  -5.449  27.200  0.00  0.00    +0.161 C 
BRANCH  20  21
ATOM     21  N   UNK A   1       6.512  -5.330  28.559  0.00  0.00    -0.318 NA
ATOM     22  H   UNK A   1       7.246  -4.614  28.521  0.00  0.00    +0.119 HD
ATOM     23  H   UNK A   1       5.804  -4.919  29.178  0.00  0.00    +0.119 HD
ENDBRANCH  20  21
BRANCH  20  24
ATOM     24  C   UNK A   1       5.117  -6.754  27.126  0.00  0.00    +0.322 C 
ATOM     25  O   UNK A   1       4.401  -7.085  26.193  0.00  0.00    -0.249 OA
BRANCH  24  26
ATOM     26  O   UNK A   1       5.350  -7.537  28.209  0.00  0.00    -0.480 OA
ATOM     27  H   UNK A   1       5.082  -7.006  29.000  0.00  0.00    +0.295 HD
ENDBRANCH  24  26
ENDBRANCH  20  24
ENDBRANCH  19  20
ENDBRANCH  18  19
ENDBRANCH   3  18
TORSDOF 13
ENDMDL
