MODEL 1
REMARK VINA RESULT:      -3.7      0.000      0.000
REMARK  Name = 
REMARK  5 active torsions:
REMARK  status: ('A' for Active; 'I' for Inactive)
REMARK    1  A    between atoms: O_1  and  C_2
REMARK    2  A    between atoms: C_2  and  C_4
REMARK    3  A    between atoms: C_4  and  C_5
REMARK    4  A    between atoms: C_5  and  C_6
REMARK    5  A    between atoms: C_6  and  C_8
REMARK                            x       y       z     vdW  Elec       q    Type
REMARK                         _______ _______ _______ _____ _____    ______ ____
ROOT
ATOM      1  C   UNL     1       9.512  -0.641  23.826  0.00  0.00    +0.128 C 
ENDROOT
BRANCH   1   2
ATOM      2  C   UNL     1      10.084  -1.874  23.178  0.00  0.00    +0.305 C 
ATOM      3  O   UNL     1      10.267  -2.942  23.739  0.00  0.00    -0.251 OA
BRANCH   2   4
ATOM      4  O   UNL     1      10.383  -1.681  21.874  0.00  0.00    -0.481 OA
ATOM      5  H   UNL     1      10.515  -0.744  21.633  0.00  0.00    +0.295 HD
ENDBRANCH   2   4
ENDBRANCH   1   2
BRANCH   1   6
ATOM      6  C   UNL     1      10.560   0.460  23.945  0.00  0.00    +0.088 C 
BRANCH   6   7
ATOM      7  C   UNL     1      10.288   1.597  22.984  0.00  0.00    +0.164 C 
ATOM      8  O   UNL     1       9.998   1.397  21.801  0.00  0.00    -0.295 OA
BRANCH   7   9
ATOM      9  C   UNL     1      10.388   2.999  23.537  0.00  0.00    +0.287 C 
ATOM     10  F   UNL     1      11.562   3.606  23.202  0.00  0.00    -0.241 F 
ENDBRANCH   7   9
ENDBRANCH   6   7
ENDBRANCH   1   6
TORSDOF 5
ENDMDL
MODEL 2
REMARK VINA RESULT:      -3.7      3.063      4.669
REMARK  Name = 
REMARK  5 active torsions:
REMARK  status: ('A' for Active; 'I' for Inactive)
REMARK    1  A    between atoms: O_1  and  C_2
REMARK    2  A    between atoms: C_2  and  C_4
REMARK    3  A    between atoms: C_4  and  C_5
REMARK    4  A    between atoms: C_5  and  C_6
REMARK    5  A    between atoms: C_6  and  C_8
REMARK                            x       y       z     vdW  Elec       q    Type
REMARK                         _______ _______ _______ _____ _____    ______ ____
ROOT
ATOM      1  C   UNL     1       9.456  -0.189  21.392  0.00  0.00    +0.128 C 
ENDROOT
BRANCH   1   2
ATOM      2  C   UNL     1       8.997   1.233  21.577  0.00  0.00    +0.305 C 
ATOM      3  O   UNL     1       7.839   1.581  21.743  0.00  0.00    -0.251 OA
BRANCH   2   4
ATOM      4  O   UNL     1      10.020   2.115  21.542  0.00  0.00    -0.481 OA
ATOM      5  H   UNL     1      10.677   1.930  20.844  0.00  0.00    +0.295 HD
ENDBRANCH   2   4
ENDBRANCH   1   2
BRANCH   1   6
ATOM      6  C   UNL     1      10.182  -0.703  22.630  0.00  0.00    +0.088 C 
BRANCH   6   7
ATOM      7  C   UNL     1       9.566  -1.985  23.148  0.00  0.00    +0.164 C 
ATOM      8  O   UNL     1      10.239  -2.848  23.719  0.00  0.00    -0.295 OA
BRANCH   7   9
ATOM      9  C   UNL     1       8.082  -2.166  22.936  0.00  0.00    +0.287 C 
ATOM     10  F   UNL     1       7.804  -3.136  22.019  0.00  0.00    -0.241 F 
ENDBRANCH   7   9
ENDBRANCH   6   7
ENDBRANCH   1   6
TORSDOF 5
ENDMDL
MODEL 3
REMARK VINA RESULT:      -3.7      2.584      4.308
REMARK  Name = 
REMARK  5 active torsions:
REMARK  status: ('A' for Active; 'I' for Inactive)
REMARK    1  A    between atoms: O_1  and  C_2
REMARK    2  A    between atoms: C_2  and  C_4
REMARK    3  A    between atoms: C_4  and  C_5
REMARK    4  A    between atoms: C_5  and  C_6
REMARK    5  A    between atoms: C_6  and  C_8
REMARK                            x       y       z     vdW  Elec       q    Type
REMARK                         _______ _______ _______ _____ _____    ______ ____
ROOT
ATOM      1  C   UNL     1       9.889   1.675  23.994  0.00  0.00    +0.128 C 
ENDROOT
BRANCH   1   2
ATOM      2  C   UNL     1      10.552   2.631  23.037  0.00  0.00    +0.305 C 
ATOM      3  O   UNL     1      11.267   3.565  23.361  0.00  0.00    -0.251 OA
BRANCH   2   4
ATOM      4  O   UNL     1      10.271   2.346  21.746  0.00  0.00    -0.481 OA
ATOM      5  H   UNL     1      11.063   2.236  21.185  0.00  0.00    +0.295 HD
ENDBRANCH   2   4
ENDBRANCH   1   2
BRANCH   1   6
ATOM      6  C   UNL     1      10.707   0.400  24.160  0.00  0.00    +0.088 C 
BRANCH   6   7
ATOM      7  C   UNL     1      10.148  -0.736  23.331  0.00  0.00    +0.164 C 
ATOM      8  O   UNL     1      10.127  -0.694  22.097  0.00  0.00    -0.295 OA
BRANCH   7   9
ATOM      9  C   UNL     1       9.612  -1.932  24.081  0.00  0.00    +0.287 C 
ATOM     10  F   UNL     1      10.408  -3.030  23.942  0.00  0.00    -0.241 F 
ENDBRANCH   7   9
ENDBRANCH   6   7
ENDBRANCH   1   6
TORSDOF 5
ENDMDL
MODEL 4
REMARK VINA RESULT:      -3.7      1.879      3.762
REMARK  Name = 
REMARK  5 active torsions:
REMARK  status: ('A' for Active; 'I' for Inactive)
REMARK    1  A    between atoms: O_1  and  C_2
REMARK    2  A    between atoms: C_2  and  C_4
REMARK    3  A    between atoms: C_4  and  C_5
REMARK    4  A    between atoms: C_5  and  C_6
REMARK    5  A    between atoms: C_6  and  C_8
REMARK                            x       y       z     vdW  Elec       q    Type
REMARK                         _______ _______ _______ _____ _____    ______ ____
ROOT
ATOM      1  C   UNL     1       9.515  -0.082  21.480  0.00  0.00    +0.128 C 
ENDROOT
BRANCH   1   2
ATOM      2  C   UNL     1       9.115   1.369  21.515  0.00  0.00    +0.305 C 
ATOM      3  O   UNL     1       7.969   1.783  21.449  0.00  0.00    -0.251 OA
BRANCH   2   4
ATOM      4  O   UNL     1      10.178   2.196  21.632  0.00  0.00    -0.481 OA
ATOM      5  H   UNL     1       9.945   3.102  21.915  0.00  0.00    +0.295 HD
ENDBRANCH   2   4
ENDBRANCH   1   2
BRANCH   1   6
ATOM      6  C   UNL     1       8.775  -0.888  22.541  0.00  0.00    +0.088 C 
BRANCH   6   7
ATOM      7  C   UNL     1       9.696  -1.318  23.661  0.00  0.00    +0.164 C 
ATOM      8  O   UNL     1      10.183  -2.451  23.707  0.00  0.00    -0.295 OA
BRANCH   7   9
ATOM      9  C   UNL     1       9.998  -0.295  24.731  0.00  0.00    +0.287 C 
ATOM     10  F   UNL     1      11.150   0.388  24.484  0.00  0.00    -0.241 F 
ENDBRANCH   7   9
ENDBRANCH   6   7
ENDBRANCH   1   6
TORSDOF 5
ENDMDL
MODEL 5
REMARK VINA RESULT:      -3.6      1.660      1.977
REMARK  Name = 
REMARK  5 active torsions:
REMARK  status: ('A' for Active; 'I' for Inactive)
REMARK    1  A    between atoms: O_1  and  C_2
REMARK    2  A    between atoms: C_2  and  C_4
REMARK    3  A    between atoms: C_4  and  C_5
REMARK    4  A    between atoms: C_5  and  C_6
REMARK    5  A    between atoms: C_6  and  C_8
REMARK                            x       y       z     vdW  Elec       q    Type
REMARK                         _______ _______ _______ _____ _____    ______ ____
ROOT
ATOM      1  C   UNL     1       9.687  -0.846  24.296  0.00  0.00    +0.128 C 
ENDROOT
BRANCH   1   2
ATOM      2  C   UNL     1      10.179  -1.946  23.393  0.00  0.00    +0.305 C 
ATOM      3  O   UNL     1      10.615  -1.786  22.264  0.00  0.00    -0.251 OA
BRANCH   2   4
ATOM      4  O   UNL     1      10.089  -3.166  23.968  0.00  0.00    -0.481 OA
ATOM      5  H   UNL     1      10.953  -3.600  24.109  0.00  0.00    +0.295 HD
ENDBRANCH   2   4
ENDBRANCH   1   2
BRANCH   1   6
ATOM      6  C   UNL     1      10.657   0.329  24.317  0.00  0.00    +0.088 C 
BRANCH   6   7
ATOM      7  C   UNL     1      10.004   1.604  23.828  0.00  0.00    +0.164 C 
ATOM      8  O   UNL     1       9.283   2.289  24.558  0.00  0.00    -0.295 OA
BRANCH   7   9
ATOM      9  C   UNL     1      10.273   2.006  22.397  0.00  0.00    +0.287 C 
ATOM     10  F   UNL     1       9.773   1.106  21.504  0.00  0.00    -0.241 F 
ENDBRANCH   7   9
ENDBRANCH   6   7
ENDBRANCH   1   6
TORSDOF 5
ENDMDL
MODEL 6
REMARK VINA RESULT:      -3.6      2.145      4.129
REMARK  Name = 
REMARK  5 active torsions:
REMARK  status: ('A' for Active; 'I' for Inactive)
REMARK    1  A    between atoms: O_1  and  C_2
REMARK    2  A    between atoms: C_2  and  C_4
REMARK    3  A    between atoms: C_4  and  C_5
REMARK    4  A    between atoms: C_5  and  C_6
REMARK    5  A    between atoms: C_6  and  C_8
REMARK                            x       y       z     vdW  Elec       q    Type
REMARK                         _______ _______ _______ _____ _____    ______ ____
ROOT
ATOM      1  C   UNL     1       9.864   1.674  23.998  0.00  0.00    +0.128 C 
ENDROOT
BRANCH   1   2
ATOM      2  C   UNL     1      10.536   2.619  23.037  0.00  0.00    +0.305 C 
ATOM      3  O   UNL     1      11.255   3.552  23.358  0.00  0.00    -0.251 OA
BRANCH   2   4
ATOM      4  O   UNL     1      10.261   2.327  21.746  0.00  0.00    -0.481 OA
ATOM      5  H   UNL     1      11.034   2.013  21.239  0.00  0.00    +0.295 HD
ENDBRANCH   2   4
ENDBRANCH   1   2
BRANCH   1   6
ATOM      6  C   UNL     1      10.728   0.448  24.266  0.00  0.00    +0.088 C 
BRANCH   6   7
ATOM      7  C   UNL     1      10.021  -0.832  23.877  0.00  0.00    +0.164 C 
ATOM      8  O   UNL     1       9.208  -1.382  24.626  0.00  0.00    -0.295 OA
BRANCH   7   9
ATOM      9  C   UNL     1      10.353  -1.414  22.523  0.00  0.00    +0.287 C 
ATOM     10  F   UNL     1       9.812  -0.692  21.502  0.00  0.00    -0.241 F 
ENDBRANCH   7   9
ENDBRANCH   6   7
ENDBRANCH   1   6
TORSDOF 5
ENDMDL
MODEL 7
REMARK VINA RESULT:      -3.5      4.800      6.105
REMARK  Name = 
REMARK  5 active torsions:
REMARK  status: ('A' for Active; 'I' for Inactive)
REMARK    1  A    between atoms: O_1  and  C_2
REMARK    2  A    between atoms: C_2  and  C_4
REMARK    3  A    between atoms: C_4  and  C_5
REMARK    4  A    between atoms: C_5  and  C_6
REMARK    5  A    between atoms: C_6  and  C_8
REMARK                            x       y       z     vdW  Elec       q    Type
REMARK                         _______ _______ _______ _____ _____    ______ ____
ROOT
ATOM      1  C   UNL     1       8.106  -2.297  22.215  0.00  0.00    +0.128 C 
ENDROOT
BRANCH   1   2
ATOM      2  C   UNL     1       9.537  -2.090  22.637  0.00  0.00    +0.305 C 
ATOM      3  O   UNL     1       9.989  -2.353  23.739  0.00  0.00    -0.251 OA
BRANCH   2   4
ATOM      4  O   UNL     1      10.297  -1.570  21.647  0.00  0.00    -0.481 OA
ATOM      5  H   UNL     1      11.251  -1.546  21.853  0.00  0.00    +0.295 HD
ENDBRANCH   2   4
ENDBRANCH   1   2
BRANCH   1   6
ATOM      6  C   UNL     1       7.557  -3.616  22.744  0.00  0.00    +0.088 C 
BRANCH   6   7
ATOM      7  C   UNL     1       6.406  -4.122  21.901  0.00  0.00    +0.164 C 
ATOM      8  O   UNL     1       5.404  -3.435  21.686  0.00  0.00    -0.295 OA
BRANCH   7   9
ATOM      9  C   UNL     1       6.536  -5.514  21.330  0.00  0.00    +0.287 C 
ATOM     10  F   UNL     1       7.551  -6.218  21.906  0.00  0.00    -0.241 F 
ENDBRANCH   7   9
ENDBRANCH   6   7
ENDBRANCH   1   6
TORSDOF 5
ENDMDL
MODEL 8
REMARK VINA RESULT:      -3.5      6.598      7.285
REMARK  Name = 
REMARK  5 active torsions:
REMARK  status: ('A' for Active; 'I' for Inactive)
REMARK    1  A    between atoms: O_1  and  C_2
REMARK    2  A    between atoms: C_2  and  C_4
REMARK    3  A    between atoms: C_4  and  C_5
REMARK    4  A    between atoms: C_5  and  C_6
REMARK    5  A    between atoms: C_6  and  C_8
REMARK                            x       y       z     vdW  Elec       q    Type
REMARK                         _______ _______ _______ _____ _____    ______ ____
ROOT
ATOM      1  C   UNL     1       7.032  -4.373  25.963  0.00  0.00    +0.128 C 
ENDROOT
BRANCH   1   2
ATOM      2  C   UNL     1       7.823  -5.226  26.921  0.00  0.00    +0.305 C 
ATOM      3  O   UNL     1       7.349  -5.867  27.844  0.00  0.00    -0.251 OA
BRANCH   2   4
ATOM      4  O   UNL     1       9.147  -5.213  26.651  0.00  0.00    -0.481 OA
ATOM      5  H   UNL     1       9.669  -4.655  27.259  0.00  0.00    +0.295 HD
ENDBRANCH   2   4
ENDBRANCH   1   2
BRANCH   1   6
ATOM      6  C   UNL     1       6.414  -5.214  24.853  0.00  0.00    +0.088 C 
BRANCH   6   7
ATOM      7  C   UNL     1       7.281  -5.229  23.613  0.00  0.00    +0.164 C 
ATOM      8  O   UNL     1       8.488  -4.976  23.657  0.00  0.00    -0.295 OA
BRANCH   7   9
ATOM      9  C   UNL     1       6.602  -5.568  22.306  0.00  0.00    +0.287 C 
ATOM     10  F   UNL     1       7.494  -5.879  21.324  0.00  0.00    -0.241 F 
ENDBRANCH   7   9
ENDBRANCH   6   7
ENDBRANCH   1   6
TORSDOF 5
ENDMDL
MODEL 9
REMARK VINA RESULT:      -3.4      3.791      4.714
REMARK  Name = 
REMARK  5 active torsions:
REMARK  status: ('A' for Active; 'I' for Inactive)
REMARK    1  A    between atoms: O_1  and  C_2
REMARK    2  A    between atoms: C_2  and  C_4
REMARK    3  A    between atoms: C_4  and  C_5
REMARK    4  A    between atoms: C_5  and  C_6
REMARK    5  A    between atoms: C_6  and  C_8
REMARK                            x       y       z     vdW  Elec       q    Type
REMARK                         _______ _______ _______ _____ _____    ______ ____
ROOT
ATOM      1  C   UNL     1       8.926  -4.071  24.521  0.00  0.00    +0.128 C 
ENDROOT
BRANCH   1   2
ATOM      2  C   UNL     1       9.309  -4.748  25.810  0.00  0.00    +0.305 C 
ATOM      3  O   UNL     1       8.789  -4.538  26.894  0.00  0.00    -0.251 OA
BRANCH   2   4
ATOM      4  O   UNL     1      10.313  -5.638  25.648  0.00  0.00    -0.481 OA
ATOM      5  H   UNL     1      11.098  -5.270  25.199  0.00  0.00    +0.295 HD
ENDBRANCH   2   4
ENDBRANCH   1   2
BRANCH   1   6
ATOM      6  C   UNL     1       9.786  -2.840  24.263  0.00  0.00    +0.088 C 
BRANCH   6   7
ATOM      7  C   UNL     1       9.401  -2.148  22.973  0.00  0.00    +0.164 C 
ATOM      8  O   UNL     1      10.245  -1.806  22.140  0.00  0.00    -0.295 OA
BRANCH   7   9
ATOM      9  C   UNL     1       7.930  -1.890  22.746  0.00  0.00    +0.287 C 
ATOM     10  F   UNL     1       7.389  -2.748  21.836  0.00  0.00    -0.241 F 
ENDBRANCH   7   9
ENDBRANCH   6   7
ENDBRANCH   1   6
TORSDOF 5
ENDMDL
