MODEL 1
REMARK VINA RESULT:      -6.8      0.000      0.000
REMARK  Name = 
REMARK  3 active torsions:
REMARK  status: ('A' for Active; 'I' for Inactive)
REMARK    1  A    between atoms: O_1  and  C_2
REMARK    2  A    between atoms: C_11  and  C_12
REMARK    3  A    between atoms: C_18  and  O_19
REMARK                            x       y       z     vdW  Elec       q    Type
REMARK                         _______ _______ _______ _____ _____    ______ ____
ROOT
ATOM      1  C   UNL     1       9.510   1.244  22.037  0.00  0.00    +0.162 A 
ATOM      2  C   UNL     1       8.567   1.468  23.032  0.00  0.00    +0.202 A 
ATOM      3  C   UNL     1       7.709   0.433  23.409  0.00  0.00    +0.184 A 
ATOM      4  O   UNL     1       6.744   0.738  24.387  0.00  0.00    -0.418 OA
ATOM      5  C   UNL     1       5.797  -0.194  24.758  0.00  0.00    +0.338 A 
ATOM      6  C   UNL     1       5.943  -1.549  24.213  0.00  0.00    +0.101 A 
ATOM      7  C   UNL     1       6.876  -1.893  23.312  0.00  0.00    -0.000 A 
ATOM      8  O   UNL     1       4.883   0.076  25.529  0.00  0.00    -0.245 OA
ATOM      9  C   UNL     1       7.783  -0.837  22.833  0.00  0.00    +0.029 A 
ATOM     10  C   UNL     1       8.732  -1.043  21.822  0.00  0.00    +0.016 A 
ATOM     11  C   UNL     1       9.588  -0.005  21.421  0.00  0.00    +0.050 A 
ENDROOT
BRANCH   7  12
ATOM     12  C   UNL     1       6.869  -3.317  22.923  0.00  0.00    -0.017 A 
ATOM     13  C   UNL     1       6.122  -3.742  21.815  0.00  0.00    +0.008 A 
ATOM     14  C   UNL     1       6.221  -5.061  21.363  0.00  0.00    +0.001 A 
ATOM     15  C   UNL     1       7.063  -5.961  22.015  0.00  0.00    +0.000 A 
ATOM     16  C   UNL     1       7.791  -5.550  23.131  0.00  0.00    +0.001 A 
ATOM     17  C   UNL     1       7.694  -4.233  23.587  0.00  0.00    +0.008 A 
ENDBRANCH   7  12
BRANCH   1  18
ATOM     18  O   UNL     1      10.348   2.256  21.668  0.00  0.00    -0.503 OA
ATOM     19  H   UNL     1       9.835   3.064  21.514  0.00  0.00    +0.292 HD
ENDBRANCH   1  18
BRANCH   2  20
ATOM     20  O   UNL     1       8.481   2.694  23.634  0.00  0.00    -0.501 OA
ATOM     21  H   UNL     1       8.759   2.583  24.561  0.00  0.00    +0.292 HD
ENDBRANCH   2  20
TORSDOF 3
ENDMDL
MODEL 2
REMARK VINA RESULT:      -6.6      3.586      6.061
REMARK  Name = 
REMARK  3 active torsions:
REMARK  status: ('A' for Active; 'I' for Inactive)
REMARK    1  A    between atoms: O_1  and  C_2
REMARK    2  A    between atoms: C_11  and  C_12
REMARK    3  A    between atoms: C_18  and  O_19
REMARK                            x       y       z     vdW  Elec       q    Type
REMARK                         _______ _______ _______ _____ _____    ______ ____
ROOT
ATOM      1  C   UNL     1       5.054  -4.404  22.914  0.00  0.00    +0.162 A 
ATOM      2  C   UNL     1       5.966  -4.998  23.776  0.00  0.00    +0.202 A 
ATOM      3  C   UNL     1       7.204  -4.389  23.990  0.00  0.00    +0.184 A 
ATOM      4  O   UNL     1       8.103  -5.066  24.835  0.00  0.00    -0.418 OA
ATOM      5  C   UNL     1       9.380  -4.586  25.036  0.00  0.00    +0.338 A 
ATOM      6  C   UNL     1       9.698  -3.271  24.465  0.00  0.00    +0.101 A 
ATOM      7  C   UNL     1       8.855  -2.573  23.689  0.00  0.00    -0.000 A 
ATOM      8  O   UNL     1      10.217  -5.206  25.682  0.00  0.00    -0.245 OA
ATOM      9  C   UNL     1       7.550  -3.180  23.381  0.00  0.00    +0.029 A 
ATOM     10  C   UNL     1       6.622  -2.600  22.505  0.00  0.00    +0.016 A 
ATOM     11  C   UNL     1       5.382  -3.212  22.267  0.00  0.00    +0.050 A 
ENDROOT
BRANCH   7  12
ATOM     12  C   UNL     1       9.361  -1.257  23.249  0.00  0.00    -0.017 A 
ATOM     13  C   UNL     1       9.306  -0.898  21.895  0.00  0.00    +0.008 A 
ATOM     14  C   UNL     1       9.655   0.395  21.495  0.00  0.00    +0.001 A 
ATOM     15  C   UNL     1      10.063   1.333  22.443  0.00  0.00    +0.000 A 
ATOM     16  C   UNL     1      10.141   0.975  23.788  0.00  0.00    +0.001 A 
ATOM     17  C   UNL     1       9.793  -0.317  24.192  0.00  0.00    +0.008 A 
ENDBRANCH   7  12
BRANCH   1  18
ATOM     18  O   UNL     1       3.844  -5.000  22.704  0.00  0.00    -0.503 OA
ATOM     19  H   UNL     1       3.206  -4.341  22.392  0.00  0.00    +0.292 HD
ENDBRANCH   1  18
BRANCH   2  20
ATOM     20  O   UNL     1       5.652  -6.171  24.406  0.00  0.00    -0.501 OA
ATOM     21  H   UNL     1       5.826  -6.895  23.777  0.00  0.00    +0.292 HD
ENDBRANCH   2  20
TORSDOF 3
ENDMDL
MODEL 3
REMARK VINA RESULT:      -6.6      4.228      6.298
REMARK  Name = 
REMARK  3 active torsions:
REMARK  status: ('A' for Active; 'I' for Inactive)
REMARK    1  A    between atoms: O_1  and  C_2
REMARK    2  A    between atoms: C_11  and  C_12
REMARK    3  A    between atoms: C_18  and  O_19
REMARK                            x       y       z     vdW  Elec       q    Type
REMARK                         _______ _______ _______ _____ _____    ______ ____
ROOT
ATOM      1  C   UNL     1       5.732  -5.697  22.161  0.00  0.00    +0.162 A 
ATOM      2  C   UNL     1       5.705  -6.091  23.493  0.00  0.00    +0.202 A 
ATOM      3  C   UNL     1       6.493  -5.412  24.425  0.00  0.00    +0.184 A 
ATOM      4  O   UNL     1       6.459  -5.892  25.748  0.00  0.00    -0.418 OA
ATOM      5  C   UNL     1       7.270  -5.341  26.718  0.00  0.00    +0.338 A 
ATOM      6  C   UNL     1       8.037  -4.145  26.349  0.00  0.00    +0.101 A 
ATOM      7  C   UNL     1       8.063  -3.630  25.109  0.00  0.00    -0.000 A 
ATOM      8  O   UNL     1       7.338  -5.803  27.851  0.00  0.00    -0.245 OA
ATOM      9  C   UNL     1       7.294  -4.327  24.066  0.00  0.00    +0.029 A 
ATOM     10  C   UNL     1       7.319  -3.949  22.716  0.00  0.00    +0.016 A 
ATOM     11  C   UNL     1       6.546  -4.636  21.766  0.00  0.00    +0.050 A 
ENDROOT
BRANCH   7  12
ATOM     12  C   UNL     1       8.871  -2.403  24.964  0.00  0.00    -0.017 A 
ATOM     13  C   UNL     1       9.778  -2.278  23.902  0.00  0.00    +0.008 A 
ATOM     14  C   UNL     1      10.442  -1.067  23.682  0.00  0.00    +0.001 A 
ATOM     15  C   UNL     1      10.205   0.021  24.521  0.00  0.00    +0.000 A 
ATOM     16  C   UNL     1       9.321  -0.104  25.592  0.00  0.00    +0.001 A 
ATOM     17  C   UNL     1       8.656  -1.312  25.815  0.00  0.00    +0.008 A 
ENDBRANCH   7  12
BRANCH   1  18
ATOM     18  O   UNL     1       4.962  -6.362  21.250  0.00  0.00    -0.503 OA
ATOM     19  H   UNL     1       5.526  -6.924  20.697  0.00  0.00    +0.292 HD
ENDBRANCH   1  18
BRANCH   2  20
ATOM     20  O   UNL     1       4.915  -7.138  23.884  0.00  0.00    -0.501 OA
ATOM     21  H   UNL     1       3.999  -6.920  23.633  0.00  0.00    +0.292 HD
ENDBRANCH   2  20
TORSDOF 3
ENDMDL
MODEL 4
REMARK VINA RESULT:      -6.5      3.487      6.501
REMARK  Name = 
REMARK  3 active torsions:
REMARK  status: ('A' for Active; 'I' for Inactive)
REMARK    1  A    between atoms: O_1  and  C_2
REMARK    2  A    between atoms: C_11  and  C_12
REMARK    3  A    between atoms: C_18  and  O_19
REMARK                            x       y       z     vdW  Elec       q    Type
REMARK                         _______ _______ _______ _____ _____    ______ ____
ROOT
ATOM      1  C   UNL     1       8.093  -4.887  26.588  0.00  0.00    +0.162 A 
ATOM      2  C   UNL     1       9.050  -4.619  25.618  0.00  0.00    +0.202 A 
ATOM      3  C   UNL     1       9.060  -3.372  24.990  0.00  0.00    +0.184 A 
ATOM      4  O   UNL     1      10.023  -3.181  23.981  0.00  0.00    -0.418 OA
ATOM      5  C   UNL     1      10.051  -2.015  23.245  0.00  0.00    +0.338 A 
ATOM      6  C   UNL     1       9.149  -0.936  23.666  0.00  0.00    +0.101 A 
ATOM      7  C   UNL     1       8.245  -1.063  24.650  0.00  0.00    -0.000 A 
ATOM      8  O   UNL     1      10.810  -1.861  22.295  0.00  0.00    -0.245 OA
ATOM      9  C   UNL     1       8.147  -2.368  25.322  0.00  0.00    +0.029 A 
ATOM     10  C   UNL     1       7.180  -2.659  26.294  0.00  0.00    +0.016 A 
ATOM     11  C   UNL     1       7.149  -3.915  26.920  0.00  0.00    +0.050 A 
ENDROOT
BRANCH   7  12
ATOM     12  C   UNL     1       7.463   0.157  24.935  0.00  0.00    -0.017 A 
ATOM     13  C   UNL     1       8.052   1.227  25.623  0.00  0.00    +0.008 A 
ATOM     14  C   UNL     1       7.361   2.433  25.773  0.00  0.00    +0.001 A 
ATOM     15  C   UNL     1       6.080   2.575  25.240  0.00  0.00    +0.000 A 
ATOM     16  C   UNL     1       5.481   1.507  24.575  0.00  0.00    +0.001 A 
ATOM     17  C   UNL     1       6.168   0.300  24.423  0.00  0.00    +0.008 A 
ENDBRANCH   7  12
BRANCH   1  18
ATOM     18  O   UNL     1       8.083  -6.106  27.202  0.00  0.00    -0.503 OA
ATOM     19  H   UNL     1       7.237  -6.234  27.657  0.00  0.00    +0.292 HD
ENDBRANCH   1  18
BRANCH   2  20
ATOM     20  O   UNL     1       9.974  -5.572  25.283  0.00  0.00    -0.501 OA
ATOM     21  H   UNL     1      10.083  -5.543  24.315  0.00  0.00    +0.292 HD
ENDBRANCH   2  20
TORSDOF 3
ENDMDL
MODEL 5
REMARK VINA RESULT:      -6.4      4.009      6.930
REMARK  Name = 
REMARK  3 active torsions:
REMARK  status: ('A' for Active; 'I' for Inactive)
REMARK    1  A    between atoms: O_1  and  C_2
REMARK    2  A    between atoms: C_11  and  C_12
REMARK    3  A    between atoms: C_18  and  O_19
REMARK                            x       y       z     vdW  Elec       q    Type
REMARK                         _______ _______ _______ _____ _____    ______ ____
ROOT
ATOM      1  C   UNL     1       4.804  -6.346  25.922  0.00  0.00    +0.162 A 
ATOM      2  C   UNL     1       4.845  -6.645  24.566  0.00  0.00    +0.202 A 
ATOM      3  C   UNL     1       5.529  -5.793  23.697  0.00  0.00    +0.184 A 
ATOM      4  O   UNL     1       5.491  -6.125  22.329  0.00  0.00    -0.418 OA
ATOM      5  C   UNL     1       6.063  -5.295  21.387  0.00  0.00    +0.338 A 
ATOM      6  C   UNL     1       6.840  -4.154  21.884  0.00  0.00    +0.101 A 
ATOM      7  C   UNL     1       6.937  -3.827  23.182  0.00  0.00    -0.000 A 
ATOM      8  O   UNL     1       5.957  -5.505  20.184  0.00  0.00    -0.245 OA
ATOM      9  C   UNL     1       6.199  -4.655  24.150  0.00  0.00    +0.029 A 
ATOM     10  C   UNL     1       6.137  -4.361  25.519  0.00  0.00    +0.016 A 
ATOM     11  C   UNL     1       5.437  -5.200  26.401  0.00  0.00    +0.050 A 
ENDROOT
BRANCH   7  12
ATOM     12  C   UNL     1       7.798  -2.662  23.467  0.00  0.00    -0.017 A 
ATOM     13  C   UNL     1       9.147  -2.848  23.800  0.00  0.00    +0.008 A 
ATOM     14  C   UNL     1       9.997  -1.746  23.935  0.00  0.00    +0.001 A 
ATOM     15  C   UNL     1       9.504  -0.456  23.740  0.00  0.00    +0.000 A 
ATOM     16  C   UNL     1       8.159  -0.264  23.430  0.00  0.00    +0.001 A 
ATOM     17  C   UNL     1       7.306  -1.363  23.296  0.00  0.00    +0.008 A 
ENDBRANCH   7  12
BRANCH   1  18
ATOM     18  O   UNL     1       4.134  -7.179  26.772  0.00  0.00    -0.503 OA
ATOM     19  H   UNL     1       3.301  -6.765  27.044  0.00  0.00    +0.292 HD
ENDBRANCH   1  18
BRANCH   2  20
ATOM     20  O   UNL     1       4.218  -7.765  24.090  0.00  0.00    -0.501 OA
ATOM     21  H   UNL     1       4.328  -7.771  23.123  0.00  0.00    +0.292 HD
ENDBRANCH   2  20
TORSDOF 3
ENDMDL
MODEL 6
REMARK VINA RESULT:      -6.4      1.687      1.999
REMARK  Name = 
REMARK  3 active torsions:
REMARK  status: ('A' for Active; 'I' for Inactive)
REMARK    1  A    between atoms: O_1  and  C_2
REMARK    2  A    between atoms: C_11  and  C_12
REMARK    3  A    between atoms: C_18  and  O_19
REMARK                            x       y       z     vdW  Elec       q    Type
REMARK                         _______ _______ _______ _____ _____    ______ ____
ROOT
ATOM      1  C   UNL     1       9.903   1.286  22.117  0.00  0.00    +0.162 A 
ATOM      2  C   UNL     1       9.840   1.085  23.490  0.00  0.00    +0.202 A 
ATOM      3  C   UNL     1       9.224  -0.065  23.988  0.00  0.00    +0.184 A 
ATOM      4  O   UNL     1       9.149  -0.184  25.388  0.00  0.00    -0.418 OA
ATOM      5  C   UNL     1       8.481  -1.242  25.970  0.00  0.00    +0.338 A 
ATOM      6  C   UNL     1       8.002  -2.304  25.077  0.00  0.00    +0.101 A 
ATOM      7  C   UNL     1       8.093  -2.249  23.739  0.00  0.00    -0.000 A 
ATOM      8  O   UNL     1       8.311  -1.318  27.181  0.00  0.00    -0.245 OA
ATOM      9  C   UNL     1       8.687  -1.040  23.145  0.00  0.00    +0.029 A 
ATOM     10  C   UNL     1       8.748  -0.817  21.763  0.00  0.00    +0.016 A 
ATOM     11  C   UNL     1       9.348   0.344  21.251  0.00  0.00    +0.050 A 
ENDROOT
BRANCH   7  12
ATOM     12  C   UNL     1       7.581  -3.440  23.033  0.00  0.00    -0.017 A 
ATOM     13  C   UNL     1       8.011  -4.721  23.409  0.00  0.00    +0.008 A 
ATOM     14  C   UNL     1       7.427  -5.855  22.838  0.00  0.00    +0.001 A 
ATOM     15  C   UNL     1       6.415  -5.717  21.888  0.00  0.00    +0.000 A 
ATOM     16  C   UNL     1       5.999  -4.446  21.494  0.00  0.00    +0.001 A 
ATOM     17  C   UNL     1       6.581  -3.309  22.062  0.00  0.00    +0.008 A 
ENDBRANCH   7  12
BRANCH   1  18
ATOM     18  O   UNL     1      10.504   2.411  21.631  0.00  0.00    -0.503 OA
ATOM     19  H   UNL     1      11.200   2.162  21.002  0.00  0.00    +0.292 HD
ENDBRANCH   1  18
BRANCH   2  20
ATOM     20  O   UNL     1      10.376   2.010  24.344  0.00  0.00    -0.501 OA
ATOM     21  H   UNL     1      11.109   2.449  23.876  0.00  0.00    +0.292 HD
ENDBRANCH   2  20
TORSDOF 3
ENDMDL
MODEL 7
REMARK VINA RESULT:      -6.3      2.338      3.354
REMARK  Name = 
REMARK  3 active torsions:
REMARK  status: ('A' for Active; 'I' for Inactive)
REMARK    1  A    between atoms: O_1  and  C_2
REMARK    2  A    between atoms: C_11  and  C_12
REMARK    3  A    between atoms: C_18  and  O_19
REMARK                            x       y       z     vdW  Elec       q    Type
REMARK                         _______ _______ _______ _____ _____    ______ ____
ROOT
ATOM      1  C   UNL     1       7.826   2.838  22.290  0.00  0.00    +0.162 A 
ATOM      2  C   UNL     1       8.887   1.964  22.095  0.00  0.00    +0.202 A 
ATOM      3  C   UNL     1       8.730   0.613  22.414  0.00  0.00    +0.184 A 
ATOM      4  O   UNL     1       9.858  -0.211  22.241  0.00  0.00    -0.418 OA
ATOM      5  C   UNL     1       9.824  -1.539  22.612  0.00  0.00    +0.338 A 
ATOM      6  C   UNL     1       8.528  -2.082  23.037  0.00  0.00    +0.101 A 
ATOM      7  C   UNL     1       7.418  -1.340  23.174  0.00  0.00    -0.000 A 
ATOM      8  O   UNL     1      10.819  -2.254  22.569  0.00  0.00    -0.245 OA
ATOM      9  C   UNL     1       7.526   0.103  22.902  0.00  0.00    +0.029 A 
ATOM     10  C   UNL     1       6.468   1.001  23.104  0.00  0.00    +0.016 A 
ATOM     11  C   UNL     1       6.620   2.364  22.805  0.00  0.00    +0.050 A 
ENDROOT
BRANCH   7  12
ATOM     12  C   UNL     1       6.214  -2.092  23.578  0.00  0.00    -0.017 A 
ATOM     13  C   UNL     1       5.672  -3.065  22.726  0.00  0.00    +0.008 A 
ATOM     14  C   UNL     1       4.618  -3.873  23.161  0.00  0.00    +0.001 A 
ATOM     15  C   UNL     1       4.099  -3.713  24.446  0.00  0.00    +0.000 A 
ATOM     16  C   UNL     1       4.620  -2.733  25.289  0.00  0.00    +0.001 A 
ATOM     17  C   UNL     1       5.673  -1.922  24.858  0.00  0.00    +0.008 A 
ENDBRANCH   7  12
BRANCH   1  18
ATOM     18  O   UNL     1       7.980   4.159  21.979  0.00  0.00    -0.503 OA
ATOM     19  H   UNL     1       7.268   4.438  21.383  0.00  0.00    +0.292 HD
ENDBRANCH   1  18
BRANCH   2  20
ATOM     20  O   UNL     1      10.075   2.425  21.598  0.00  0.00    -0.501 OA
ATOM     21  H   UNL     1      10.681   2.543  22.352  0.00  0.00    +0.292 HD
ENDBRANCH   2  20
TORSDOF 3
ENDMDL
MODEL 8
REMARK VINA RESULT:      -6.3      3.352      6.047
REMARK  Name = 
REMARK  3 active torsions:
REMARK  status: ('A' for Active; 'I' for Inactive)
REMARK    1  A    between atoms: O_1  and  C_2
REMARK    2  A    between atoms: C_11  and  C_12
REMARK    3  A    between atoms: C_18  and  O_19
REMARK                            x       y       z     vdW  Elec       q    Type
REMARK                         _______ _______ _______ _____ _____    ______ ____
ROOT
ATOM      1  C   UNL     1       7.802  -5.067  26.632  0.00  0.00    +0.162 A 
ATOM      2  C   UNL     1       6.993  -5.226  25.514  0.00  0.00    +0.202 A 
ATOM      3  C   UNL     1       7.035  -4.272  24.495  0.00  0.00    +0.184 A 
ATOM      4  O   UNL     1       6.156  -4.463  23.414  0.00  0.00    -0.418 OA
ATOM      5  C   UNL     1       6.064  -3.527  22.405  0.00  0.00    +0.338 A 
ATOM      6  C   UNL     1       7.029  -2.421  22.429  0.00  0.00    +0.101 A 
ATOM      7  C   UNL     1       7.913  -2.226  23.420  0.00  0.00    -0.000 A 
ATOM      8  O   UNL     1       5.236  -3.616  21.506  0.00  0.00    -0.245 OA
ATOM      9  C   UNL     1       7.889  -3.167  24.551  0.00  0.00    +0.029 A 
ATOM     10  C   UNL     1       8.690  -3.016  25.691  0.00  0.00    +0.016 A 
ATOM     11  C   UNL     1       8.642  -3.958  26.730  0.00  0.00    +0.050 A 
ENDROOT
BRANCH   7  12
ATOM     12  C   UNL     1       8.815  -1.073  23.228  0.00  0.00    -0.017 A 
ATOM     13  C   UNL     1       9.036  -0.557  21.943  0.00  0.00    +0.008 A 
ATOM     14  C   UNL     1       9.777   0.616  21.773  0.00  0.00    +0.001 A 
ATOM     15  C   UNL     1      10.304   1.276  22.883  0.00  0.00    +0.000 A 
ATOM     16  C   UNL     1      10.107   0.755  24.161  0.00  0.00    +0.001 A 
ATOM     17  C   UNL     1       9.367  -0.417  24.335  0.00  0.00    +0.008 A 
ENDBRANCH   7  12
BRANCH   1  18
ATOM     18  O   UNL     1       7.759  -5.999  27.628  0.00  0.00    -0.503 OA
ATOM     19  H   UNL     1       8.482  -6.634  27.510  0.00  0.00    +0.292 HD
ENDBRANCH   1  18
BRANCH   2  20
ATOM     20  O   UNL     1       6.160  -6.307  25.417  0.00  0.00    -0.501 OA
ATOM     21  H   UNL     1       5.262  -6.004  25.638  0.00  0.00    +0.292 HD
ENDBRANCH   2  20
TORSDOF 3
ENDMDL
MODEL 9
REMARK VINA RESULT:      -6.2      3.296      7.027
REMARK  Name = 
REMARK  3 active torsions:
REMARK  status: ('A' for Active; 'I' for Inactive)
REMARK    1  A    between atoms: O_1  and  C_2
REMARK    2  A    between atoms: C_11  and  C_12
REMARK    3  A    between atoms: C_18  and  O_19
REMARK                            x       y       z     vdW  Elec       q    Type
REMARK                         _______ _______ _______ _____ _____    ______ ____
ROOT
ATOM      1  C   UNL     1       9.416  -1.114  24.026  0.00  0.00    +0.162 A 
ATOM      2  C   UNL     1       8.361  -0.544  23.326  0.00  0.00    +0.202 A 
ATOM      3  C   UNL     1       8.317   0.842  23.160  0.00  0.00    +0.184 A 
ATOM      4  O   UNL     1       7.197   1.361  22.485  0.00  0.00    -0.418 OA
ATOM      5  C   UNL     1       7.024   2.723  22.351  0.00  0.00    +0.338 A 
ATOM      6  C   UNL     1       8.126   3.585  22.794  0.00  0.00    +0.101 A 
ATOM      7  C   UNL     1       9.231   3.126  23.404  0.00  0.00    -0.000 A 
ATOM      8  O   UNL     1       6.010   3.207  21.860  0.00  0.00    -0.245 OA
ATOM      9  C   UNL     1       9.319   1.679  23.656  0.00  0.00    +0.029 A 
ATOM     10  C   UNL     1      10.371   1.089  24.370  0.00  0.00    +0.016 A 
ATOM     11  C   UNL     1      10.416  -0.301  24.560  0.00  0.00    +0.050 A 
ENDROOT
BRANCH   7  12
ATOM     12  C   UNL     1      10.231   4.160  23.735  0.00  0.00    -0.017 A 
ATOM     13  C   UNL     1      11.555   4.027  23.292  0.00  0.00    +0.008 A 
ATOM     14  C   UNL     1      12.469   5.067  23.485  0.00  0.00    +0.001 A 
ATOM     15  C   UNL     1      12.068   6.241  24.122  0.00  0.00    +0.000 A 
ATOM     16  C   UNL     1      10.759   6.369  24.585  0.00  0.00    +0.001 A 
ATOM     17  C   UNL     1       9.842   5.332  24.395  0.00  0.00    +0.008 A 
ENDBRANCH   7  12
BRANCH   1  18
ATOM     18  O   UNL     1       9.458  -2.469  24.189  0.00  0.00    -0.503 OA
ATOM     19  H   UNL     1      10.371  -2.780  24.090  0.00  0.00    +0.292 HD
ENDBRANCH   1  18
BRANCH   2  20
ATOM     20  O   UNL     1       7.372  -1.336  22.808  0.00  0.00    -0.501 OA
ATOM     21  H   UNL     1       7.636  -1.575  21.901  0.00  0.00    +0.292 HD
ENDBRANCH   2  20
TORSDOF 3
ENDMDL
