MODEL 1
REMARK VINA RESULT:      -5.7      0.000      0.000
REMARK  Name = 
REMARK  17 active torsions:
REMARK  status: ('A' for Active; 'I' for Inactive)
REMARK    1  A    between atoms: C_1  and  C_2
REMARK    2  A    between atoms: C_2  and  C_3
REMARK    3  A    between atoms: C_3  and  C_4
REMARK    4  A    between atoms: C_4  and  C_5
REMARK    5  A    between atoms: C_5  and  N_6
REMARK    6  A    between atoms: N_6  and  C_7
REMARK    7  A    between atoms: C_7  and  C_8
REMARK    8  A    between atoms: C_8  and  C_9
REMARK    9  A    between atoms: C_9  and  O_10
REMARK   10  A    between atoms: O_10  and  C_11
REMARK   11  A    between atoms: C_12  and  C_14
REMARK   12  A    between atoms: C_14  and  C_16
REMARK   13  A    between atoms: C_14  and  N_21
REMARK   14  A    between atoms: C_16  and  C_17
REMARK   15  A    between atoms: C_17  and  C_18
REMARK   16  A    between atoms: C_18  and  O_19
REMARK   17  A    between atoms: C_22  and  C_24
REMARK                            x       y       z     vdW  Elec       q    Type
REMARK                         _______ _______ _______ _____ _____    ______ ____
ROOT
ATOM      1  C   UNL     1       7.561  -1.265  24.910  0.00  0.00    +0.160 C 
ENDROOT
BRANCH   1   2
ATOM      2  N   UNL     1       7.558   0.021  24.200  0.00  0.00    -0.300 N 
ATOM      3  H   UNL     1       7.655  -0.018  23.194  0.00  0.00    +0.150 HD
ATOM      4  C   UNL     1       7.643   1.211  24.881  0.00  0.00    +0.245 C 
ATOM      5  O   UNL     1       7.736   1.277  26.101  0.00  0.00    -0.270 OA
BRANCH   4   6
ATOM      6  C   UNL     1       7.663   2.471  24.086  0.00  0.00    +0.038 A 
ATOM      7  C   UNL     1       6.905   2.644  22.924  0.00  0.00    +0.014 A 
ATOM      8  C   UNL     1       6.906   3.883  22.272  0.00  0.00    +0.022 A 
ATOM      9  C   UNL     1       7.660   4.950  22.774  0.00  0.00    +0.059 A 
ATOM     10 CL   UNL     1       7.576   6.460  21.941  0.00  0.00    -0.082 Cl
ATOM     11  C   UNL     1       8.431   4.773  23.928  0.00  0.00    +0.060 A 
ATOM     12 CL   UNL     1       9.390   6.038  24.608  0.00  0.00    -0.082 Cl
ATOM     13  C   UNL     1       8.430   3.537  24.580  0.00  0.00    +0.034 A 
ENDBRANCH   4   6
ENDBRANCH   1   2
BRANCH   1  15
ATOM     14  N   UNL     1       6.033  -3.308  24.891  0.00  0.00    -0.300 N 
ATOM     15  C   UNL     1       6.556  -2.209  24.189  0.00  0.00    +0.236 C 
ATOM     16  O   UNL     1       6.172  -1.928  23.049  0.00  0.00    -0.274 OA
BRANCH  14  17
ATOM     17  C   UNL     1       5.050  -4.153  24.184  0.00  0.00    +0.108 C 
BRANCH  17  18
ATOM     18  C   UNL     1       5.605  -5.530  23.792  0.00  0.00    +0.019 C 
BRANCH  18  19
ATOM     19  C   UNL     1       7.053  -5.515  23.276  0.00  0.00    +0.001 C 
BRANCH  19  21
ATOM     20  C   UNL     1       6.173  -5.813  20.918  0.00  0.00    +0.004 C 
ATOM     21  C   UNL     1       7.180  -5.097  21.809  0.00  0.00    -0.003 C 
ENDBRANCH  19  21
ENDBRANCH  18  19
ENDBRANCH  17  18
ENDBRANCH  14  17
BRANCH  14  22
ATOM     22  C   UNL     1       6.128  -3.441  26.359  0.00  0.00    +0.110 C 
BRANCH  22  23
ATOM     23  C   UNL     1       7.198  -4.396  26.901  0.00  0.00    +0.047 C 
BRANCH  23  24
ATOM     24  C   UNL     1       6.645  -5.520  27.772  0.00  0.00    +0.161 C 
BRANCH  24  25
ATOM     25  O   UNL     1       6.069  -6.525  26.940  0.00  0.00    -0.383 OA
ATOM     26  C   UNL     1       4.721  -6.803  27.290  0.00  0.00    +0.193 C 
ENDBRANCH  24  25
ENDBRANCH  23  24
ENDBRANCH  22  23
ENDBRANCH  14  22
ENDBRANCH   1  15
BRANCH   1  27
ATOM     27  C   UNL     1       8.991  -1.844  24.940  0.00  0.00    +0.043 C 
BRANCH  27  28
ATOM     28  C   UNL     1       9.433  -2.314  23.550  0.00  0.00    +0.123 C 
BRANCH  28  29
ATOM     29  C   UNL     1      10.179  -1.264  22.767  0.00  0.00    +0.305 C 
ATOM     30  O   UNL     1      10.644  -0.234  23.226  0.00  0.00    -0.251 OA
BRANCH  29  31
ATOM     31  O   UNL     1      10.300  -1.599  21.463  0.00  0.00    -0.481 OA
ATOM     32  H   UNL     1      10.375  -2.563  21.310  0.00  0.00    +0.295 HD
ENDBRANCH  29  31
ENDBRANCH  28  29
ENDBRANCH  27  28
ENDBRANCH   1  27
TORSDOF 15
ENDMDL
MODEL 2
REMARK VINA RESULT:      -5.6      2.724      4.154
REMARK  Name = 
REMARK  17 active torsions:
REMARK  status: ('A' for Active; 'I' for Inactive)
REMARK    1  A    between atoms: C_1  and  C_2
REMARK    2  A    between atoms: C_2  and  C_3
REMARK    3  A    between atoms: C_3  and  C_4
REMARK    4  A    between atoms: C_4  and  C_5
REMARK    5  A    between atoms: C_5  and  N_6
REMARK    6  A    between atoms: N_6  and  C_7
REMARK    7  A    between atoms: C_7  and  C_8
REMARK    8  A    between atoms: C_8  and  C_9
REMARK    9  A    between atoms: C_9  and  O_10
REMARK   10  A    between atoms: O_10  and  C_11
REMARK   11  A    between atoms: C_12  and  C_14
REMARK   12  A    between atoms: C_14  and  C_16
REMARK   13  A    between atoms: C_14  and  N_21
REMARK   14  A    between atoms: C_16  and  C_17
REMARK   15  A    between atoms: C_17  and  C_18
REMARK   16  A    between atoms: C_18  and  O_19
REMARK   17  A    between atoms: C_22  and  C_24
REMARK                            x       y       z     vdW  Elec       q    Type
REMARK                         _______ _______ _______ _____ _____    ______ ____
ROOT
ATOM      1  C   UNL     1       7.103  -4.050  24.450  0.00  0.00    +0.160 C 
ENDROOT
BRANCH   1   2
ATOM      2  N   UNL     1       7.677  -2.744  24.098  0.00  0.00    -0.300 N 
ATOM      3  H   UNL     1       7.638  -2.481  23.122  0.00  0.00    +0.150 HD
ATOM      4  C   UNL     1       8.418  -2.024  25.003  0.00  0.00    +0.245 C 
ATOM      5  O   UNL     1       8.654  -2.420  26.139  0.00  0.00    -0.270 OA
BRANCH   4   6
ATOM      6  C   UNL     1       8.988  -0.721  24.561  0.00  0.00    +0.038 A 
ATOM      7  C   UNL     1      10.124  -0.154  25.148  0.00  0.00    +0.014 A 
ATOM      8  C   UNL     1      10.656   1.032  24.629  0.00  0.00    +0.022 A 
ATOM      9  C   UNL     1      10.061   1.655  23.525  0.00  0.00    +0.059 A 
ATOM     10 CL   UNL     1      10.800   3.090  22.913  0.00  0.00    -0.082 Cl
ATOM     11  C   UNL     1       8.917   1.096  22.946  0.00  0.00    +0.060 A 
ATOM     12 CL   UNL     1       8.123   1.805  21.585  0.00  0.00    -0.082 Cl
ATOM     13  C   UNL     1       8.385  -0.088  23.464  0.00  0.00    +0.034 A 
ENDBRANCH   4   6
ENDBRANCH   1   2
BRANCH   1  15
ATOM     14  N   UNL     1       4.787  -4.970  24.994  0.00  0.00    -0.300 N 
ATOM     15  C   UNL     1       5.563  -3.872  24.586  0.00  0.00    +0.236 C 
ATOM     16  O   UNL     1       5.065  -2.755  24.418  0.00  0.00    -0.274 OA
BRANCH  14  17
ATOM     17  C   UNL     1       3.335  -4.746  25.152  0.00  0.00    +0.108 C 
BRANCH  17  18
ATOM     18  C   UNL     1       2.549  -4.923  23.845  0.00  0.00    +0.019 C 
BRANCH  18  19
ATOM     19  C   UNL     1       2.931  -6.169  23.030  0.00  0.00    +0.001 C 
BRANCH  19  21
ATOM     20  C   UNL     1       1.691  -8.275  23.700  0.00  0.00    +0.004 C 
ATOM     21  C   UNL     1       1.752  -7.098  22.735  0.00  0.00    -0.003 C 
ENDBRANCH  19  21
ENDBRANCH  18  19
ENDBRANCH  17  18
ENDBRANCH  14  17
BRANCH  14  22
ATOM     22  C   UNL     1       5.369  -6.181  25.606  0.00  0.00    +0.110 C 
BRANCH  22  23
ATOM     23  C   UNL     1       5.321  -6.278  27.135  0.00  0.00    +0.047 C 
BRANCH  23  24
ATOM     24  C   UNL     1       6.542  -5.687  27.834  0.00  0.00    +0.161 C 
BRANCH  24  25
ATOM     25  O   UNL     1       6.147  -5.122  29.083  0.00  0.00    -0.383 OA
ATOM     26  C   UNL     1       4.808  -4.648  29.057  0.00  0.00    +0.193 C 
ENDBRANCH  24  25
ENDBRANCH  23  24
ENDBRANCH  22  23
ENDBRANCH  14  22
ENDBRANCH   1  15
BRANCH   1  27
ATOM     27  C   UNL     1       7.481  -5.093  23.377  0.00  0.00    +0.043 C 
BRANCH  27  28
ATOM     28  C   UNL     1       7.008  -4.660  21.985  0.00  0.00    +0.123 C 
BRANCH  28  29
ATOM     29  C   UNL     1       6.315  -5.755  21.216  0.00  0.00    +0.305 C 
ATOM     30  O   UNL     1       5.923  -5.674  20.063  0.00  0.00    -0.251 OA
BRANCH  29  31
ATOM     31  O   UNL     1       6.181  -6.882  21.950  0.00  0.00    -0.481 OA
ATOM     32  H   UNL     1       5.994  -6.714  22.897  0.00  0.00    +0.295 HD
ENDBRANCH  29  31
ENDBRANCH  28  29
ENDBRANCH  27  28
ENDBRANCH   1  27
TORSDOF 15
ENDMDL
MODEL 3
REMARK VINA RESULT:      -5.6      1.770      2.298
REMARK  Name = 
REMARK  17 active torsions:
REMARK  status: ('A' for Active; 'I' for Inactive)
REMARK    1  A    between atoms: C_1  and  C_2
REMARK    2  A    between atoms: C_2  and  C_3
REMARK    3  A    between atoms: C_3  and  C_4
REMARK    4  A    between atoms: C_4  and  C_5
REMARK    5  A    between atoms: C_5  and  N_6
REMARK    6  A    between atoms: N_6  and  C_7
REMARK    7  A    between atoms: C_7  and  C_8
REMARK    8  A    between atoms: C_8  and  C_9
REMARK    9  A    between atoms: C_9  and  O_10
REMARK   10  A    between atoms: O_10  and  C_11
REMARK   11  A    between atoms: C_12  and  C_14
REMARK   12  A    between atoms: C_14  and  C_16
REMARK   13  A    between atoms: C_14  and  N_21
REMARK   14  A    between atoms: C_16  and  C_17
REMARK   15  A    between atoms: C_17  and  C_18
REMARK   16  A    between atoms: C_18  and  O_19
REMARK   17  A    between atoms: C_22  and  C_24
REMARK                            x       y       z     vdW  Elec       q    Type
REMARK                         _______ _______ _______ _____ _____    ______ ____
ROOT
ATOM      1  C   UNL     1       7.652  -2.372  24.237  0.00  0.00    +0.160 C 
ENDROOT
BRANCH   1   2
ATOM      2  N   UNL     1       7.757  -0.936  23.946  0.00  0.00    -0.300 N 
ATOM      3  H   UNL     1       7.487  -0.642  23.017  0.00  0.00    +0.150 HD
ATOM      4  C   UNL     1       8.392  -0.078  24.811  0.00  0.00    +0.245 C 
ATOM      5  O   UNL     1       8.912  -0.448  25.857  0.00  0.00    -0.270 OA
BRANCH   4   6
ATOM      6  C   UNL     1       8.481   1.359  24.430  0.00  0.00    +0.038 A 
ATOM      7  C   UNL     1       7.386   2.228  24.493  0.00  0.00    +0.014 A 
ATOM      8  C   UNL     1       7.558   3.585  24.200  0.00  0.00    +0.022 A 
ATOM      9  C   UNL     1       8.818   4.082  23.846  0.00  0.00    +0.059 A 
ATOM     10 CL   UNL     1       8.962   5.775  23.543  0.00  0.00    -0.082 Cl
ATOM     11  C   UNL     1       9.910   3.212  23.768  0.00  0.00    +0.060 A 
ATOM     12 CL   UNL     1      11.495   3.745  23.335  0.00  0.00    -0.082 Cl
ATOM     13  C   UNL     1       9.740   1.856  24.060  0.00  0.00    +0.034 A 
ENDBRANCH   4   6
ENDBRANCH   1   2
BRANCH   1  15
ATOM     14  N   UNL     1       5.548  -3.781  24.546  0.00  0.00    -0.300 N 
ATOM     15  C   UNL     1       6.252  -2.853  23.759  0.00  0.00    +0.236 C 
ATOM     16  O   UNL     1       5.751  -2.351  22.748  0.00  0.00    -0.274 OA
BRANCH  14  17
ATOM     17  C   UNL     1       4.204  -4.178  24.078  0.00  0.00    +0.108 C 
BRANCH  17  18
ATOM     18  C   UNL     1       4.239  -5.232  22.963  0.00  0.00    +0.019 C 
BRANCH  18  19
ATOM     19  C   UNL     1       5.263  -6.359  23.176  0.00  0.00    +0.001 C 
BRANCH  19  21
ATOM     20  C   UNL     1       6.202  -5.535  20.972  0.00  0.00    +0.004 C 
ATOM     21  C   UNL     1       6.503  -6.241  22.288  0.00  0.00    -0.003 C 
ENDBRANCH  19  21
ENDBRANCH  18  19
ENDBRANCH  17  18
ENDBRANCH  14  17
BRANCH  14  22
ATOM     22  C   UNL     1       5.907  -4.081  25.947  0.00  0.00    +0.110 C 
BRANCH  22  23
ATOM     23  C   UNL     1       6.193  -5.547  26.291  0.00  0.00    +0.047 C 
BRANCH  23  24
ATOM     24  C   UNL     1       5.052  -6.249  27.021  0.00  0.00    +0.161 C 
BRANCH  24  25
ATOM     25  O   UNL     1       5.591  -7.164  27.974  0.00  0.00    -0.383 OA
ATOM     26  C   UNL     1       6.095  -6.504  29.126  0.00  0.00    +0.193 C 
ENDBRANCH  24  25
ENDBRANCH  23  24
ENDBRANCH  22  23
ENDBRANCH  14  22
ENDBRANCH   1  15
BRANCH   1  27
ATOM     27  C   UNL     1       8.803  -3.132  23.543  0.00  0.00    +0.043 C 
BRANCH  27  28
ATOM     28  C   UNL     1       9.921  -3.477  24.532  0.00  0.00    +0.123 C 
BRANCH  28  29
ATOM     29  C   UNL     1       9.648  -4.717  25.343  0.00  0.00    +0.305 C 
ATOM     30  O   UNL     1       9.484  -4.752  26.552  0.00  0.00    -0.251 OA
BRANCH  29  31
ATOM     31  O   UNL     1       9.583  -5.823  24.569  0.00  0.00    -0.481 OA
ATOM     32  H   UNL     1       9.641  -6.660  25.073  0.00  0.00    +0.295 HD
ENDBRANCH  29  31
ENDBRANCH  28  29
ENDBRANCH  27  28
ENDBRANCH   1  27
TORSDOF 15
ENDMDL
MODEL 4
REMARK VINA RESULT:      -5.6      2.227      4.221
REMARK  Name = 
REMARK  17 active torsions:
REMARK  status: ('A' for Active; 'I' for Inactive)
REMARK    1  A    between atoms: C_1  and  C_2
REMARK    2  A    between atoms: C_2  and  C_3
REMARK    3  A    between atoms: C_3  and  C_4
REMARK    4  A    between atoms: C_4  and  C_5
REMARK    5  A    between atoms: C_5  and  N_6
REMARK    6  A    between atoms: N_6  and  C_7
REMARK    7  A    between atoms: C_7  and  C_8
REMARK    8  A    between atoms: C_8  and  C_9
REMARK    9  A    between atoms: C_9  and  O_10
REMARK   10  A    between atoms: O_10  and  C_11
REMARK   11  A    between atoms: C_12  and  C_14
REMARK   12  A    between atoms: C_14  and  C_16
REMARK   13  A    between atoms: C_14  and  N_21
REMARK   14  A    between atoms: C_16  and  C_17
REMARK   15  A    between atoms: C_17  and  C_18
REMARK   16  A    between atoms: C_18  and  O_19
REMARK   17  A    between atoms: C_22  and  C_24
REMARK                            x       y       z     vdW  Elec       q    Type
REMARK                         _______ _______ _______ _____ _____    ______ ____
ROOT
ATOM      1  C   UNL     1       6.636  -3.295  26.392  0.00  0.00    +0.160 C 
ENDROOT
BRANCH   1   2
ATOM      2  N   UNL     1       7.490  -2.261  25.792  0.00  0.00    -0.300 N 
ATOM      3  H   UNL     1       8.179  -2.576  25.122  0.00  0.00    +0.150 HD
ATOM      4  C   UNL     1       7.498  -0.976  26.277  0.00  0.00    +0.245 C 
ATOM      5  O   UNL     1       6.817  -0.616  27.230  0.00  0.00    -0.270 OA
BRANCH   4   6
ATOM      6  C   UNL     1       8.412   0.008  25.632  0.00  0.00    +0.038 A 
ATOM      7  C   UNL     1       9.753  -0.275  25.351  0.00  0.00    +0.014 A 
ATOM      8  C   UNL     1      10.534   0.665  24.668  0.00  0.00    +0.022 A 
ATOM      9  C   UNL     1       9.983   1.887  24.263  0.00  0.00    +0.059 A 
ATOM     10 CL   UNL     1      10.995   2.976  23.386  0.00  0.00    -0.082 Cl
ATOM     11  C   UNL     1       8.647   2.177  24.557  0.00  0.00    +0.060 A 
ATOM     12 CL   UNL     1       7.895   3.662  24.094  0.00  0.00    -0.082 Cl
ATOM     13  C   UNL     1       7.866   1.240  25.238  0.00  0.00    +0.034 A 
ENDBRANCH   4   6
ENDBRANCH   1   2
BRANCH   1  15
ATOM     14  N   UNL     1       5.376  -3.993  24.286  0.00  0.00    -0.300 N 
ATOM     15  C   UNL     1       5.330  -3.381  25.551  0.00  0.00    +0.236 C 
ATOM     16  O   UNL     1       4.266  -2.989  26.041  0.00  0.00    -0.274 OA
BRANCH  14  17
ATOM     17  C   UNL     1       4.105  -4.091  23.540  0.00  0.00    +0.108 C 
BRANCH  17  18
ATOM     18  C   UNL     1       3.668  -5.539  23.276  0.00  0.00    +0.019 C 
BRANCH  18  19
ATOM     19  C   UNL     1       2.945  -6.215  24.452  0.00  0.00    +0.001 C 
BRANCH  19  21
ATOM     20  C   UNL     1       4.445  -6.871  26.386  0.00  0.00    +0.004 C 
ATOM     21  C   UNL     1       3.753  -7.335  25.110  0.00  0.00    -0.003 C 
ENDBRANCH  19  21
ENDBRANCH  18  19
ENDBRANCH  17  18
ENDBRANCH  14  17
BRANCH  14  22
ATOM     22  C   UNL     1       6.502  -4.838  23.845  0.00  0.00    +0.110 C 
BRANCH  22  23
ATOM     23  C   UNL     1       7.219  -4.422  22.555  0.00  0.00    +0.047 C 
BRANCH  23  24
ATOM     24  C   UNL     1       7.153  -2.926  22.262  0.00  0.00    +0.161 C 
BRANCH  24  25
ATOM     25  O   UNL     1       8.312  -2.286  22.794  0.00  0.00    -0.383 OA
ATOM     26  C   UNL     1       8.765  -1.223  21.967  0.00  0.00    +0.193 C 
ENDBRANCH  24  25
ENDBRANCH  23  24
ENDBRANCH  22  23
ENDBRANCH  14  22
ENDBRANCH   1  15
BRANCH   1  27
ATOM     27  C   UNL     1       7.395  -4.639  26.435  0.00  0.00    +0.043 C 
BRANCH  27  28
ATOM     28  C   UNL     1       8.905  -4.423  26.575  0.00  0.00    +0.123 C 
BRANCH  28  29
ATOM     29  C   UNL     1       9.683  -4.773  25.332  0.00  0.00    +0.305 C 
ATOM     30  O   UNL     1      10.137  -3.973  24.531  0.00  0.00    -0.251 OA
BRANCH  29  31
ATOM     31  O   UNL     1       9.848  -6.107  25.199  0.00  0.00    -0.481 OA
ATOM     32  H   UNL     1      10.640  -6.454  25.660  0.00  0.00    +0.295 HD
ENDBRANCH  29  31
ENDBRANCH  28  29
ENDBRANCH  27  28
ENDBRANCH   1  27
TORSDOF 15
ENDMDL
MODEL 5
REMARK VINA RESULT:      -5.6      2.577      4.075
REMARK  Name = 
REMARK  17 active torsions:
REMARK  status: ('A' for Active; 'I' for Inactive)
REMARK    1  A    between atoms: C_1  and  C_2
REMARK    2  A    between atoms: C_2  and  C_3
REMARK    3  A    between atoms: C_3  and  C_4
REMARK    4  A    between atoms: C_4  and  C_5
REMARK    5  A    between atoms: C_5  and  N_6
REMARK    6  A    between atoms: N_6  and  C_7
REMARK    7  A    between atoms: C_7  and  C_8
REMARK    8  A    between atoms: C_8  and  C_9
REMARK    9  A    between atoms: C_9  and  O_10
REMARK   10  A    between atoms: O_10  and  C_11
REMARK   11  A    between atoms: C_12  and  C_14
REMARK   12  A    between atoms: C_14  and  C_16
REMARK   13  A    between atoms: C_14  and  N_21
REMARK   14  A    between atoms: C_16  and  C_17
REMARK   15  A    between atoms: C_17  and  C_18
REMARK   16  A    between atoms: C_18  and  O_19
REMARK   17  A    between atoms: C_22  and  C_24
REMARK                            x       y       z     vdW  Elec       q    Type
REMARK                         _______ _______ _______ _____ _____    ______ ____
ROOT
ATOM      1  C   UNL     1       6.148  -3.113  23.819  0.00  0.00    +0.160 C 
ENDROOT
BRANCH   1   2
ATOM      2  N   UNL     1       6.883  -1.841  23.835  0.00  0.00    -0.300 N 
ATOM      3  H   UNL     1       6.338  -1.002  23.689  0.00  0.00    +0.150 HD
ATOM      4  C   UNL     1       8.257  -1.813  23.829  0.00  0.00    +0.245 C 
ATOM      5  O   UNL     1       8.946  -2.826  23.798  0.00  0.00    -0.270 OA
BRANCH   4   6
ATOM      6  C   UNL     1       8.928  -0.483  23.818  0.00  0.00    +0.038 A 
ATOM      7  C   UNL     1      10.178  -0.262  24.405  0.00  0.00    +0.014 A 
ATOM      8  C   UNL     1      10.789   0.992  24.286  0.00  0.00    +0.022 A 
ATOM      9  C   UNL     1      10.159   2.026  23.584  0.00  0.00    +0.059 A 
ATOM     10 CL   UNL     1      10.995   3.531  23.442  0.00  0.00    -0.082 Cl
ATOM     11  C   UNL     1       8.902   1.811  23.010  0.00  0.00    +0.060 A 
ATOM     12 CL   UNL     1       8.059   3.036  22.131  0.00  0.00    -0.082 Cl
ATOM     13  C   UNL     1       8.291   0.559  23.128  0.00  0.00    +0.034 A 
ENDBRANCH   4   6
ENDBRANCH   1   2
BRANCH   1  15
ATOM     14  N   UNL     1       4.377  -4.158  25.330  0.00  0.00    -0.300 N 
ATOM     15  C   UNL     1       4.956  -2.986  24.812  0.00  0.00    +0.236 C 
ATOM     16  O   UNL     1       4.600  -1.867  25.191  0.00  0.00    -0.274 OA
BRANCH  14  17
ATOM     17  C   UNL     1       3.277  -3.991  26.302  0.00  0.00    +0.108 C 
BRANCH  17  18
ATOM     18  C   UNL     1       1.894  -3.901  25.642  0.00  0.00    +0.019 C 
BRANCH  18  19
ATOM     19  C   UNL     1       1.431  -5.190  24.944  0.00  0.00    +0.001 C 
BRANCH  19  21
ATOM     20  C   UNL     1       2.067  -6.573  22.918  0.00  0.00    +0.004 C 
ATOM     21  C   UNL     1       1.673  -5.195  23.433  0.00  0.00    -0.003 C 
ENDBRANCH  19  21
ENDBRANCH  18  19
ENDBRANCH  17  18
ENDBRANCH  14  17
BRANCH  14  22
ATOM     22  C   UNL     1       5.027  -5.480  25.243  0.00  0.00    +0.110 C 
BRANCH  22  23
ATOM     23  C   UNL     1       5.578  -6.070  26.546  0.00  0.00    +0.047 C 
BRANCH  23  24
ATOM     24  C   UNL     1       6.813  -5.351  27.080  0.00  0.00    +0.161 C 
BRANCH  24  25
ATOM     25  O   UNL     1       7.797  -5.269  26.050  0.00  0.00    -0.383 OA
ATOM     26  C   UNL     1       9.026  -4.735  26.525  0.00  0.00    +0.193 C 
ENDBRANCH  24  25
ENDBRANCH  23  24
ENDBRANCH  22  23
ENDBRANCH  14  22
ENDBRANCH   1  15
BRANCH   1  27
ATOM     27  C   UNL     1       5.683  -3.430  22.382  0.00  0.00    +0.043 C 
BRANCH  27  28
ATOM     28  C   UNL     1       6.736  -4.241  21.620  0.00  0.00    +0.123 C 
BRANCH  28  29
ATOM     29  C   UNL     1       7.034  -5.580  22.244  0.00  0.00    +0.305 C 
ATOM     30  O   UNL     1       6.400  -6.606  22.059  0.00  0.00    -0.251 OA
BRANCH  29  31
ATOM     31  O   UNL     1       8.123  -5.533  23.043  0.00  0.00    -0.481 OA
ATOM     32  H   UNL     1       8.939  -5.253  22.580  0.00  0.00    +0.295 HD
ENDBRANCH  29  31
ENDBRANCH  28  29
ENDBRANCH  27  28
ENDBRANCH   1  27
TORSDOF 15
ENDMDL
MODEL 6
REMARK VINA RESULT:      -5.6      1.874      2.470
REMARK  Name = 
REMARK  17 active torsions:
REMARK  status: ('A' for Active; 'I' for Inactive)
REMARK    1  A    between atoms: C_1  and  C_2
REMARK    2  A    between atoms: C_2  and  C_3
REMARK    3  A    between atoms: C_3  and  C_4
REMARK    4  A    between atoms: C_4  and  C_5
REMARK    5  A    between atoms: C_5  and  N_6
REMARK    6  A    between atoms: N_6  and  C_7
REMARK    7  A    between atoms: C_7  and  C_8
REMARK    8  A    between atoms: C_8  and  C_9
REMARK    9  A    between atoms: C_9  and  O_10
REMARK   10  A    between atoms: O_10  and  C_11
REMARK   11  A    between atoms: C_12  and  C_14
REMARK   12  A    between atoms: C_14  and  C_16
REMARK   13  A    between atoms: C_14  and  N_21
REMARK   14  A    between atoms: C_16  and  C_17
REMARK   15  A    between atoms: C_17  and  C_18
REMARK   16  A    between atoms: C_18  and  O_19
REMARK   17  A    between atoms: C_22  and  C_24
REMARK                            x       y       z     vdW  Elec       q    Type
REMARK                         _______ _______ _______ _____ _____    ______ ____
ROOT
ATOM      1  C   UNL     1       7.384  -1.020  24.215  0.00  0.00    +0.160 C 
ENDROOT
BRANCH   1   2
ATOM      2  N   UNL     1       7.686   0.415  24.118  0.00  0.00    -0.300 N 
ATOM      3  H   UNL     1       7.108   0.957  23.489  0.00  0.00    +0.150 HD
ATOM      4  C   UNL     1       8.823   0.943  24.678  0.00  0.00    +0.245 C 
ATOM      5  O   UNL     1       9.651   0.264  25.275  0.00  0.00    -0.270 OA
BRANCH   4   6
ATOM      6  C   UNL     1       9.071   2.402  24.512  0.00  0.00    +0.038 A 
ATOM      7  C   UNL     1       8.196   3.379  24.998  0.00  0.00    +0.014 A 
ATOM      8  C   UNL     1       8.531   4.733  24.881  0.00  0.00    +0.022 A 
ATOM      9  C   UNL     1       9.736   5.118  24.281  0.00  0.00    +0.059 A 
ATOM     10 CL   UNL     1      10.101   6.804  24.212  0.00  0.00    -0.082 Cl
ATOM     11  C   UNL     1      10.605   4.142  23.780  0.00  0.00    +0.060 A 
ATOM     12 CL   UNL     1      12.107   4.536  23.024  0.00  0.00    -0.082 Cl
ATOM     13  C   UNL     1      10.271   2.790  23.897  0.00  0.00    +0.034 A 
ENDBRANCH   4   6
ENDBRANCH   1   2
BRANCH   1  15
ATOM     14  N   UNL     1       6.080  -2.233  26.042  0.00  0.00    -0.300 N 
ATOM     15  C   UNL     1       6.121  -1.181  25.111  0.00  0.00    +0.236 C 
ATOM     16  O   UNL     1       5.222  -0.337  25.048  0.00  0.00    -0.274 OA
BRANCH  14  17
ATOM     17  C   UNL     1       4.882  -2.323  26.902  0.00  0.00    +0.108 C 
BRANCH  17  18
ATOM     18  C   UNL     1       3.980  -3.517  26.560  0.00  0.00    +0.019 C 
BRANCH  18  19
ATOM     19  C   UNL     1       3.477  -3.547  25.107  0.00  0.00    +0.001 C 
BRANCH  19  21
ATOM     20  C   UNL     1       4.730  -4.259  23.023  0.00  0.00    +0.004 C 
ATOM     21  C   UNL     1       4.022  -4.720  24.291  0.00  0.00    -0.003 C 
ENDBRANCH  19  21
ENDBRANCH  18  19
ENDBRANCH  17  18
ENDBRANCH  14  17
BRANCH  14  22
ATOM     22  C   UNL     1       7.278  -2.994  26.446  0.00  0.00    +0.110 C 
BRANCH  22  23
ATOM     23  C   UNL     1       7.509  -4.343  25.754  0.00  0.00    +0.047 C 
BRANCH  23  24
ATOM     24  C   UNL     1       7.004  -5.544  26.548  0.00  0.00    +0.161 C 
BRANCH  24  25
ATOM     25  O   UNL     1       7.031  -5.238  27.941  0.00  0.00    -0.383 OA
ATOM     26  C   UNL     1       6.036  -5.949  28.665  0.00  0.00    +0.193 C 
ENDBRANCH  24  25
ENDBRANCH  23  24
ENDBRANCH  22  23
ENDBRANCH  14  22
ENDBRANCH   1  15
BRANCH   1  27
ATOM     27  C   UNL     1       7.180  -1.608  22.803  0.00  0.00    +0.043 C 
BRANCH  27  28
ATOM     28  C   UNL     1       8.243  -2.663  22.478  0.00  0.00    +0.123 C 
BRANCH  28  29
ATOM     29  C   UNL     1       9.644  -2.237  22.835  0.00  0.00    +0.305 C 
ATOM     30  O   UNL     1      10.272  -1.341  22.297  0.00  0.00    -0.251 OA
BRANCH  29  31
ATOM     31  O   UNL     1      10.146  -2.962  23.860  0.00  0.00    -0.481 OA
ATOM     32  H   UNL     1       9.470  -3.244  24.510  0.00  0.00    +0.295 HD
ENDBRANCH  29  31
ENDBRANCH  28  29
ENDBRANCH  27  28
ENDBRANCH   1  27
TORSDOF 15
ENDMDL
MODEL 7
REMARK VINA RESULT:      -5.5      2.398      3.576
REMARK  Name = 
REMARK  17 active torsions:
REMARK  status: ('A' for Active; 'I' for Inactive)
REMARK    1  A    between atoms: C_1  and  C_2
REMARK    2  A    between atoms: C_2  and  C_3
REMARK    3  A    between atoms: C_3  and  C_4
REMARK    4  A    between atoms: C_4  and  C_5
REMARK    5  A    between atoms: C_5  and  N_6
REMARK    6  A    between atoms: N_6  and  C_7
REMARK    7  A    between atoms: C_7  and  C_8
REMARK    8  A    between atoms: C_8  and  C_9
REMARK    9  A    between atoms: C_9  and  O_10
REMARK   10  A    between atoms: O_10  and  C_11
REMARK   11  A    between atoms: C_12  and  C_14
REMARK   12  A    between atoms: C_14  and  C_16
REMARK   13  A    between atoms: C_14  and  N_21
REMARK   14  A    between atoms: C_16  and  C_17
REMARK   15  A    between atoms: C_17  and  C_18
REMARK   16  A    between atoms: C_18  and  O_19
REMARK   17  A    between atoms: C_22  and  C_24
REMARK                            x       y       z     vdW  Elec       q    Type
REMARK                         _______ _______ _______ _____ _____    ______ ____
ROOT
ATOM      1  C   UNL     1       7.355  -3.516  24.899  0.00  0.00    +0.160 C 
ENDROOT
BRANCH   1   2
ATOM      2  N   UNL     1       8.020  -2.261  24.522  0.00  0.00    -0.300 N 
ATOM      3  H   UNL     1       8.257  -2.151  23.545  0.00  0.00    +0.150 HD
ATOM      4  C   UNL     1       8.487  -1.389  25.475  0.00  0.00    +0.245 C 
ATOM      5  O   UNL     1       8.394  -1.601  26.678  0.00  0.00    -0.270 OA
BRANCH   4   6
ATOM      6  C   UNL     1       9.175  -0.151  25.012  0.00  0.00    +0.038 A 
ATOM      7  C   UNL     1      10.442  -0.165  24.420  0.00  0.00    +0.014 A 
ATOM      8  C   UNL     1      10.994   1.025  23.931  0.00  0.00    +0.022 A 
ATOM      9  C   UNL     1      10.288   2.229  24.030  0.00  0.00    +0.059 A 
ATOM     10 CL   UNL     1      11.015   3.647  23.366  0.00  0.00    -0.082 Cl
ATOM     11  C   UNL     1       9.027   2.247  24.636  0.00  0.00    +0.060 A 
ATOM     12 CL   UNL     1       8.095   3.692  24.799  0.00  0.00    -0.082 Cl
ATOM     13  C   UNL     1       8.475   1.060  25.123  0.00  0.00    +0.034 A 
ENDBRANCH   4   6
ENDBRANCH   1   2
BRANCH   1  15
ATOM     14  N   UNL     1       5.289  -3.674  26.388  0.00  0.00    -0.300 N 
ATOM     15  C   UNL     1       5.862  -3.193  25.199  0.00  0.00    +0.236 C 
ATOM     16  O   UNL     1       5.237  -2.452  24.434  0.00  0.00    -0.274 OA
BRANCH  14  17
ATOM     17  C   UNL     1       3.883  -3.308  26.654  0.00  0.00    +0.108 C 
BRANCH  17  18
ATOM     18  C   UNL     1       2.941  -4.519  26.707  0.00  0.00    +0.019 C 
BRANCH  18  19
ATOM     19  C   UNL     1       2.807  -5.286  25.382  0.00  0.00    +0.001 C 
BRANCH  19  21
ATOM     20  C   UNL     1       4.624  -6.746  24.386  0.00  0.00    +0.004 C 
ATOM     21  C   UNL     1       3.484  -6.658  25.393  0.00  0.00    -0.003 C 
ENDBRANCH  19  21
ENDBRANCH  18  19
ENDBRANCH  17  18
ENDBRANCH  14  17
BRANCH  14  22
ATOM     22  C   UNL     1       6.093  -4.190  27.515  0.00  0.00    +0.110 C 
BRANCH  22  23
ATOM     23  C   UNL     1       6.393  -5.693  27.522  0.00  0.00    +0.047 C 
BRANCH  23  24
ATOM     24  C   UNL     1       6.274  -6.345  28.896  0.00  0.00    +0.161 C 
BRANCH  24  25
ATOM     25  O   UNL     1       5.374  -7.450  28.821  0.00  0.00    -0.383 OA
ATOM     26  C   UNL     1       4.039  -7.077  29.133  0.00  0.00    +0.193 C 
ENDBRANCH  24  25
ENDBRANCH  23  24
ENDBRANCH  22  23
ENDBRANCH  14  22
ENDBRANCH   1  15
BRANCH   1  27
ATOM     27  C   UNL     1       7.515  -4.553  23.767  0.00  0.00    +0.043 C 
BRANCH  27  28
ATOM     28  C   UNL     1       7.494  -3.884  22.389  0.00  0.00    +0.123 C 
BRANCH  28  29
ATOM     29  C   UNL     1       6.254  -4.188  21.589  0.00  0.00    +0.305 C 
ATOM     30  O   UNL     1       6.047  -5.217  20.966  0.00  0.00    -0.251 OA
BRANCH  29  31
ATOM     31  O   UNL     1       5.356  -3.181  21.647  0.00  0.00    -0.481 OA
ATOM     32  H   UNL     1       4.966  -2.951  20.778  0.00  0.00    +0.295 HD
ENDBRANCH  29  31
ENDBRANCH  28  29
ENDBRANCH  27  28
ENDBRANCH   1  27
TORSDOF 15
ENDMDL
MODEL 8
REMARK VINA RESULT:      -5.5      2.282      4.584
REMARK  Name = 
REMARK  17 active torsions:
REMARK  status: ('A' for Active; 'I' for Inactive)
REMARK    1  A    between atoms: C_1  and  C_2
REMARK    2  A    between atoms: C_2  and  C_3
REMARK    3  A    between atoms: C_3  and  C_4
REMARK    4  A    between atoms: C_4  and  C_5
REMARK    5  A    between atoms: C_5  and  N_6
REMARK    6  A    between atoms: N_6  and  C_7
REMARK    7  A    between atoms: C_7  and  C_8
REMARK    8  A    between atoms: C_8  and  C_9
REMARK    9  A    between atoms: C_9  and  O_10
REMARK   10  A    between atoms: O_10  and  C_11
REMARK   11  A    between atoms: C_12  and  C_14
REMARK   12  A    between atoms: C_14  and  C_16
REMARK   13  A    between atoms: C_14  and  N_21
REMARK   14  A    between atoms: C_16  and  C_17
REMARK   15  A    between atoms: C_17  and  C_18
REMARK   16  A    between atoms: C_18  and  O_19
REMARK   17  A    between atoms: C_22  and  C_24
REMARK                            x       y       z     vdW  Elec       q    Type
REMARK                         _______ _______ _______ _____ _____    ______ ____
ROOT
ATOM      1  C   UNL     1       7.561  -3.239  22.750  0.00  0.00    +0.160 C 
ENDROOT
BRANCH   1   2
ATOM      2  N   UNL     1       7.920  -1.853  23.082  0.00  0.00    -0.300 N 
ATOM      3  H   UNL     1       7.197  -1.289  23.508  0.00  0.00    +0.150 HD
ATOM      4  C   UNL     1       9.093  -1.296  22.637  0.00  0.00    +0.245 C 
ATOM      5  O   UNL     1       9.898  -1.901  21.938  0.00  0.00    -0.270 OA
BRANCH   4   6
ATOM      6  C   UNL     1       9.371   0.124  22.992  0.00  0.00    +0.038 A 
ATOM      7  C   UNL     1      10.501   0.516  23.717  0.00  0.00    +0.014 A 
ATOM      8  C   UNL     1      10.744   1.875  23.945  0.00  0.00    +0.022 A 
ATOM      9  C   UNL     1       9.865   2.847  23.453  0.00  0.00    +0.059 A 
ATOM     10 CL   UNL     1      10.255   4.505  23.736  0.00  0.00    -0.082 Cl
ATOM     11  C   UNL     1       8.727   2.456  22.741  0.00  0.00    +0.060 A 
ATOM     12 CL   UNL     1       7.593   3.593  22.104  0.00  0.00    -0.082 Cl
ATOM     13  C   UNL     1       8.483   1.099  22.512  0.00  0.00    +0.034 A 
ENDBRANCH   4   6
ENDBRANCH   1   2
BRANCH   1  15
ATOM     14  N   UNL     1       7.565  -3.706  25.259  0.00  0.00    -0.300 N 
ATOM     15  C   UNL     1       7.932  -4.131  23.970  0.00  0.00    +0.236 C 
ATOM     16  O   UNL     1       8.463  -5.230  23.779  0.00  0.00    -0.274 OA
BRANCH  14  17
ATOM     17  C   UNL     1       7.898  -4.603  26.384  0.00  0.00    +0.108 C 
BRANCH  17  18
ATOM     18  C   UNL     1       6.661  -5.210  27.060  0.00  0.00    +0.019 C 
BRANCH  18  19
ATOM     19  C   UNL     1       5.792  -6.084  26.142  0.00  0.00    +0.001 C 
BRANCH  19  21
ATOM     20  C   UNL     1       3.948  -4.668  27.150  0.00  0.00    +0.004 C 
ATOM     21  C   UNL     1       4.349  -5.592  26.007  0.00  0.00    -0.003 C 
ENDBRANCH  19  21
ENDBRANCH  18  19
ENDBRANCH  17  18
ENDBRANCH  14  17
BRANCH  14  22
ATOM     22  C   UNL     1       6.576  -2.635  25.498  0.00  0.00    +0.110 C 
BRANCH  22  23
ATOM     23  C   UNL     1       6.881  -1.651  26.634  0.00  0.00    +0.047 C 
BRANCH  23  24
ATOM     24  C   UNL     1       6.278  -0.264  26.433  0.00  0.00    +0.161 C 
BRANCH  24  25
ATOM     25  O   UNL     1       6.509   0.164  25.092  0.00  0.00    -0.383 OA
ATOM     26  C   UNL     1       5.567   1.142  24.673  0.00  0.00    +0.193 C 
ENDBRANCH  24  25
ENDBRANCH  23  24
ENDBRANCH  22  23
ENDBRANCH  14  22
ENDBRANCH   1  15
BRANCH   1  27
ATOM     27  C   UNL     1       6.061  -3.321  22.398  0.00  0.00    +0.043 C 
BRANCH  27  28
ATOM     28  C   UNL     1       5.541  -4.759  22.494  0.00  0.00    +0.123 C 
BRANCH  28  29
ATOM     29  C   UNL     1       6.029  -5.652  21.383  0.00  0.00    +0.305 C 
ATOM     30  O   UNL     1       5.950  -5.408  20.190  0.00  0.00    -0.251 OA
BRANCH  29  31
ATOM     31  O   UNL     1       6.600  -6.782  21.857  0.00  0.00    -0.481 OA
ATOM     32  H   UNL     1       6.982  -7.352  21.158  0.00  0.00    +0.295 HD
ENDBRANCH  29  31
ENDBRANCH  28  29
ENDBRANCH  27  28
ENDBRANCH   1  27
TORSDOF 15
ENDMDL
MODEL 9
REMARK VINA RESULT:      -5.5      2.222      3.264
REMARK  Name = 
REMARK  17 active torsions:
REMARK  status: ('A' for Active; 'I' for Inactive)
REMARK    1  A    between atoms: C_1  and  C_2
REMARK    2  A    between atoms: C_2  and  C_3
REMARK    3  A    between atoms: C_3  and  C_4
REMARK    4  A    between atoms: C_4  and  C_5
REMARK    5  A    between atoms: C_5  and  N_6
REMARK    6  A    between atoms: N_6  and  C_7
REMARK    7  A    between atoms: C_7  and  C_8
REMARK    8  A    between atoms: C_8  and  C_9
REMARK    9  A    between atoms: C_9  and  O_10
REMARK   10  A    between atoms: O_10  and  C_11
REMARK   11  A    between atoms: C_12  and  C_14
REMARK   12  A    between atoms: C_14  and  C_16
REMARK   13  A    between atoms: C_14  and  N_21
REMARK   14  A    between atoms: C_16  and  C_17
REMARK   15  A    between atoms: C_17  and  C_18
REMARK   16  A    between atoms: C_18  and  O_19
REMARK   17  A    between atoms: C_22  and  C_24
REMARK                            x       y       z     vdW  Elec       q    Type
REMARK                         _______ _______ _______ _____ _____    ______ ____
ROOT
ATOM      1  C   UNL     1       6.593  -3.174  26.140  0.00  0.00    +0.160 C 
ENDROOT
BRANCH   1   2
ATOM      2  N   UNL     1       7.431  -2.118  25.555  0.00  0.00    -0.300 N 
ATOM      3  H   UNL     1       7.977  -2.372  24.742  0.00  0.00    +0.150 HD
ATOM      4  C   UNL     1       7.630  -0.925  26.206  0.00  0.00    +0.245 C 
ATOM      5  O   UNL     1       7.140  -0.670  27.300  0.00  0.00    -0.270 OA
BRANCH   4   6
ATOM      6  C   UNL     1       8.516   0.084  25.560  0.00  0.00    +0.038 A 
ATOM      7  C   UNL     1       9.806  -0.218  25.111  0.00  0.00    +0.014 A 
ATOM      8  C   UNL     1      10.553   0.755  24.437  0.00  0.00    +0.022 A 
ATOM      9  C   UNL     1      10.020   2.029  24.209  0.00  0.00    +0.059 A 
ATOM     10 CL   UNL     1      10.984   3.162  23.333  0.00  0.00    -0.082 Cl
ATOM     11  C   UNL     1       8.737   2.337  24.672  0.00  0.00    +0.060 A 
ATOM     12 CL   UNL     1       8.010   3.886  24.433  0.00  0.00    -0.082 Cl
ATOM     13  C   UNL     1       7.989   1.367  25.343  0.00  0.00    +0.034 A 
ENDBRANCH   4   6
ENDBRANCH   1   2
BRANCH   1  15
ATOM     14  N   UNL     1       4.113  -3.751  25.983  0.00  0.00    -0.300 N 
ATOM     15  C   UNL     1       5.245  -3.196  25.362  0.00  0.00    +0.236 C 
ATOM     16  O   UNL     1       5.175  -2.653  24.256  0.00  0.00    -0.274 OA
BRANCH  14  17
ATOM     17  C   UNL     1       2.845  -3.713  25.227  0.00  0.00    +0.108 C 
BRANCH  17  18
ATOM     18  C   UNL     1       2.474  -5.063  24.599  0.00  0.00    +0.019 C 
BRANCH  18  19
ATOM     19  C   UNL     1       3.210  -5.385  23.288  0.00  0.00    +0.001 C 
BRANCH  19  21
ATOM     20  C   UNL     1       5.613  -5.831  22.617  0.00  0.00    +0.004 C 
ATOM     21  C   UNL     1       4.437  -6.281  23.475  0.00  0.00    -0.003 C 
ENDBRANCH  19  21
ENDBRANCH  18  19
ENDBRANCH  17  18
ENDBRANCH  14  17
BRANCH  14  22
ATOM     22  C   UNL     1       4.044  -4.020  27.433  0.00  0.00    +0.110 C 
BRANCH  22  23
ATOM     23  C   UNL     1       3.863  -5.481  27.860  0.00  0.00    +0.047 C 
BRANCH  23  24
ATOM     24  C   UNL     1       4.763  -6.462  27.115  0.00  0.00    +0.161 C 
BRANCH  24  25
ATOM     25  O   UNL     1       5.477  -7.260  28.058  0.00  0.00    -0.383 OA
ATOM     26  C   UNL     1       6.086  -6.474  29.073  0.00  0.00    +0.193 C 
ENDBRANCH  24  25
ENDBRANCH  23  24
ENDBRANCH  22  23
ENDBRANCH  14  22
ENDBRANCH   1  15
BRANCH   1  27
ATOM     27  C   UNL     1       7.333  -4.526  26.071  0.00  0.00    +0.043 C 
BRANCH  27  28
ATOM     28  C   UNL     1       8.808  -4.377  26.457  0.00  0.00    +0.123 C 
BRANCH  28  29
ATOM     29  C   UNL     1       9.755  -4.546  25.297  0.00  0.00    +0.305 C 
ATOM     30  O   UNL     1       9.865  -3.779  24.354  0.00  0.00    -0.251 OA
BRANCH  29  31
ATOM     31  O   UNL     1      10.509  -5.660  25.419  0.00  0.00    -0.481 OA
ATOM     32  H   UNL     1      11.424  -5.485  25.722  0.00  0.00    +0.295 HD
ENDBRANCH  29  31
ENDBRANCH  28  29
ENDBRANCH  27  28
ENDBRANCH   1  27
TORSDOF 15
ENDMDL
