MODEL 1
REMARK VINA RESULT:      -6.9      0.000      0.000
REMARK  Name = 
REMARK  2 active torsions:
REMARK  status: ('A' for Active; 'I' for Inactive)
REMARK    1  A    between atoms: N_2  and  C_4
REMARK    2  A    between atoms: C_13  and  C_14
REMARK                            x       y       z     vdW  Elec       q    Type
REMARK                         _______ _______ _______ _____ _____    ______ ____
ROOT
ATOM      1  C   UNL     1       6.123  -5.152  21.843  0.00  0.00    +0.274 A 
ATOM      2  C   UNL     1       5.159  -5.803  22.614  0.00  0.00    +0.086 A 
ATOM      3  C   UNL     1       5.267  -5.786  24.004  0.00  0.00    +0.030 A 
ATOM      4  C   UNL     1       6.342  -5.140  24.634  0.00  0.00    +0.043 A 
ATOM      5  N   UNL     1       6.375  -5.257  26.032  0.00  0.00    -0.283 N 
ATOM      6  H   UNL     1       5.542  -5.548  26.530  0.00  0.00    +0.155 HD
ATOM      7  C   UNL     1       7.484  -5.264  26.837  0.00  0.00    +0.239 C 
ATOM      8  C   UNL     1       8.834  -5.179  26.164  0.00  0.00    +0.238 C 
ATOM      9  N   UNL     1       9.000  -3.875  25.544  0.00  0.00    -0.273 NA
ATOM     10  C   UNL     1       8.343  -3.563  24.482  0.00  0.00    +0.077 C 
ATOM     11  O   UNL     1       7.346  -5.451  28.047  0.00  0.00    -0.273 OA
ATOM     12  C   UNL     1       7.289  -4.438  23.858  0.00  0.00    +0.028 A 
ATOM     13  C   UNL     1       7.186  -4.469  22.455  0.00  0.00    +0.096 A 
ENDROOT
BRANCH  10  14
ATOM     14  C   UNL     1       8.646  -2.217  23.872  0.00  0.00    +0.019 A 
ATOM     15  C   UNL     1       7.697  -1.178  23.826  0.00  0.00    +0.050 A 
ATOM     16 CL   UNL     1       6.121  -1.270  24.538  0.00  0.00    -0.083 Cl
ATOM     17  C   UNL     1       8.024   0.047  23.228  0.00  0.00    +0.020 A 
ATOM     18  C   UNL     1       9.292   0.257  22.691  0.00  0.00    +0.001 A 
ATOM     19  C   UNL     1      10.237  -0.764  22.727  0.00  0.00    +0.001 A 
ATOM     20  C   UNL     1       9.911  -2.000  23.296  0.00  0.00    +0.011 A 
ENDBRANCH  10  14
BRANCH   1  22
ATOM     21  O   UNL     1       6.136  -6.251  19.801  0.00  0.00    -0.576 OA
ATOM     22  N   UNL     1       6.005  -5.163  20.378  0.00  0.00    +0.080 N 
ATOM     23  O   UNL     1       5.791  -4.084  19.810  0.00  0.00    +0.041 OA
ENDBRANCH   1  22
TORSDOF 2
ENDMDL
MODEL 2
REMARK VINA RESULT:      -6.4      2.412      2.800
REMARK  Name = 
REMARK  2 active torsions:
REMARK  status: ('A' for Active; 'I' for Inactive)
REMARK    1  A    between atoms: N_2  and  C_4
REMARK    2  A    between atoms: C_13  and  C_14
REMARK                            x       y       z     vdW  Elec       q    Type
REMARK                         _______ _______ _______ _____ _____    ______ ____
ROOT
ATOM      1  C   UNL     1       5.943  -4.333  22.422  0.00  0.00    +0.274 A 
ATOM      2  C   UNL     1       4.676  -4.539  22.971  0.00  0.00    +0.086 A 
ATOM      3  C   UNL     1       4.264  -3.764  24.054  0.00  0.00    +0.030 A 
ATOM      4  C   UNL     1       5.113  -2.794  24.610  0.00  0.00    +0.043 A 
ATOM      5  N   UNL     1       4.609  -2.133  25.740  0.00  0.00    -0.283 N 
ATOM      6  H   UNL     1       3.617  -2.176  25.944  0.00  0.00    +0.155 HD
ATOM      7  C   UNL     1       5.326  -1.613  26.785  0.00  0.00    +0.239 C 
ATOM      8  C   UNL     1       6.826  -1.796  26.758  0.00  0.00    +0.238 C 
ATOM      9  N   UNL     1       7.402  -1.026  25.669  0.00  0.00    -0.273 NA
ATOM     10  C   UNL     1       7.240  -1.394  24.446  0.00  0.00    +0.077 C 
ATOM     11  O   UNL     1       4.725  -1.126  27.743  0.00  0.00    -0.273 OA
ATOM     12  C   UNL     1       6.374  -2.549  24.023  0.00  0.00    +0.028 A 
ATOM     13  C   UNL     1       6.794  -3.343  22.940  0.00  0.00    +0.096 A 
ENDROOT
BRANCH  10  14
ATOM     14  C   UNL     1       7.944  -0.572  23.395  0.00  0.00    +0.019 A 
ATOM     15  C   UNL     1       9.252  -0.863  22.959  0.00  0.00    +0.050 A 
ATOM     16 CL   UNL     1      10.169  -2.233  23.486  0.00  0.00    -0.083 Cl
ATOM     17  C   UNL     1       9.867  -0.053  21.994  0.00  0.00    +0.020 A 
ATOM     18  C   UNL     1       9.191   1.034  21.445  0.00  0.00    +0.001 A 
ATOM     19  C   UNL     1       7.900   1.333  21.871  0.00  0.00    +0.001 A 
ATOM     20  C   UNL     1       7.287   0.548  22.853  0.00  0.00    +0.011 A 
ENDBRANCH  10  14
BRANCH   1  22
ATOM     21  O   UNL     1       7.236  -6.010  21.478  0.00  0.00    -0.576 OA
ATOM     22  N   UNL     1       6.374  -5.144  21.275  0.00  0.00    +0.080 N 
ATOM     23  O   UNL     1       5.859  -4.905  20.176  0.00  0.00    +0.041 OA
ENDBRANCH   1  22
TORSDOF 2
ENDMDL
MODEL 3
REMARK VINA RESULT:      -6.3      6.732      9.471
REMARK  Name = 
REMARK  2 active torsions:
REMARK  status: ('A' for Active; 'I' for Inactive)
REMARK    1  A    between atoms: N_2  and  C_4
REMARK    2  A    between atoms: C_13  and  C_14
REMARK                            x       y       z     vdW  Elec       q    Type
REMARK                         _______ _______ _______ _____ _____    ______ ____
ROOT
ATOM      1  C   UNL     1      11.768   5.324  23.487  0.00  0.00    +0.274 A 
ATOM      2  C   UNL     1      11.564   6.348  24.414  0.00  0.00    +0.086 A 
ATOM      3  C   UNL     1      10.365   6.399  25.125  0.00  0.00    +0.030 A 
ATOM      4  C   UNL     1       9.358   5.447  24.906  0.00  0.00    +0.043 A 
ATOM      5  N   UNL     1       8.174   5.652  25.631  0.00  0.00    -0.283 N 
ATOM      6  H   UNL     1       8.178   6.273  26.431  0.00  0.00    +0.155 HD
ATOM      7  C   UNL     1       6.902   5.304  25.257  0.00  0.00    +0.239 C 
ATOM      8  C   UNL     1       6.727   4.664  23.899  0.00  0.00    +0.238 C 
ATOM      9  N   UNL     1       7.347   3.350  23.884  0.00  0.00    -0.273 NA
ATOM     10  C   UNL     1       8.628   3.227  23.882  0.00  0.00    +0.077 C 
ATOM     11  O   UNL     1       5.956   5.622  25.977  0.00  0.00    -0.273 OA
ATOM     12  C   UNL     1       9.584   4.382  24.007  0.00  0.00    +0.028 A 
ATOM     13  C   UNL     1      10.787   4.341  23.280  0.00  0.00    +0.096 A 
ENDROOT
BRANCH  10  14
ATOM     14  C   UNL     1       9.170   1.823  23.785  0.00  0.00    +0.019 A 
ATOM     15  C   UNL     1       9.066   1.052  22.611  0.00  0.00    +0.050 A 
ATOM     16 CL   UNL     1       8.404   1.635  21.122  0.00  0.00    -0.083 Cl
ATOM     17  C   UNL     1       9.569  -0.257  22.582  0.00  0.00    +0.020 A 
ATOM     18  C   UNL     1      10.191  -0.802  23.703  0.00  0.00    +0.001 A 
ATOM     19  C   UNL     1      10.297  -0.050  24.870  0.00  0.00    +0.001 A 
ATOM     20  C   UNL     1       9.773   1.246  24.918  0.00  0.00    +0.011 A 
ENDBRANCH  10  14
BRANCH   1  22
ATOM     21  O   UNL     1      13.010   5.580  21.546  0.00  0.00    -0.576 OA
ATOM     22  N   UNL     1      13.034   5.265  22.743  0.00  0.00    +0.080 N 
ATOM     23  O   UNL     1      14.044   4.893  23.355  0.00  0.00    +0.041 OA
ENDBRANCH   1  22
TORSDOF 2
ENDMDL
MODEL 4
REMARK VINA RESULT:      -6.3      2.604      5.848
REMARK  Name = 
REMARK  2 active torsions:
REMARK  status: ('A' for Active; 'I' for Inactive)
REMARK    1  A    between atoms: N_2  and  C_4
REMARK    2  A    between atoms: C_13  and  C_14
REMARK                            x       y       z     vdW  Elec       q    Type
REMARK                         _______ _______ _______ _____ _____    ______ ____
ROOT
ATOM      1  C   UNL     1       8.612  -1.379  24.689  0.00  0.00    +0.274 A 
ATOM      2  C   UNL     1       8.378  -0.827  23.428  0.00  0.00    +0.086 A 
ATOM      3  C   UNL     1       7.647  -1.552  22.488  0.00  0.00    +0.030 A 
ATOM      4  C   UNL     1       7.160  -2.834  22.788  0.00  0.00    +0.043 A 
ATOM      5  N   UNL     1       6.503  -3.487  21.733  0.00  0.00    -0.283 N 
ATOM      6  H   UNL     1       6.183  -2.951  20.935  0.00  0.00    +0.155 HD
ATOM      7  C   UNL     1       6.437  -4.836  21.506  0.00  0.00    +0.239 C 
ATOM      8  C   UNL     1       7.182  -5.740  22.462  0.00  0.00    +0.238 C 
ATOM      9  N   UNL     1       6.565  -5.690  23.777  0.00  0.00    -0.273 NA
ATOM     10  C   UNL     1       6.685  -4.646  24.520  0.00  0.00    +0.077 C 
ATOM     11  O   UNL     1       5.880  -5.248  20.488  0.00  0.00    -0.273 OA
ATOM     12  C   UNL     1       7.352  -3.371  24.079  0.00  0.00    +0.028 A 
ATOM     13  C   UNL     1       8.103  -2.645  25.021  0.00  0.00    +0.096 A 
ENDROOT
BRANCH  10  14
ATOM     14  C   UNL     1       6.076  -4.726  25.898  0.00  0.00    +0.019 A 
ATOM     15  C   UNL     1       4.868  -4.080  26.228  0.00  0.00    +0.050 A 
ATOM     16 CL   UNL     1       3.891  -3.210  25.095  0.00  0.00    -0.083 Cl
ATOM     17  C   UNL     1       4.357  -4.169  27.531  0.00  0.00    +0.020 A 
ATOM     18  C   UNL     1       5.024  -4.909  28.505  0.00  0.00    +0.001 A 
ATOM     19  C   UNL     1       6.220  -5.548  28.191  0.00  0.00    +0.001 A 
ATOM     20  C   UNL     1       6.753  -5.442  26.902  0.00  0.00    +0.011 A 
ENDBRANCH  10  14
BRANCH   1  22
ATOM     21  O   UNL     1       9.047  -0.727  26.871  0.00  0.00    -0.576 OA
ATOM     22  N   UNL     1       9.376  -0.612  25.683  0.00  0.00    +0.080 N 
ATOM     23  O   UNL     1      10.294   0.109  25.271  0.00  0.00    +0.041 OA
ENDBRANCH   1  22
TORSDOF 2
ENDMDL
MODEL 5
REMARK VINA RESULT:      -6.2      3.492      4.827
REMARK  Name = 
REMARK  2 active torsions:
REMARK  status: ('A' for Active; 'I' for Inactive)
REMARK    1  A    between atoms: N_2  and  C_4
REMARK    2  A    between atoms: C_13  and  C_14
REMARK                            x       y       z     vdW  Elec       q    Type
REMARK                         _______ _______ _______ _____ _____    ______ ____
ROOT
ATOM      1  C   UNL     1       5.387  -0.239  25.632  0.00  0.00    +0.274 A 
ATOM      2  C   UNL     1       5.233  -1.375  26.428  0.00  0.00    +0.086 A 
ATOM      3  C   UNL     1       5.960  -2.526  26.128  0.00  0.00    +0.030 A 
ATOM      4  C   UNL     1       6.828  -2.562  25.026  0.00  0.00    +0.043 A 
ATOM      5  N   UNL     1       7.445  -3.800  24.789  0.00  0.00    -0.283 N 
ATOM      6  H   UNL     1       7.458  -4.500  25.521  0.00  0.00    +0.155 HD
ATOM      7  C   UNL     1       7.842  -4.310  23.581  0.00  0.00    +0.239 C 
ATOM      8  C   UNL     1       7.558  -3.483  22.349  0.00  0.00    +0.238 C 
ATOM      9  N   UNL     1       8.358  -2.270  22.368  0.00  0.00    -0.273 NA
ATOM     10  C   UNL     1       8.085  -1.316  23.187  0.00  0.00    +0.077 C 
ATOM     11  O   UNL     1       8.304  -5.451  23.534  0.00  0.00    -0.273 OA
ATOM     12  C   UNL     1       7.024  -1.398  24.251  0.00  0.00    +0.028 A 
ATOM     13  C   UNL     1       6.278  -0.242  24.547  0.00  0.00    +0.096 A 
ENDROOT
BRANCH  10  14
ATOM     14  C   UNL     1       8.925  -0.068  23.073  0.00  0.00    +0.019 A 
ATOM     15  C   UNL     1       9.650   0.457  24.160  0.00  0.00    +0.050 A 
ATOM     16 CL   UNL     1       9.752  -0.298  25.714  0.00  0.00    -0.083 Cl
ATOM     17  C   UNL     1      10.398   1.633  24.004  0.00  0.00    +0.020 A 
ATOM     18  C   UNL     1      10.448   2.283  22.772  0.00  0.00    +0.001 A 
ATOM     19  C   UNL     1       9.733   1.775  21.692  0.00  0.00    +0.001 A 
ATOM     20  C   UNL     1       8.960   0.618  21.845  0.00  0.00    +0.011 A 
ENDBRANCH  10  14
BRANCH   1  22
ATOM     21  O   UNL     1       4.268   1.694  25.009  0.00  0.00    -0.576 OA
ATOM     22  N   UNL     1       4.627   0.977  25.953  0.00  0.00    +0.080 N 
ATOM     23  O   UNL     1       4.401   1.216  27.146  0.00  0.00    +0.041 OA
ENDBRANCH   1  22
TORSDOF 2
ENDMDL
MODEL 6
REMARK VINA RESULT:      -6.1      2.890      3.727
REMARK  Name = 
REMARK  2 active torsions:
REMARK  status: ('A' for Active; 'I' for Inactive)
REMARK    1  A    between atoms: N_2  and  C_4
REMARK    2  A    between atoms: C_13  and  C_14
REMARK                            x       y       z     vdW  Elec       q    Type
REMARK                         _______ _______ _______ _____ _____    ______ ____
ROOT
ATOM      1  C   UNL     1       5.396  -6.105  23.789  0.00  0.00    +0.274 A 
ATOM      2  C   UNL     1       4.315  -6.957  24.020  0.00  0.00    +0.086 A 
ATOM      3  C   UNL     1       3.867  -7.158  25.325  0.00  0.00    +0.030 A 
ATOM      4  C   UNL     1       4.502  -6.530  26.408  0.00  0.00    +0.043 A 
ATOM      5  N   UNL     1       4.003  -6.871  27.674  0.00  0.00    -0.283 N 
ATOM      6  H   UNL     1       3.094  -7.313  27.751  0.00  0.00    +0.155 HD
ATOM      7  C   UNL     1       4.696  -6.911  28.855  0.00  0.00    +0.239 C 
ATOM      8  C   UNL     1       6.173  -6.596  28.806  0.00  0.00    +0.238 C 
ATOM      9  N   UNL     1       6.373  -5.198  28.461  0.00  0.00    -0.273 NA
ATOM     10  C   UNL     1       6.147  -4.777  27.266  0.00  0.00    +0.077 C 
ATOM     11  O   UNL     1       4.126  -7.304  29.874  0.00  0.00    -0.273 OA
ATOM     12  C   UNL     1       5.562  -5.629  26.171  0.00  0.00    +0.028 A 
ATOM     13  C   UNL     1       6.022  -5.439  24.855  0.00  0.00    +0.096 A 
ENDROOT
BRANCH  10  14
ATOM     14  C   UNL     1       6.461  -3.328  26.990  0.00  0.00    +0.019 A 
ATOM     15  C   UNL     1       7.742  -2.894  26.596  0.00  0.00    +0.050 A 
ATOM     16 CL   UNL     1       9.073  -3.956  26.286  0.00  0.00    -0.083 Cl
ATOM     17  C   UNL     1       7.985  -1.531  26.374  0.00  0.00    +0.020 A 
ATOM     18  C   UNL     1       6.963  -0.596  26.521  0.00  0.00    +0.001 A 
ATOM     19  C   UNL     1       5.694  -1.013  26.913  0.00  0.00    +0.001 A 
ATOM     20  C   UNL     1       5.449  -2.367  27.165  0.00  0.00    +0.011 A 
ENDBRANCH  10  14
BRANCH   1  22
ATOM     21  O   UNL     1       5.285  -5.020  21.743  0.00  0.00    -0.576 OA
ATOM     22  N   UNL     1       5.863  -5.887  22.412  0.00  0.00    +0.080 N 
ATOM     23  O   UNL     1       6.796  -6.589  22.003  0.00  0.00    +0.041 OA
ENDBRANCH   1  22
TORSDOF 2
ENDMDL
MODEL 7
REMARK VINA RESULT:      -6.1      3.438      5.975
REMARK  Name = 
REMARK  2 active torsions:
REMARK  status: ('A' for Active; 'I' for Inactive)
REMARK    1  A    between atoms: N_2  and  C_4
REMARK    2  A    between atoms: C_13  and  C_14
REMARK                            x       y       z     vdW  Elec       q    Type
REMARK                         _______ _______ _______ _____ _____    ______ ____
ROOT
ATOM      1  C   UNL     1       5.464  -0.921  25.581  0.00  0.00    +0.274 A 
ATOM      2  C   UNL     1       5.400   0.437  25.265  0.00  0.00    +0.086 A 
ATOM      3  C   UNL     1       6.267   0.959  24.305  0.00  0.00    +0.030 A 
ATOM      4  C   UNL     1       7.213   0.140  23.669  0.00  0.00    +0.043 A 
ATOM      5  N   UNL     1       8.073   0.800  22.778  0.00  0.00    -0.283 N 
ATOM      6  H   UNL     1       7.830   1.723  22.440  0.00  0.00    +0.155 HD
ATOM      7  C   UNL     1       9.364   0.463  22.470  0.00  0.00    +0.239 C 
ATOM      8  C   UNL     1       9.964  -0.724  23.188  0.00  0.00    +0.238 C 
ATOM      9  N   UNL     1       9.295  -1.946  22.775  0.00  0.00    -0.273 NA
ATOM     10  C   UNL     1       8.093  -2.200  23.159  0.00  0.00    +0.077 C 
ATOM     11  O   UNL     1      10.013   1.192  21.719  0.00  0.00    -0.273 OA
ATOM     12  C   UNL     1       7.244  -1.243  23.951  0.00  0.00    +0.028 A 
ATOM     13  C   UNL     1       6.378  -1.764  24.930  0.00  0.00    +0.096 A 
ENDROOT
BRANCH  10  14
ATOM     14  C   UNL     1       7.518  -3.530  22.741  0.00  0.00    +0.019 A 
ATOM     15  C   UNL     1       7.899  -4.743  23.349  0.00  0.00    +0.050 A 
ATOM     16 CL   UNL     1       8.982  -4.856  24.695  0.00  0.00    -0.083 Cl
ATOM     17  C   UNL     1       7.349  -5.954  22.906  0.00  0.00    +0.020 A 
ATOM     18  C   UNL     1       6.409  -5.972  21.878  0.00  0.00    +0.001 A 
ATOM     19  C   UNL     1       6.028  -4.781  21.268  0.00  0.00    +0.001 A 
ATOM     20  C   UNL     1       6.592  -3.569  21.683  0.00  0.00    +0.011 A 
ENDBRANCH  10  14
BRANCH   1  22
ATOM     21  O   UNL     1       5.036  -2.143  27.505  0.00  0.00    -0.576 OA
ATOM     22  N   UNL     1       4.545  -1.473  26.587  0.00  0.00    +0.080 N 
ATOM     23  O   UNL     1       3.337  -1.243  26.449  0.00  0.00    +0.041 OA
ENDBRANCH   1  22
TORSDOF 2
ENDMDL
MODEL 8
REMARK VINA RESULT:      -6.1      3.298      4.443
REMARK  Name = 
REMARK  2 active torsions:
REMARK  status: ('A' for Active; 'I' for Inactive)
REMARK    1  A    between atoms: N_2  and  C_4
REMARK    2  A    between atoms: C_13  and  C_14
REMARK                            x       y       z     vdW  Elec       q    Type
REMARK                         _______ _______ _______ _____ _____    ______ ____
ROOT
ATOM      1  C   UNL     1       8.038  -3.672  25.191  0.00  0.00    +0.274 A 
ATOM      2  C   UNL     1       6.906  -4.134  25.863  0.00  0.00    +0.086 A 
ATOM      3  C   UNL     1       6.072  -3.221  26.508  0.00  0.00    +0.030 A 
ATOM      4  C   UNL     1       6.367  -1.849  26.504  0.00  0.00    +0.043 A 
ATOM      5  N   UNL     1       5.490  -1.046  27.248  0.00  0.00    -0.283 N 
ATOM      6  H   UNL     1       4.585  -1.412  27.521  0.00  0.00    +0.155 HD
ATOM      7  C   UNL     1       5.785   0.127  27.892  0.00  0.00    +0.239 C 
ATOM      8  C   UNL     1       7.217   0.608  27.842  0.00  0.00    +0.238 C 
ATOM      9  N   UNL     1       7.568   0.988  26.484  0.00  0.00    -0.273 NA
ATOM     10  C   UNL     1       7.736   0.094  25.574  0.00  0.00    +0.077 C 
ATOM     11  O   UNL     1       4.915   0.677  28.569  0.00  0.00    -0.273 OA
ATOM     12  C   UNL     1       7.483  -1.375  25.781  0.00  0.00    +0.028 A 
ATOM     13  C   UNL     1       8.332  -2.299  25.144  0.00  0.00    +0.096 A 
ENDROOT
BRANCH  10  14
ATOM     14  C   UNL     1       8.176   0.586  24.218  0.00  0.00    +0.019 A 
ATOM     15  C   UNL     1       9.530   0.796  23.892  0.00  0.00    +0.050 A 
ATOM     16 CL   UNL     1      10.850   0.429  24.950  0.00  0.00    -0.083 Cl
ATOM     17  C   UNL     1       9.882   1.276  22.623  0.00  0.00    +0.020 A 
ATOM     18  C   UNL     1       8.903   1.533  21.666  0.00  0.00    +0.001 A 
ATOM     19  C   UNL     1       7.562   1.332  21.977  0.00  0.00    +0.001 A 
ATOM     20  C   UNL     1       7.197   0.881  23.250  0.00  0.00    +0.011 A 
ENDBRANCH  10  14
BRANCH   1  22
ATOM     21  O   UNL     1      10.113  -4.637  24.814  0.00  0.00    -0.576 OA
ATOM     22  N   UNL     1       8.914  -4.633  24.504  0.00  0.00    +0.080 N 
ATOM     23  O   UNL     1       8.402  -5.370  23.653  0.00  0.00    +0.041 OA
ENDBRANCH   1  22
TORSDOF 2
ENDMDL
MODEL 9
REMARK VINA RESULT:      -6.0      3.158      6.060
REMARK  Name = 
REMARK  2 active torsions:
REMARK  status: ('A' for Active; 'I' for Inactive)
REMARK    1  A    between atoms: N_2  and  C_4
REMARK    2  A    between atoms: C_13  and  C_14
REMARK                            x       y       z     vdW  Elec       q    Type
REMARK                         _______ _______ _______ _____ _____    ______ ____
ROOT
ATOM      1  C   UNL     1       5.546  -0.478  25.739  0.00  0.00    +0.274 A 
ATOM      2  C   UNL     1       5.980   0.565  24.919  0.00  0.00    +0.086 A 
ATOM      3  C   UNL     1       6.972   0.324  23.969  0.00  0.00    +0.030 A 
ATOM      4  C   UNL     1       7.551  -0.949  23.841  0.00  0.00    +0.043 A 
ATOM      5  N   UNL     1       8.587  -1.043  22.900  0.00  0.00    -0.283 N 
ATOM      6  H   UNL     1       8.695  -0.317  22.201  0.00  0.00    +0.155 HD
ATOM      7  C   UNL     1       9.665  -1.887  22.936  0.00  0.00    +0.239 C 
ATOM      8  C   UNL     1       9.795  -2.799  24.134  0.00  0.00    +0.238 C 
ATOM      9  N   UNL     1       8.725  -3.782  24.130  0.00  0.00    -0.273 NA
ATOM     10  C   UNL     1       7.515  -3.437  24.404  0.00  0.00    +0.077 C 
ATOM     11  O   UNL     1      10.531  -1.794  22.065  0.00  0.00    -0.273 OA
ATOM     12  C   UNL     1       7.077  -2.016  24.634  0.00  0.00    +0.028 A 
ATOM     13  C   UNL     1       6.087  -1.767  25.602  0.00  0.00    +0.096 A 
ENDROOT
BRANCH  10  14
ATOM     14  C   UNL     1       6.493  -4.545  24.451  0.00  0.00    +0.019 A 
ATOM     15  C   UNL     1       6.295  -5.343  25.595  0.00  0.00    +0.050 A 
ATOM     16 CL   UNL     1       7.112  -5.099  27.101  0.00  0.00    -0.083 Cl
ATOM     17  C   UNL     1       5.345  -6.374  25.577  0.00  0.00    +0.020 A 
ATOM     18  C   UNL     1       4.576  -6.610  24.440  0.00  0.00    +0.001 A 
ATOM     19  C   UNL     1       4.765  -5.831  23.303  0.00  0.00    +0.001 A 
ATOM     20  C   UNL     1       5.730  -4.817  23.300  0.00  0.00    +0.011 A 
ENDBRANCH  10  14
BRANCH   1  22
ATOM     21  O   UNL     1       3.519   0.450  26.378  0.00  0.00    -0.576 OA
ATOM     22  N   UNL     1       4.495  -0.226  26.734  0.00  0.00    +0.080 N 
ATOM     23  O   UNL     1       4.653  -0.694  27.869  0.00  0.00    +0.041 OA
ENDBRANCH   1  22
TORSDOF 2
ENDMDL
