MODEL 1
REMARK VINA RESULT:      -5.8      0.000      0.000
REMARK  Name = 
REMARK  19 active torsions:
REMARK  status: ('A' for Active; 'I' for Inactive)
REMARK    1  A    between atoms: C_1  and  C_2
REMARK    2  A    between atoms: C_2  and  C_3
REMARK    3  A    between atoms: C_2  and  O_4
REMARK    4  A    between atoms: O_4  and  C_5
REMARK    5  A    between atoms: C_5  and  C_7
REMARK    6  A    between atoms: C_7  and  C_8
REMARK    7  A    between atoms: C_8  and  C_9
REMARK    8  A    between atoms: C_9  and  C_10
REMARK    9  A    between atoms: C_11  and  C_12
REMARK   10  A    between atoms: C_12  and  C_13
REMARK   11  A    between atoms: C_15  and  O_17
REMARK   12  A    between atoms: C_19  and  O_21
REMARK   13  A    between atoms: C_22  and  C_24
REMARK   14  A    between atoms: C_24  and  C_25
REMARK   15  A    between atoms: C_25  and  C_26
REMARK   16  A    between atoms: C_26  and  O_28
REMARK   17  A    between atoms: C_26  and  C_29
REMARK   18  A    between atoms: C_29  and  C_30
REMARK   19  A    between atoms: C_30  and  C_31
REMARK                            x       y       z     vdW  Elec       q    Type
REMARK                         _______ _______ _______ _____ _____    ______ ____
ROOT
ATOM      1  C   UNL     1       8.154   1.085  23.767  0.00  0.00    +0.027 C 
ATOM      2  C   UNL     1       9.692   1.265  23.673  0.00  0.00    +0.024 C 
ATOM      3  C   UNL     1       9.999   1.333  22.160  0.00  0.00    +0.120 C 
ATOM      4  C   UNL     1       8.674   1.128  21.433  0.00  0.00    +0.063 C 
ATOM      5  C   UNL     1       7.639   1.629  22.427  0.00  0.00    +0.121 C 
ENDROOT
BRANCH   5   6
ATOM      6  O   UNL     1       7.648   3.053  22.395  0.00  0.00    -0.391 OA
ATOM      7  H   UNL     1       7.315   3.364  23.257  0.00  0.00    +0.210 HD
ENDBRANCH   5   6
BRANCH   3   8
ATOM      8  O   UNL     1      10.529   2.622  21.858  0.00  0.00    -0.391 OA
ATOM      9  H   UNL     1       9.763   3.196  21.652  0.00  0.00    +0.210 HD
ENDBRANCH   3   8
BRANCH   2  10
ATOM     10  C   UNL     1      10.458   0.127  24.380  0.00  0.00    +0.009 C 
BRANCH  10  11
ATOM     11  C   UNL     1       9.605  -1.145  24.447  0.00  0.00    +0.032 C 
BRANCH  11  12
ATOM     12  C   UNL     1       9.977  -2.237  23.438  0.00  0.00    +0.115 C 
BRANCH  12  13
ATOM     13  O   UNL     1      10.086  -3.497  24.101  0.00  0.00    -0.392 OA
ATOM     14  H   UNL     1       9.218  -3.932  24.064  0.00  0.00    +0.210 HD
ENDBRANCH  12  13
BRANCH  12  15
ATOM     15  C   UNL     1       8.895  -2.391  22.355  0.00  0.00    +0.036 C 
BRANCH  15  16
ATOM     16  C   UNL     1       7.479  -2.156  22.884  0.00  0.00    +0.037 C 
BRANCH  16  17
ATOM     17  C   UNL     1       6.621  -3.393  22.811  0.00  0.00    -0.047 A 
ATOM     18  C   UNL     1       5.257  -3.334  23.112  0.00  0.00    +0.003 A 
ATOM     19  C   UNL     1       4.474  -4.488  23.061  0.00  0.00    +0.000 A 
ATOM     20  C   UNL     1       5.049  -5.707  22.703  0.00  0.00    +0.000 A 
ATOM     21  C   UNL     1       6.405  -5.774  22.390  0.00  0.00    +0.000 A 
ATOM     22  C   UNL     1       7.188  -4.621  22.441  0.00  0.00    +0.003 A 
ENDBRANCH  16  17
ENDBRANCH  15  16
ENDBRANCH  12  15
ENDBRANCH  11  12
ENDBRANCH  10  11
ENDBRANCH   2  10
BRANCH   1  23
ATOM     23  C   UNL     1       7.576   1.783  25.003  0.00  0.00    +0.033 C 
BRANCH  23  25
ATOM     24  C   UNL     1       5.884   0.243  26.106  0.00  0.00    -0.031 C 
ATOM     25  C   UNL     1       6.191   1.311  25.353  0.00  0.00    -0.031 C 
BRANCH  24  26
ATOM     26  C   UNL     1       6.863  -0.728  26.704  0.00  0.00    +0.027 C 
BRANCH  26  27
ATOM     27  C   UNL     1       6.536  -2.187  26.403  0.00  0.00    +0.015 C 
BRANCH  27  28
ATOM     28  C   UNL     1       7.688  -3.152  26.696  0.00  0.00    +0.121 C 
BRANCH  28  29
ATOM     29  C   UNL     1       7.381  -4.513  26.125  0.00  0.00    +0.307 C 
ATOM     30  O   UNL     1       8.212  -5.289  25.671  0.00  0.00    -0.251 OA
BRANCH  29  31
ATOM     31  O   UNL     1       6.041  -4.762  26.202  0.00  0.00    -0.462 OA
BRANCH  31  33
ATOM     32  C   UNL     1       5.843  -6.045  28.243  0.00  0.00    +0.052 C 
ATOM     33  C   UNL     1       5.695  -6.058  26.725  0.00  0.00    +0.170 C 
ATOM     34  C   UNL     1       4.257  -6.355  26.325  0.00  0.00    +0.052 C 
ENDBRANCH  31  33
ENDBRANCH  29  31
ENDBRANCH  28  29
ENDBRANCH  27  28
ENDBRANCH  26  27
ENDBRANCH  24  26
ENDBRANCH  23  25
ENDBRANCH   1  23
TORSDOF 17
ENDMDL
MODEL 2
REMARK VINA RESULT:      -5.8      1.901      4.843
REMARK  Name = 
REMARK  19 active torsions:
REMARK  status: ('A' for Active; 'I' for Inactive)
REMARK    1  A    between atoms: C_1  and  C_2
REMARK    2  A    between atoms: C_2  and  C_3
REMARK    3  A    between atoms: C_2  and  O_4
REMARK    4  A    between atoms: O_4  and  C_5
REMARK    5  A    between atoms: C_5  and  C_7
REMARK    6  A    between atoms: C_7  and  C_8
REMARK    7  A    between atoms: C_8  and  C_9
REMARK    8  A    between atoms: C_9  and  C_10
REMARK    9  A    between atoms: C_11  and  C_12
REMARK   10  A    between atoms: C_12  and  C_13
REMARK   11  A    between atoms: C_15  and  O_17
REMARK   12  A    between atoms: C_19  and  O_21
REMARK   13  A    between atoms: C_22  and  C_24
REMARK   14  A    between atoms: C_24  and  C_25
REMARK   15  A    between atoms: C_25  and  C_26
REMARK   16  A    between atoms: C_26  and  O_28
REMARK   17  A    between atoms: C_26  and  C_29
REMARK   18  A    between atoms: C_29  and  C_30
REMARK   19  A    between atoms: C_30  and  C_31
REMARK                            x       y       z     vdW  Elec       q    Type
REMARK                         _______ _______ _______ _____ _____    ______ ____
ROOT
ATOM      1  C   UNL     1       7.133   1.082  25.239  0.00  0.00    +0.027 C 
ATOM      2  C   UNL     1       6.193   2.316  25.218  0.00  0.00    +0.024 C 
ATOM      3  C   UNL     1       5.698   2.420  23.758  0.00  0.00    +0.120 C 
ATOM      4  C   UNL     1       6.399   1.314  22.975  0.00  0.00    +0.063 C 
ATOM      5  C   UNL     1       6.681   0.255  24.028  0.00  0.00    +0.121 C 
ENDROOT
BRANCH   5   6
ATOM      6  O   UNL     1       5.467  -0.445  24.288  0.00  0.00    -0.391 OA
ATOM      7  H   UNL     1       4.968  -0.477  23.452  0.00  0.00    +0.210 HD
ENDBRANCH   5   6
BRANCH   3   8
ATOM      8  O   UNL     1       4.287   2.216  23.737  0.00  0.00    -0.391 OA
ATOM      9  H   UNL     1       4.049   1.834  24.607  0.00  0.00    +0.210 HD
ENDBRANCH   3   8
BRANCH   2  10
ATOM     10  C   UNL     1       6.902   3.600  25.694  0.00  0.00    +0.009 C 
BRANCH  10  11
ATOM     11  C   UNL     1       8.400   3.548  25.370  0.00  0.00    +0.032 C 
BRANCH  11  12
ATOM     12  C   UNL     1       8.840   4.394  24.171  0.00  0.00    +0.115 C 
BRANCH  12  13
ATOM     13  O   UNL     1       9.755   5.405  24.596  0.00  0.00    -0.392 OA
ATOM     14  H   UNL     1      10.435   4.983  25.146  0.00  0.00    +0.210 HD
ENDBRANCH  12  13
BRANCH  12  15
ATOM     15  C   UNL     1       9.572   3.540  23.121  0.00  0.00    +0.036 C 
BRANCH  15  16
ATOM     16  C   UNL     1      10.467   2.465  23.740  0.00  0.00    +0.037 C 
BRANCH  16  17
ATOM     17  C   UNL     1      10.203   1.094  23.173  0.00  0.00    -0.047 A 
ATOM     18  C   UNL     1       9.760   0.939  21.856  0.00  0.00    +0.003 A 
ATOM     19  C   UNL     1       9.499  -0.333  21.347  0.00  0.00    +0.000 A 
ATOM     20  C   UNL     1       9.684  -1.459  22.148  0.00  0.00    +0.000 A 
ATOM     21  C   UNL     1      10.136  -1.316  23.459  0.00  0.00    +0.000 A 
ATOM     22  C   UNL     1      10.397  -0.045  23.969  0.00  0.00    +0.003 A 
ENDBRANCH  16  17
ENDBRANCH  15  16
ENDBRANCH  12  15
ENDBRANCH  11  12
ENDBRANCH  10  11
ENDBRANCH   2  10
BRANCH   1  23
ATOM     23  C   UNL     1       7.065   0.341  26.580  0.00  0.00    +0.033 C 
BRANCH  23  25
ATOM     24  C   UNL     1       8.486  -1.760  26.713  0.00  0.00    -0.031 C 
ATOM     25  C   UNL     1       8.314  -0.440  26.886  0.00  0.00    -0.031 C 
BRANCH  24  26
ATOM     26  C   UNL     1       7.446  -2.732  26.230  0.00  0.00    +0.027 C 
BRANCH  26  27
ATOM     27  C   UNL     1       7.694  -4.166  26.686  0.00  0.00    +0.015 C 
BRANCH  27  28
ATOM     28  C   UNL     1       7.603  -5.197  25.557  0.00  0.00    +0.121 C 
BRANCH  28  29
ATOM     29  C   UNL     1       8.737  -4.998  24.584  0.00  0.00    +0.307 C 
ATOM     30  O   UNL     1       9.899  -4.767  24.896  0.00  0.00    -0.251 OA
BRANCH  29  31
ATOM     31  O   UNL     1       8.285  -5.127  23.303  0.00  0.00    -0.462 OA
BRANCH  31  33
ATOM     32  C   UNL     1       6.612  -3.551  22.551  0.00  0.00    +0.052 C 
ATOM     33  C   UNL     1       6.868  -4.935  23.138  0.00  0.00    +0.170 C 
ATOM     34  C   UNL     1       6.354  -6.022  22.204  0.00  0.00    +0.052 C 
ENDBRANCH  31  33
ENDBRANCH  29  31
ENDBRANCH  28  29
ENDBRANCH  27  28
ENDBRANCH  26  27
ENDBRANCH  24  26
ENDBRANCH  23  25
ENDBRANCH   1  23
TORSDOF 17
ENDMDL
MODEL 3
REMARK VINA RESULT:      -5.7      1.618      6.410
REMARK  Name = 
REMARK  19 active torsions:
REMARK  status: ('A' for Active; 'I' for Inactive)
REMARK    1  A    between atoms: C_1  and  C_2
REMARK    2  A    between atoms: C_2  and  C_3
REMARK    3  A    between atoms: C_2  and  O_4
REMARK    4  A    between atoms: O_4  and  C_5
REMARK    5  A    between atoms: C_5  and  C_7
REMARK    6  A    between atoms: C_7  and  C_8
REMARK    7  A    between atoms: C_8  and  C_9
REMARK    8  A    between atoms: C_9  and  C_10
REMARK    9  A    between atoms: C_11  and  C_12
REMARK   10  A    between atoms: C_12  and  C_13
REMARK   11  A    between atoms: C_15  and  O_17
REMARK   12  A    between atoms: C_19  and  O_21
REMARK   13  A    between atoms: C_22  and  C_24
REMARK   14  A    between atoms: C_24  and  C_25
REMARK   15  A    between atoms: C_25  and  C_26
REMARK   16  A    between atoms: C_26  and  O_28
REMARK   17  A    between atoms: C_26  and  C_29
REMARK   18  A    between atoms: C_29  and  C_30
REMARK   19  A    between atoms: C_30  and  C_31
REMARK                            x       y       z     vdW  Elec       q    Type
REMARK                         _______ _______ _______ _____ _____    ______ ____
ROOT
ATOM      1  C   UNL     1       7.762  -2.959  24.938  0.00  0.00    +0.027 C 
ATOM      2  C   UNL     1       7.896  -3.607  26.341  0.00  0.00    +0.024 C 
ATOM      3  C   UNL     1       8.473  -5.016  26.081  0.00  0.00    +0.120 C 
ATOM      4  C   UNL     1       8.593  -5.170  24.568  0.00  0.00    +0.063 C 
ATOM      5  C   UNL     1       8.761  -3.742  24.075  0.00  0.00    +0.121 C 
ENDROOT
BRANCH   5   6
ATOM      6  O   UNL     1      10.105  -3.343  24.326  0.00  0.00    -0.391 OA
ATOM      7  H   UNL     1      10.445  -2.940  23.506  0.00  0.00    +0.210 HD
ENDBRANCH   5   6
BRANCH   3   8
ATOM      8  O   UNL     1       9.762  -5.101  26.685  0.00  0.00    -0.391 OA
ATOM      9  H   UNL     1      10.272  -5.752  26.160  0.00  0.00    +0.210 HD
ENDBRANCH   3   8
BRANCH   2  10
ATOM     10  C   UNL     1       6.551  -3.649  27.095  0.00  0.00    +0.009 C 
BRANCH  10  11
ATOM     11  C   UNL     1       6.272  -5.057  27.634  0.00  0.00    +0.032 C 
BRANCH  11  12
ATOM     12  C   UNL     1       4.939  -5.674  27.197  0.00  0.00    +0.115 C 
BRANCH  12  13
ATOM     13  O   UNL     1       3.976  -4.644  26.969  0.00  0.00    -0.392 OA
ATOM     14  H   UNL     1       3.690  -4.700  26.042  0.00  0.00    +0.210 HD
ENDBRANCH  12  13
BRANCH  12  15
ATOM     15  C   UNL     1       5.086  -6.451  25.877  0.00  0.00    +0.036 C 
BRANCH  15  16
ATOM     16  C   UNL     1       4.126  -5.970  24.787  0.00  0.00    +0.037 C 
BRANCH  16  17
ATOM     17  C   UNL     1       4.842  -5.345  23.618  0.00  0.00    -0.047 A 
ATOM     18  C   UNL     1       5.634  -6.122  22.768  0.00  0.00    +0.003 A 
ATOM     19  C   UNL     1       6.309  -5.531  21.700  0.00  0.00    +0.000 A 
ATOM     20  C   UNL     1       6.194  -4.160  21.472  0.00  0.00    +0.000 A 
ATOM     21  C   UNL     1       5.398  -3.379  22.308  0.00  0.00    +0.000 A 
ATOM     22  C   UNL     1       4.722  -3.969  23.376  0.00  0.00    +0.003 A 
ENDBRANCH  16  17
ENDBRANCH  15  16
ENDBRANCH  12  15
ENDBRANCH  11  12
ENDBRANCH  10  11
ENDBRANCH   2  10
BRANCH   1  23
ATOM     23  C   UNL     1       8.011  -1.446  24.986  0.00  0.00    +0.033 C 
BRANCH  23  25
ATOM     24  C   UNL     1       7.512  -0.376  22.737  0.00  0.00    -0.031 C 
ATOM     25  C   UNL     1       7.172  -0.679  24.000  0.00  0.00    -0.031 C 
BRANCH  24  26
ATOM     26  C   UNL     1       8.822  -0.695  22.073  0.00  0.00    +0.027 C 
BRANCH  26  27
ATOM     27  C   UNL     1       9.789   0.485  22.034  0.00  0.00    +0.015 C 
BRANCH  27  28
ATOM     28  C   UNL     1      10.540   0.711  23.349  0.00  0.00    +0.121 C 
BRANCH  28  29
ATOM     29  C   UNL     1      10.349   2.131  23.816  0.00  0.00    +0.307 C 
ATOM     30  O   UNL     1      11.080   3.070  23.530  0.00  0.00    -0.251 OA
BRANCH  29  31
ATOM     31  O   UNL     1       9.231   2.223  24.593  0.00  0.00    -0.462 OA
BRANCH  31  33
ATOM     32  C   UNL     1       7.426   3.220  23.329  0.00  0.00    +0.052 C 
ATOM     33  C   UNL     1       8.470   3.432  24.420  0.00  0.00    +0.170 C 
ATOM     34  C   UNL     1       7.804   3.761  25.749  0.00  0.00    +0.052 C 
ENDBRANCH  31  33
ENDBRANCH  29  31
ENDBRANCH  28  29
ENDBRANCH  27  28
ENDBRANCH  26  27
ENDBRANCH  24  26
ENDBRANCH  23  25
ENDBRANCH   1  23
TORSDOF 17
ENDMDL
MODEL 4
REMARK VINA RESULT:      -5.7      2.130      7.467
REMARK  Name = 
REMARK  19 active torsions:
REMARK  status: ('A' for Active; 'I' for Inactive)
REMARK    1  A    between atoms: C_1  and  C_2
REMARK    2  A    between atoms: C_2  and  C_3
REMARK    3  A    between atoms: C_2  and  O_4
REMARK    4  A    between atoms: O_4  and  C_5
REMARK    5  A    between atoms: C_5  and  C_7
REMARK    6  A    between atoms: C_7  and  C_8
REMARK    7  A    between atoms: C_8  and  C_9
REMARK    8  A    between atoms: C_9  and  C_10
REMARK    9  A    between atoms: C_11  and  C_12
REMARK   10  A    between atoms: C_12  and  C_13
REMARK   11  A    between atoms: C_15  and  O_17
REMARK   12  A    between atoms: C_19  and  O_21
REMARK   13  A    between atoms: C_22  and  C_24
REMARK   14  A    between atoms: C_24  and  C_25
REMARK   15  A    between atoms: C_25  and  C_26
REMARK   16  A    between atoms: C_26  and  O_28
REMARK   17  A    between atoms: C_26  and  C_29
REMARK   18  A    between atoms: C_29  and  C_30
REMARK   19  A    between atoms: C_30  and  C_31
REMARK                            x       y       z     vdW  Elec       q    Type
REMARK                         _______ _______ _______ _____ _____    ______ ____
ROOT
ATOM      1  C   UNL     1       5.449  -4.317  24.949  0.00  0.00    +0.027 C 
ATOM      2  C   UNL     1       5.988  -4.855  23.598  0.00  0.00    +0.024 C 
ATOM      3  C   UNL     1       5.246  -6.191  23.371  0.00  0.00    +0.120 C 
ATOM      4  C   UNL     1       4.367  -6.420  24.597  0.00  0.00    +0.063 C 
ATOM      5  C   UNL     1       4.091  -5.016  25.106  0.00  0.00    +0.121 C 
ENDROOT
BRANCH   5   6
ATOM      6  O   UNL     1       3.094  -4.431  24.273  0.00  0.00    -0.391 OA
ATOM      7  H   UNL     1       2.975  -3.509  24.567  0.00  0.00    +0.210 HD
ENDBRANCH   5   6
BRANCH   3   8
ATOM      8  O   UNL     1       4.436  -6.072  22.203  0.00  0.00    -0.391 OA
ATOM      9  H   UNL     1       4.804  -6.696  21.545  0.00  0.00    +0.210 HD
ENDBRANCH   3   8
BRANCH   2  10
ATOM     10  C   UNL     1       7.522  -5.026  23.608  0.00  0.00    +0.009 C 
BRANCH  10  11
ATOM     11  C   UNL     1       8.036  -5.252  25.034  0.00  0.00    +0.032 C 
BRANCH  11  12
ATOM     12  C   UNL     1       9.249  -4.406  25.435  0.00  0.00    +0.115 C 
BRANCH  12  13
ATOM     13  O   UNL     1      10.432  -4.934  24.834  0.00  0.00    -0.392 OA
ATOM     14  H   UNL     1      11.134  -4.267  24.915  0.00  0.00    +0.210 HD
ENDBRANCH  12  13
BRANCH  12  15
ATOM     15  C   UNL     1       9.106  -2.954  24.946  0.00  0.00    +0.036 C 
BRANCH  15  16
ATOM     16  C   UNL     1      10.039  -2.619  23.780  0.00  0.00    +0.037 C 
BRANCH  16  17
ATOM     17  C   UNL     1      10.082  -1.144  23.478  0.00  0.00    -0.047 A 
ATOM     18  C   UNL     1      10.337  -0.216  24.492  0.00  0.00    +0.003 A 
ATOM     19  C   UNL     1      10.356   1.150  24.208  0.00  0.00    +0.000 A 
ATOM     20  C   UNL     1      10.126   1.597  22.907  0.00  0.00    +0.000 A 
ATOM     21  C   UNL     1       9.882   0.678  21.887  0.00  0.00    +0.000 A 
ATOM     22  C   UNL     1       9.863  -0.687  22.171  0.00  0.00    +0.003 A 
ENDBRANCH  16  17
ENDBRANCH  15  16
ENDBRANCH  12  15
ENDBRANCH  11  12
ENDBRANCH  10  11
ENDBRANCH   2  10
BRANCH   1  23
ATOM     23  C   UNL     1       5.382  -2.785  24.962  0.00  0.00    +0.033 C 
BRANCH  23  25
ATOM     24  C   UNL     1       6.394  -0.969  23.503  0.00  0.00    -0.031 C 
ATOM     25  C   UNL     1       5.805  -2.165  23.657  0.00  0.00    -0.031 C 
BRANCH  24  26
ATOM     26  C   UNL     1       6.701   0.015  24.597  0.00  0.00    +0.027 C 
BRANCH  26  27
ATOM     27  C   UNL     1       6.578   1.471  24.159  0.00  0.00    +0.015 C 
BRANCH  27  28
ATOM     28  C   UNL     1       6.515   1.656  22.641  0.00  0.00    +0.121 C 
BRANCH  28  29
ATOM     29  C   UNL     1       6.140   3.077  22.308  0.00  0.00    +0.307 C 
ATOM     30  O   UNL     1       4.995   3.512  22.274  0.00  0.00    -0.251 OA
BRANCH  29  31
ATOM     31  O   UNL     1       7.262   3.815  22.066  0.00  0.00    -0.462 OA
BRANCH  31  33
ATOM     32  C   UNL     1       8.708   4.950  23.638  0.00  0.00    +0.052 C 
ATOM     33  C   UNL     1       7.392   5.002  22.869  0.00  0.00    +0.170 C 
ATOM     34  C   UNL     1       7.358   6.205  21.937  0.00  0.00    +0.052 C 
ENDBRANCH  31  33
ENDBRANCH  29  31
ENDBRANCH  28  29
ENDBRANCH  27  28
ENDBRANCH  26  27
ENDBRANCH  24  26
ENDBRANCH  23  25
ENDBRANCH   1  23
TORSDOF 17
ENDMDL
MODEL 5
REMARK VINA RESULT:      -5.6      2.090      7.265
REMARK  Name = 
REMARK  19 active torsions:
REMARK  status: ('A' for Active; 'I' for Inactive)
REMARK    1  A    between atoms: C_1  and  C_2
REMARK    2  A    between atoms: C_2  and  C_3
REMARK    3  A    between atoms: C_2  and  O_4
REMARK    4  A    between atoms: O_4  and  C_5
REMARK    5  A    between atoms: C_5  and  C_7
REMARK    6  A    between atoms: C_7  and  C_8
REMARK    7  A    between atoms: C_8  and  C_9
REMARK    8  A    between atoms: C_9  and  C_10
REMARK    9  A    between atoms: C_11  and  C_12
REMARK   10  A    between atoms: C_12  and  C_13
REMARK   11  A    between atoms: C_15  and  O_17
REMARK   12  A    between atoms: C_19  and  O_21
REMARK   13  A    between atoms: C_22  and  C_24
REMARK   14  A    between atoms: C_24  and  C_25
REMARK   15  A    between atoms: C_25  and  C_26
REMARK   16  A    between atoms: C_26  and  O_28
REMARK   17  A    between atoms: C_26  and  C_29
REMARK   18  A    between atoms: C_29  and  C_30
REMARK   19  A    between atoms: C_30  and  C_31
REMARK                            x       y       z     vdW  Elec       q    Type
REMARK                         _______ _______ _______ _____ _____    ______ ____
ROOT
ATOM      1  C   UNL     1       7.087  -3.548  22.920  0.00  0.00    +0.027 C 
ATOM      2  C   UNL     1       7.298  -5.072  22.722  0.00  0.00    +0.024 C 
ATOM      3  C   UNL     1       5.894  -5.698  22.879  0.00  0.00    +0.120 C 
ATOM      4  C   UNL     1       4.940  -4.557  23.223  0.00  0.00    +0.063 C 
ATOM      5  C   UNL     1       5.601  -3.339  22.599  0.00  0.00    +0.121 C 
ENDROOT
BRANCH   5   6
ATOM      6  O   UNL     1       5.352  -3.370  21.196  0.00  0.00    -0.391 OA
ATOM      7  H   UNL     1       4.857  -4.188  21.009  0.00  0.00    +0.210 HD
ENDBRANCH   5   6
BRANCH   3   8
ATOM      8  O   UNL     1       5.518  -6.294  21.640  0.00  0.00    -0.391 OA
ATOM      9  H   UNL     1       5.400  -7.250  21.816  0.00  0.00    +0.210 HD
ENDBRANCH   3   8
BRANCH   2  10
ATOM     10  C   UNL     1       8.319  -5.655  23.721  0.00  0.00    +0.009 C 
BRANCH  10  11
ATOM     11  C   UNL     1       8.474  -4.739  24.940  0.00  0.00    +0.032 C 
BRANCH  11  12
ATOM     12  C   UNL     1       7.461  -4.972  26.067  0.00  0.00    +0.115 C 
BRANCH  12  13
ATOM     13  O   UNL     1       8.048  -5.774  27.092  0.00  0.00    -0.392 OA
ATOM     14  H   UNL     1       8.499  -6.522  26.667  0.00  0.00    +0.210 HD
ENDBRANCH  12  13
BRANCH  12  15
ATOM     15  C   UNL     1       7.036  -3.646  26.721  0.00  0.00    +0.036 C 
BRANCH  15  16
ATOM     16  C   UNL     1       8.147  -2.594  26.722  0.00  0.00    +0.037 C 
BRANCH  16  17
ATOM     17  C   UNL     1       7.734  -1.316  26.040  0.00  0.00    -0.047 A 
ATOM     18  C   UNL     1       8.583  -0.205  26.031  0.00  0.00    +0.003 A 
ATOM     19  C   UNL     1       8.184   0.981  25.415  0.00  0.00    +0.000 A 
ATOM     20  C   UNL     1       6.936   1.063  24.798  0.00  0.00    +0.000 A 
ATOM     21  C   UNL     1       6.087  -0.043  24.791  0.00  0.00    +0.000 A 
ATOM     22  C   UNL     1       6.485  -1.228  25.408  0.00  0.00    +0.003 A 
ENDBRANCH  16  17
ENDBRANCH  15  16
ENDBRANCH  12  15
ENDBRANCH  11  12
ENDBRANCH  10  11
ENDBRANCH   2  10
BRANCH   1  23
ATOM     23  C   UNL     1       8.048  -2.726  22.054  0.00  0.00    +0.033 C 
BRANCH  23  25
ATOM     24  C   UNL     1       9.734  -0.915  22.630  0.00  0.00    -0.031 C 
ATOM     25  C   UNL     1       9.178  -2.118  22.841  0.00  0.00    -0.031 C 
BRANCH  24  26
ATOM     26  C   UNL     1       9.376   0.044  21.529  0.00  0.00    +0.027 C 
BRANCH  26  27
ATOM     27  C   UNL     1       9.418   1.508  21.958  0.00  0.00    +0.015 C 
BRANCH  27  28
ATOM     28  C   UNL     1      10.657   1.874  22.781  0.00  0.00    +0.121 C 
BRANCH  28  29
ATOM     29  C   UNL     1      10.545   3.291  23.281  0.00  0.00    +0.307 C 
ATOM     30  O   UNL     1      11.490   4.044  23.479  0.00  0.00    -0.251 OA
BRANCH  29  31
ATOM     31  O   UNL     1       9.234   3.620  23.467  0.00  0.00    -0.462 OA
BRANCH  31  33
ATOM     32  C   UNL     1       8.119   5.732  23.084  0.00  0.00    +0.052 C 
ATOM     33  C   UNL     1       9.010   4.928  24.025  0.00  0.00    +0.170 C 
ATOM     34  C   UNL     1       8.344   4.752  25.382  0.00  0.00    +0.052 C 
ENDBRANCH  31  33
ENDBRANCH  29  31
ENDBRANCH  28  29
ENDBRANCH  27  28
ENDBRANCH  26  27
ENDBRANCH  24  26
ENDBRANCH  23  25
ENDBRANCH   1  23
TORSDOF 17
ENDMDL
MODEL 6
REMARK VINA RESULT:      -5.6      1.704      5.951
REMARK  Name = 
REMARK  19 active torsions:
REMARK  status: ('A' for Active; 'I' for Inactive)
REMARK    1  A    between atoms: C_1  and  C_2
REMARK    2  A    between atoms: C_2  and  C_3
REMARK    3  A    between atoms: C_2  and  O_4
REMARK    4  A    between atoms: O_4  and  C_5
REMARK    5  A    between atoms: C_5  and  C_7
REMARK    6  A    between atoms: C_7  and  C_8
REMARK    7  A    between atoms: C_8  and  C_9
REMARK    8  A    between atoms: C_9  and  C_10
REMARK    9  A    between atoms: C_11  and  C_12
REMARK   10  A    between atoms: C_12  and  C_13
REMARK   11  A    between atoms: C_15  and  O_17
REMARK   12  A    between atoms: C_19  and  O_21
REMARK   13  A    between atoms: C_22  and  C_24
REMARK   14  A    between atoms: C_24  and  C_25
REMARK   15  A    between atoms: C_25  and  C_26
REMARK   16  A    between atoms: C_26  and  O_28
REMARK   17  A    between atoms: C_26  and  C_29
REMARK   18  A    between atoms: C_29  and  C_30
REMARK   19  A    between atoms: C_30  and  C_31
REMARK                            x       y       z     vdW  Elec       q    Type
REMARK                         _______ _______ _______ _____ _____    ______ ____
ROOT
ATOM      1  C   UNL     1       8.122  -2.981  24.426  0.00  0.00    +0.027 C 
ATOM      2  C   UNL     1       7.960  -2.928  25.968  0.00  0.00    +0.024 C 
ATOM      3  C   UNL     1       7.967  -4.404  26.426  0.00  0.00    +0.120 C 
ATOM      4  C   UNL     1       8.061  -5.256  25.163  0.00  0.00    +0.063 C 
ATOM      5  C   UNL     1       8.772  -4.348  24.173  0.00  0.00    +0.121 C 
ENDROOT
BRANCH   5   6
ATOM      6  O   UNL     1      10.160  -4.343  24.496  0.00  0.00    -0.391 OA
ATOM      7  H   UNL     1      10.402  -5.253  24.748  0.00  0.00    +0.210 HD
ENDBRANCH   5   6
BRANCH   3   8
ATOM      8  O   UNL     1       9.109  -4.622  27.251  0.00  0.00    -0.391 OA
ATOM      9  H   UNL     1       9.061  -3.962  27.973  0.00  0.00    +0.210 HD
ENDBRANCH   3   8
BRANCH   2  10
ATOM     10  C   UNL     1       6.679  -2.183  26.396  0.00  0.00    +0.009 C 
BRANCH  10  11
ATOM     11  C   UNL     1       5.535  -3.170  26.658  0.00  0.00    +0.032 C 
BRANCH  11  12
ATOM     12  C   UNL     1       4.130  -2.640  26.352  0.00  0.00    +0.115 C 
BRANCH  12  13
ATOM     13  O   UNL     1       4.185  -1.240  26.081  0.00  0.00    -0.392 OA
ATOM     14  H   UNL     1       4.110  -1.116  25.120  0.00  0.00    +0.210 HD
ENDBRANCH  12  13
BRANCH  12  15
ATOM     15  C   UNL     1       3.536  -3.316  25.104  0.00  0.00    +0.036 C 
BRANCH  15  16
ATOM     16  C   UNL     1       4.142  -4.693  24.821  0.00  0.00    +0.037 C 
BRANCH  16  17
ATOM     17  C   UNL     1       4.923  -4.728  23.533  0.00  0.00    -0.047 A 
ATOM     18  C   UNL     1       5.201  -3.549  22.835  0.00  0.00    +0.003 A 
ATOM     19  C   UNL     1       5.908  -3.594  21.633  0.00  0.00    +0.000 A 
ATOM     20  C   UNL     1       6.346  -4.816  21.124  0.00  0.00    +0.000 A 
ATOM     21  C   UNL     1       6.082  -5.996  21.818  0.00  0.00    +0.000 A 
ATOM     22  C   UNL     1       5.376  -5.952  23.020  0.00  0.00    +0.003 A 
ENDBRANCH  16  17
ENDBRANCH  15  16
ENDBRANCH  12  15
ENDBRANCH  11  12
ENDBRANCH  10  11
ENDBRANCH   2  10
BRANCH   1  23
ATOM     23  C   UNL     1       8.925  -1.786  23.899  0.00  0.00    +0.033 C 
BRANCH  23  25
ATOM     24  C   UNL     1       9.221  -0.862  21.552  0.00  0.00    -0.031 C 
ATOM     25  C   UNL     1       9.224  -1.880  22.427  0.00  0.00    -0.031 C 
BRANCH  24  26
ATOM     26  C   UNL     1       8.863   0.566  21.856  0.00  0.00    +0.027 C 
BRANCH  26  27
ATOM     27  C   UNL     1      10.074   1.486  21.974  0.00  0.00    +0.015 C 
BRANCH  27  28
ATOM     28  C   UNL     1       9.948   2.533  23.085  0.00  0.00    +0.121 C 
BRANCH  28  29
ATOM     29  C   UNL     1       9.677   1.856  24.404  0.00  0.00    +0.307 C 
ATOM     30  O   UNL     1      10.413   1.034  24.937  0.00  0.00    -0.251 OA
BRANCH  29  31
ATOM     31  O   UNL     1       8.499   2.302  24.928  0.00  0.00    -0.462 OA
BRANCH  31  33
ATOM     32  C   UNL     1       7.114   1.741  26.829  0.00  0.00    +0.052 C 
ATOM     33  C   UNL     1       7.654   1.277  25.480  0.00  0.00    +0.170 C 
ATOM     34  C   UNL     1       6.517   1.028  24.500  0.00  0.00    +0.052 C 
ENDBRANCH  31  33
ENDBRANCH  29  31
ENDBRANCH  28  29
ENDBRANCH  27  28
ENDBRANCH  26  27
ENDBRANCH  24  26
ENDBRANCH  23  25
ENDBRANCH   1  23
TORSDOF 17
ENDMDL
MODEL 7
REMARK VINA RESULT:      -5.5      2.327      5.213
REMARK  Name = 
REMARK  19 active torsions:
REMARK  status: ('A' for Active; 'I' for Inactive)
REMARK    1  A    between atoms: C_1  and  C_2
REMARK    2  A    between atoms: C_2  and  C_3
REMARK    3  A    between atoms: C_2  and  O_4
REMARK    4  A    between atoms: O_4  and  C_5
REMARK    5  A    between atoms: C_5  and  C_7
REMARK    6  A    between atoms: C_7  and  C_8
REMARK    7  A    between atoms: C_8  and  C_9
REMARK    8  A    between atoms: C_9  and  C_10
REMARK    9  A    between atoms: C_11  and  C_12
REMARK   10  A    between atoms: C_12  and  C_13
REMARK   11  A    between atoms: C_15  and  O_17
REMARK   12  A    between atoms: C_19  and  O_21
REMARK   13  A    between atoms: C_22  and  C_24
REMARK   14  A    between atoms: C_24  and  C_25
REMARK   15  A    between atoms: C_25  and  C_26
REMARK   16  A    between atoms: C_26  and  O_28
REMARK   17  A    between atoms: C_26  and  C_29
REMARK   18  A    between atoms: C_29  and  C_30
REMARK   19  A    between atoms: C_30  and  C_31
REMARK                            x       y       z     vdW  Elec       q    Type
REMARK                         _______ _______ _______ _____ _____    ______ ____
ROOT
ATOM      1  C   UNL     1       8.960   3.478  23.726  0.00  0.00    +0.027 C 
ATOM      2  C   UNL     1       7.957   3.729  22.570  0.00  0.00    +0.024 C 
ATOM      3  C   UNL     1       7.478   5.185  22.761  0.00  0.00    +0.120 C 
ATOM      4  C   UNL     1       8.146   5.705  24.030  0.00  0.00    +0.063 C 
ATOM      5  C   UNL     1       9.422   4.886  24.123  0.00  0.00    +0.121 C 
ENDROOT
BRANCH   5   6
ATOM      6  O   UNL     1      10.359   5.419  23.191  0.00  0.00    -0.391 OA
ATOM      7  H   UNL     1       9.933   5.407  22.314  0.00  0.00    +0.210 HD
ENDBRANCH   5   6
BRANCH   3   8
ATOM      8  O   UNL     1       7.895   5.956  21.637  0.00  0.00    -0.391 OA
ATOM      9  H   UNL     1       8.797   6.278  21.840  0.00  0.00    +0.210 HD
ENDBRANCH   3   8
BRANCH   2  10
ATOM     10  C   UNL     1       6.792   2.718  22.576  0.00  0.00    +0.009 C 
BRANCH  10  11
ATOM     11  C   UNL     1       5.450   3.432  22.773  0.00  0.00    +0.032 C 
BRANCH  11  12
ATOM     12  C   UNL     1       4.772   3.191  24.127  0.00  0.00    +0.115 C 
BRANCH  12  13
ATOM     13  O   UNL     1       3.633   2.348  23.958  0.00  0.00    -0.392 OA
ATOM     14  H   UNL     1       2.852   2.830  24.277  0.00  0.00    +0.210 HD
ENDBRANCH  12  13
BRANCH  12  15
ATOM     15  C   UNL     1       5.718   2.478  25.108  0.00  0.00    +0.036 C 
BRANCH  15  16
ATOM     16  C   UNL     1       5.248   1.070  25.479  0.00  0.00    +0.037 C 
BRANCH  16  17
ATOM     17  C   UNL     1       6.393   0.136  25.774  0.00  0.00    -0.047 A 
ATOM     18  C   UNL     1       6.159  -1.213  26.053  0.00  0.00    +0.003 A 
ATOM     19  C   UNL     1       7.224  -2.067  26.344  0.00  0.00    +0.000 A 
ATOM     20  C   UNL     1       8.530  -1.578  26.353  0.00  0.00    +0.000 A 
ATOM     21  C   UNL     1       8.774  -0.236  26.065  0.00  0.00    +0.000 A 
ATOM     22  C   UNL     1       7.710   0.618  25.774  0.00  0.00    +0.003 A 
ENDBRANCH  16  17
ENDBRANCH  15  16
ENDBRANCH  12  15
ENDBRANCH  11  12
ENDBRANCH  10  11
ENDBRANCH   2  10
BRANCH   1  23
ATOM     23  C   UNL     1      10.090   2.532  23.300  0.00  0.00    +0.033 C 
BRANCH  23  25
ATOM     24  C   UNL     1       9.816   0.533  21.758  0.00  0.00    -0.031 C 
ATOM     25  C   UNL     1       9.828   1.856  21.981  0.00  0.00    -0.031 C 
BRANCH  24  26
ATOM     26  C   UNL     1      10.118  -0.538  22.769  0.00  0.00    +0.027 C 
BRANCH  26  27
ATOM     27  C   UNL     1       9.188  -1.743  22.675  0.00  0.00    +0.015 C 
BRANCH  27  28
ATOM     28  C   UNL     1       7.701  -1.375  22.648  0.00  0.00    +0.121 C 
BRANCH  28  29
ATOM     29  C   UNL     1       6.868  -2.610  22.419  0.00  0.00    +0.307 C 
ATOM     30  O   UNL     1       5.646  -2.628  22.338  0.00  0.00    -0.251 OA
BRANCH  29  31
ATOM     31  O   UNL     1       7.674  -3.705  22.298  0.00  0.00    -0.462 OA
BRANCH  31  33
ATOM     32  C   UNL     1       7.140  -6.054  22.078  0.00  0.00    +0.052 C 
ATOM     33  C   UNL     1       7.234  -4.864  23.028  0.00  0.00    +0.170 C 
ATOM     34  C   UNL     1       8.246  -5.133  24.133  0.00  0.00    +0.052 C 
ENDBRANCH  31  33
ENDBRANCH  29  31
ENDBRANCH  28  29
ENDBRANCH  27  28
ENDBRANCH  26  27
ENDBRANCH  24  26
ENDBRANCH  23  25
ENDBRANCH   1  23
TORSDOF 17
ENDMDL
MODEL 8
REMARK VINA RESULT:      -5.4      1.862      6.462
REMARK  Name = 
REMARK  19 active torsions:
REMARK  status: ('A' for Active; 'I' for Inactive)
REMARK    1  A    between atoms: C_1  and  C_2
REMARK    2  A    between atoms: C_2  and  C_3
REMARK    3  A    between atoms: C_2  and  O_4
REMARK    4  A    between atoms: O_4  and  C_5
REMARK    5  A    between atoms: C_5  and  C_7
REMARK    6  A    between atoms: C_7  and  C_8
REMARK    7  A    between atoms: C_8  and  C_9
REMARK    8  A    between atoms: C_9  and  C_10
REMARK    9  A    between atoms: C_11  and  C_12
REMARK   10  A    between atoms: C_12  and  C_13
REMARK   11  A    between atoms: C_15  and  O_17
REMARK   12  A    between atoms: C_19  and  O_21
REMARK   13  A    between atoms: C_22  and  C_24
REMARK   14  A    between atoms: C_24  and  C_25
REMARK   15  A    between atoms: C_25  and  C_26
REMARK   16  A    between atoms: C_26  and  O_28
REMARK   17  A    between atoms: C_26  and  C_29
REMARK   18  A    between atoms: C_29  and  C_30
REMARK   19  A    between atoms: C_30  and  C_31
REMARK                            x       y       z     vdW  Elec       q    Type
REMARK                         _______ _______ _______ _____ _____    ______ ____
ROOT
ATOM      1  C   UNL     1       3.700  -4.699  25.395  0.00  0.00    +0.027 C 
ATOM      2  C   UNL     1       4.826  -5.766  25.399  0.00  0.00    +0.024 C 
ATOM      3  C   UNL     1       4.143  -7.076  24.951  0.00  0.00    +0.120 C 
ATOM      4  C   UNL     1       2.662  -6.760  24.768  0.00  0.00    +0.063 C 
ATOM      5  C   UNL     1       2.652  -5.277  24.434  0.00  0.00    +0.121 C 
ENDROOT
BRANCH   5   6
ATOM      6  O   UNL     1       3.042  -5.127  23.072  0.00  0.00    -0.391 OA
ATOM      7  H   UNL     1       3.979  -5.387  23.009  0.00  0.00    +0.210 HD
ENDBRANCH   5   6
BRANCH   3   8
ATOM      8  O   UNL     1       4.713  -7.488  23.711  0.00  0.00    -0.391 OA
ATOM      9  H   UNL     1       5.467  -8.073  23.932  0.00  0.00    +0.210 HD
ENDBRANCH   3   8
BRANCH   2  10
ATOM     10  C   UNL     1       5.503  -5.894  26.780  0.00  0.00    +0.009 C 
BRANCH  10  11
ATOM     11  C   UNL     1       6.291  -4.625  27.122  0.00  0.00    +0.032 C 
BRANCH  11  12
ATOM     12  C   UNL     1       7.813  -4.738  26.973  0.00  0.00    +0.115 C 
BRANCH  12  13
ATOM     13  O   UNL     1       8.180  -6.098  26.741  0.00  0.00    -0.392 OA
ATOM     14  H   UNL     1       7.978  -6.311  25.815  0.00  0.00    +0.210 HD
ENDBRANCH  12  13
BRANCH  12  15
ATOM     15  C   UNL     1       8.320  -3.925  25.769  0.00  0.00    +0.036 C 
BRANCH  15  16
ATOM     16  C   UNL     1       8.693  -4.797  24.569  0.00  0.00    +0.037 C 
BRANCH  16  17
ATOM     17  C   UNL     1       7.751  -4.617  23.407  0.00  0.00    -0.047 A 
ATOM     18  C   UNL     1       7.414  -5.698  22.587  0.00  0.00    +0.003 A 
ATOM     19  C   UNL     1       6.557  -5.518  21.502  0.00  0.00    +0.000 A 
ATOM     20  C   UNL     1       6.026  -4.257  21.232  0.00  0.00    +0.000 A 
ATOM     21  C   UNL     1       6.347  -3.175  22.050  0.00  0.00    +0.000 A 
ATOM     22  C   UNL     1       7.204  -3.355  23.136  0.00  0.00    +0.003 A 
ENDBRANCH  16  17
ENDBRANCH  15  16
ENDBRANCH  12  15
ENDBRANCH  11  12
ENDBRANCH  10  11
ENDBRANCH   2  10
BRANCH   1  23
ATOM     23  C   UNL     1       4.231  -3.315  25.001  0.00  0.00    +0.033 C 
BRANCH  23  25
ATOM     24  C   UNL     1       4.713  -1.221  26.356  0.00  0.00    -0.031 C 
ATOM     25  C   UNL     1       3.922  -2.253  26.022  0.00  0.00    -0.031 C 
BRANCH  24  26
ATOM     26  C   UNL     1       6.090  -0.952  25.817  0.00  0.00    +0.027 C 
BRANCH  26  27
ATOM     27  C   UNL     1       6.088  -0.224  24.476  0.00  0.00    +0.015 C 
BRANCH  27  28
ATOM     28  C   UNL     1       6.618   1.211  24.552  0.00  0.00    +0.121 C 
BRANCH  28  29
ATOM     29  C   UNL     1       7.773   1.385  23.599  0.00  0.00    +0.307 C 
ATOM     30  O   UNL     1       8.388   2.430  23.423  0.00  0.00    -0.251 OA
BRANCH  29  31
ATOM     31  O   UNL     1       8.046   0.205  22.971  0.00  0.00    -0.462 OA
BRANCH  31  33
ATOM     32  C   UNL     1       9.798  -0.824  24.284  0.00  0.00    +0.052 C 
ATOM     33  C   UNL     1       9.436  -0.166  22.956  0.00  0.00    +0.170 C 
ATOM     34  C   UNL     1       9.651  -1.132  21.799  0.00  0.00    +0.052 C 
ENDBRANCH  31  33
ENDBRANCH  29  31
ENDBRANCH  28  29
ENDBRANCH  27  28
ENDBRANCH  26  27
ENDBRANCH  24  26
ENDBRANCH  23  25
ENDBRANCH   1  23
TORSDOF 17
ENDMDL
MODEL 9
REMARK VINA RESULT:      -5.4      2.168      6.158
REMARK  Name = 
REMARK  19 active torsions:
REMARK  status: ('A' for Active; 'I' for Inactive)
REMARK    1  A    between atoms: C_1  and  C_2
REMARK    2  A    between atoms: C_2  and  C_3
REMARK    3  A    between atoms: C_2  and  O_4
REMARK    4  A    between atoms: O_4  and  C_5
REMARK    5  A    between atoms: C_5  and  C_7
REMARK    6  A    between atoms: C_7  and  C_8
REMARK    7  A    between atoms: C_8  and  C_9
REMARK    8  A    between atoms: C_9  and  C_10
REMARK    9  A    between atoms: C_11  and  C_12
REMARK   10  A    between atoms: C_12  and  C_13
REMARK   11  A    between atoms: C_15  and  O_17
REMARK   12  A    between atoms: C_19  and  O_21
REMARK   13  A    between atoms: C_22  and  C_24
REMARK   14  A    between atoms: C_24  and  C_25
REMARK   15  A    between atoms: C_25  and  C_26
REMARK   16  A    between atoms: C_26  and  O_28
REMARK   17  A    between atoms: C_26  and  C_29
REMARK   18  A    between atoms: C_29  and  C_30
REMARK   19  A    between atoms: C_30  and  C_31
REMARK                            x       y       z     vdW  Elec       q    Type
REMARK                         _______ _______ _______ _____ _____    ______ ____
ROOT
ATOM      1  C   UNL     1       8.213  -1.407  25.113  0.00  0.00    +0.027 C 
ATOM      2  C   UNL     1       6.933  -0.971  24.353  0.00  0.00    +0.024 C 
ATOM      3  C   UNL     1       5.858  -0.786  25.447  0.00  0.00    +0.120 C 
ATOM      4  C   UNL     1       6.506  -1.175  26.772  0.00  0.00    +0.063 C 
ATOM      5  C   UNL     1       7.982  -0.897  26.542  0.00  0.00    +0.121 C 
ENDROOT
BRANCH   5   6
ATOM      6  O   UNL     1       8.189   0.509  26.643  0.00  0.00    -0.391 OA
ATOM      7  H   UNL     1       8.196   0.733  27.591  0.00  0.00    +0.210 HD
ENDBRANCH   5   6
BRANCH   3   8
ATOM      8  O   UNL     1       5.467   0.585  25.477  0.00  0.00    -0.391 OA
ATOM      9  H   UNL     1       5.095   0.748  26.368  0.00  0.00    +0.210 HD
ENDBRANCH   3   8
BRANCH   2  10
ATOM     10  C   UNL     1       6.513  -1.996  23.279  0.00  0.00    +0.009 C 
BRANCH  10  11
ATOM     11  C   UNL     1       5.214  -2.705  23.680  0.00  0.00    +0.032 C 
BRANCH  11  12
ATOM     12  C   UNL     1       4.799  -3.872  22.777  0.00  0.00    +0.115 C 
BRANCH  12  13
ATOM     13  O   UNL     1       5.499  -3.800  21.534  0.00  0.00    -0.392 OA
ATOM     14  H   UNL     1       6.026  -4.611  21.440  0.00  0.00    +0.210 HD
ENDBRANCH  12  13
BRANCH  12  15
ATOM     15  C   UNL     1       5.152  -5.227  23.414  0.00  0.00    +0.036 C 
BRANCH  15  16
ATOM     16  C   UNL     1       6.622  -5.610  23.233  0.00  0.00    +0.037 C 
BRANCH  16  17
ATOM     17  C   UNL     1       7.461  -5.275  24.438  0.00  0.00    -0.047 A 
ATOM     18  C   UNL     1       6.873  -5.121  25.697  0.00  0.00    +0.003 A 
ATOM     19  C   UNL     1       7.655  -4.791  26.804  0.00  0.00    +0.000 A 
ATOM     20  C   UNL     1       9.032  -4.618  26.661  0.00  0.00    +0.000 A 
ATOM     21  C   UNL     1       9.629  -4.780  25.412  0.00  0.00    +0.000 A 
ATOM     22  C   UNL     1       8.848  -5.110  24.305  0.00  0.00    +0.003 A 
ENDBRANCH  16  17
ENDBRANCH  15  16
ENDBRANCH  12  15
ENDBRANCH  11  12
ENDBRANCH  10  11
ENDBRANCH   2  10
BRANCH   1  23
ATOM     23  C   UNL     1       9.482  -0.870  24.441  0.00  0.00    +0.033 C 
BRANCH  23  25
ATOM     24  C   UNL     1       9.948  -1.059  21.952  0.00  0.00    -0.031 C 
ATOM     25  C   UNL     1       9.834  -1.602  23.174  0.00  0.00    -0.031 C 
BRANCH  24  26
ATOM     26  C   UNL     1       9.693   0.379  21.594  0.00  0.00    +0.027 C 
BRANCH  26  27
ATOM     27  C   UNL     1       8.221   0.693  21.343  0.00  0.00    +0.015 C 
BRANCH  27  28
ATOM     28  C   UNL     1       7.848   2.154  21.610  0.00  0.00    +0.121 C 
BRANCH  28  29
ATOM     29  C   UNL     1       7.181   2.278  22.956  0.00  0.00    +0.307 C 
ATOM     30  O   UNL     1       5.971   2.315  23.140  0.00  0.00    -0.251 OA
BRANCH  29  31
ATOM     31  O   UNL     1       8.121   2.329  23.943  0.00  0.00    -0.462 OA
BRANCH  31  33
ATOM     32  C   UNL     1       8.599   4.397  25.104  0.00  0.00    +0.052 C 
ATOM     33  C   UNL     1       8.959   3.499  23.924  0.00  0.00    +0.170 C 
ATOM     34  C   UNL     1      10.407   3.041  24.016  0.00  0.00    +0.052 C 
ENDBRANCH  31  33
ENDBRANCH  29  31
ENDBRANCH  28  29
ENDBRANCH  27  28
ENDBRANCH  26  27
ENDBRANCH  24  26
ENDBRANCH  23  25
ENDBRANCH   1  23
TORSDOF 17
ENDMDL
