MODEL 1
REMARK VINA RESULT:      -7.3      0.000      0.000
REMARK  Name = 
REMARK  8 active torsions:
REMARK  status: ('A' for Active; 'I' for Inactive)
REMARK    1  A    between atoms: C_2  and  C_3
REMARK    2  A    between atoms: C_2  and  N_7
REMARK    3  A    between atoms: C_2  and  C_27
REMARK    4  A    between atoms: C_3  and  C_4
REMARK    5  A    between atoms: C_4  and  O_5
REMARK    6  A    between atoms: C_8  and  C_10
REMARK    7  A    between atoms: C_12  and  C_15
REMARK    8  A    between atoms: C_18  and  C_21
REMARK                            x       y       z     vdW  Elec       q    Type
REMARK                         _______ _______ _______ _____ _____    ______ ____
ROOT
ATOM      1  C   UNL     1       7.545  -4.048  24.659  0.00  0.00    +0.074 A 
ATOM      2  S   UNL     1       7.456  -4.330  22.970  0.00  0.00    -0.091 S 
ATOM      3  C   UNL     1       8.074  -2.782  22.603  0.00  0.00    +0.054 A 
ATOM      4  C   UNL     1       8.347  -2.026  23.726  0.00  0.00    -0.010 A 
ATOM      5  C   UNL     1       8.013  -2.767  24.915  0.00  0.00    +0.029 A 
ENDROOT
BRANCH   4   6
ATOM      6  C   UNL     1       8.929  -0.680  23.632  0.00  0.00    -0.017 A 
ATOM      7  C   UNL     1       8.509   0.217  22.647  0.00  0.00    +0.009 A 
ATOM      8  C   UNL     1       9.017   1.527  22.602  0.00  0.00    +0.009 A 
ATOM      9  C   UNL     1       9.944   2.000  23.549  0.00  0.00    -0.018 A 
ATOM     10  C   UNL     1      10.393   1.071  24.502  0.00  0.00    +0.009 A 
ATOM     11  C   UNL     1       9.895  -0.240  24.546  0.00  0.00    +0.009 A 
BRANCH   9  12
ATOM     12  C   UNL     1      10.368   3.423  23.595  0.00  0.00    -0.015 A 
ATOM     13  C   UNL     1       9.482   4.431  24.005  0.00  0.00    +0.028 A 
ATOM     14  C   UNL     1       9.929   5.741  24.120  0.00  0.00    +0.111 A 
ATOM     15  N   UNL     1      11.192   6.127  23.857  0.00  0.00    -0.263 NA
ATOM     16  C   UNL     1      12.040   5.161  23.453  0.00  0.00    +0.111 A 
ATOM     17  C   UNL     1      11.681   3.827  23.300  0.00  0.00    +0.028 A 
ENDBRANCH   9  12
ENDBRANCH   4   6
BRANCH   1  20
ATOM     18  N   UNL     1       5.852  -5.394  25.717  0.00  0.00    -0.304 N 
ATOM     19  H   UNL     1       5.232  -4.653  25.402  0.00  0.00    +0.150 HD
ATOM     20  C   UNL     1       7.206  -5.084  25.627  0.00  0.00    +0.251 C 
ATOM     21  O   UNL     1       8.048  -5.699  26.277  0.00  0.00    -0.270 OA
BRANCH  18  22
ATOM     22  C   UNL     1       5.328  -6.340  26.709  0.00  0.00    +0.114 C 
BRANCH  22  23
ATOM     23  C   UNL     1       4.951  -5.598  27.984  0.00  0.00    -0.027 A 
ATOM     24  C   UNL     1       5.536  -5.963  29.207  0.00  0.00    +0.005 A 
ATOM     25  C   UNL     1       5.198  -5.292  30.387  0.00  0.00    +0.000 A 
ATOM     26  C   UNL     1       4.276  -4.248  30.360  0.00  0.00    +0.000 A 
ATOM     27  C   UNL     1       3.684  -3.877  29.155  0.00  0.00    +0.000 A 
ATOM     28  C   UNL     1       4.018  -4.545  27.976  0.00  0.00    +0.005 A 
ENDBRANCH  22  23
BRANCH  22  29
ATOM     29  C   UNL     1       4.115  -7.106  26.160  0.00  0.00    +0.147 C 
BRANCH  29  30
ATOM     30  C   UNL     1       3.748  -6.816  24.726  0.00  0.00    +0.307 C 
ATOM     31  O   UNL     1       2.948  -5.942  24.417  0.00  0.00    -0.251 OA
BRANCH  30  32
ATOM     32  O   UNL     1       4.445  -7.491  23.792  0.00  0.00    -0.481 OA
ATOM     33  H   UNL     1       4.760  -8.369  24.083  0.00  0.00    +0.295 HD
ENDBRANCH  30  32
ENDBRANCH  29  30
ENDBRANCH  22  29
ENDBRANCH  18  22
ENDBRANCH   1  20
TORSDOF 8
ENDMDL
MODEL 2
REMARK VINA RESULT:      -6.9      2.010      3.765
REMARK  Name = 
REMARK  8 active torsions:
REMARK  status: ('A' for Active; 'I' for Inactive)
REMARK    1  A    between atoms: C_2  and  C_3
REMARK    2  A    between atoms: C_2  and  N_7
REMARK    3  A    between atoms: C_2  and  C_27
REMARK    4  A    between atoms: C_3  and  C_4
REMARK    5  A    between atoms: C_4  and  O_5
REMARK    6  A    between atoms: C_8  and  C_10
REMARK    7  A    between atoms: C_12  and  C_15
REMARK    8  A    between atoms: C_18  and  C_21
REMARK                            x       y       z     vdW  Elec       q    Type
REMARK                         _______ _______ _______ _____ _____    ______ ____
ROOT
ATOM      1  C   UNL     1       5.467  -2.878  23.939  0.00  0.00    +0.074 A 
ATOM      2  S   UNL     1       6.269  -3.648  22.633  0.00  0.00    -0.091 S 
ATOM      3  C   UNL     1       7.356  -2.348  22.436  0.00  0.00    +0.054 A 
ATOM      4  C   UNL     1       7.136  -1.316  23.328  0.00  0.00    -0.010 A 
ATOM      5  C   UNL     1       6.020  -1.629  24.182  0.00  0.00    +0.029 A 
ENDROOT
BRANCH   4   6
ATOM      6  C   UNL     1       7.991  -0.121  23.357  0.00  0.00    -0.017 A 
ATOM      7  C   UNL     1       7.952   0.816  22.321  0.00  0.00    +0.009 A 
ATOM      8  C   UNL     1       8.719   1.993  22.385  0.00  0.00    +0.009 A 
ATOM      9  C   UNL     1       9.535   2.291  23.491  0.00  0.00    -0.018 A 
ATOM     10  C   UNL     1       9.602   1.316  24.500  0.00  0.00    +0.009 A 
ATOM     11  C   UNL     1       8.844   0.136  24.438  0.00  0.00    +0.009 A 
BRANCH   9  12
ATOM     12  C   UNL     1      10.228   3.597  23.630  0.00  0.00    -0.015 A 
ATOM     13  C   UNL     1      11.592   3.732  23.327  0.00  0.00    +0.028 A 
ATOM     14  C   UNL     1      12.194   4.982  23.385  0.00  0.00    +0.111 A 
ATOM     15  N   UNL     1      11.543   6.112  23.720  0.00  0.00    -0.263 NA
ATOM     16  C   UNL     1      10.237   5.981  24.021  0.00  0.00    +0.111 A 
ATOM     17  C   UNL     1       9.552   4.772  24.001  0.00  0.00    +0.028 A 
ENDBRANCH   9  12
ENDBRANCH   4   6
BRANCH   1  20
ATOM     18  N   UNL     1       4.489  -4.925  24.748  0.00  0.00    -0.304 N 
ATOM     19  H   UNL     1       5.047  -5.345  24.011  0.00  0.00    +0.150 HD
ATOM     20  C   UNL     1       4.394  -3.538  24.674  0.00  0.00    +0.251 C 
ATOM     21  O   UNL     1       3.497  -2.926  25.249  0.00  0.00    -0.270 OA
BRANCH  18  22
ATOM     22  C   UNL     1       3.444  -5.751  25.363  0.00  0.00    +0.114 C 
BRANCH  22  23
ATOM     23  C   UNL     1       2.508  -6.286  24.287  0.00  0.00    -0.027 A 
ATOM     24  C   UNL     1       2.400  -7.669  24.075  0.00  0.00    +0.005 A 
ATOM     25  C   UNL     1       1.547  -8.175  23.089  0.00  0.00    +0.000 A 
ATOM     26  C   UNL     1       0.790  -7.308  22.305  0.00  0.00    +0.000 A 
ATOM     27  C   UNL     1       0.890  -5.932  22.499  0.00  0.00    +0.000 A 
ATOM     28  C   UNL     1       1.741  -5.424  23.482  0.00  0.00    +0.005 A 
ENDBRANCH  22  23
BRANCH  22  29
ATOM     29  C   UNL     1       4.051  -6.910  26.165  0.00  0.00    +0.147 C 
BRANCH  29  30
ATOM     30  C   UNL     1       4.895  -6.518  27.352  0.00  0.00    +0.307 C 
ATOM     31  O   UNL     1       5.123  -5.350  27.638  0.00  0.00    -0.251 OA
BRANCH  30  32
ATOM     32  O   UNL     1       5.284  -7.526  28.157  0.00  0.00    -0.481 OA
ATOM     33  H   UNL     1       4.989  -7.437  29.084  0.00  0.00    +0.295 HD
ENDBRANCH  30  32
ENDBRANCH  29  30
ENDBRANCH  22  29
ENDBRANCH  18  22
ENDBRANCH   1  20
TORSDOF 8
ENDMDL
MODEL 3
REMARK VINA RESULT:      -6.9      1.550      1.836
REMARK  Name = 
REMARK  8 active torsions:
REMARK  status: ('A' for Active; 'I' for Inactive)
REMARK    1  A    between atoms: C_2  and  C_3
REMARK    2  A    between atoms: C_2  and  N_7
REMARK    3  A    between atoms: C_2  and  C_27
REMARK    4  A    between atoms: C_3  and  C_4
REMARK    5  A    between atoms: C_4  and  O_5
REMARK    6  A    between atoms: C_8  and  C_10
REMARK    7  A    between atoms: C_12  and  C_15
REMARK    8  A    between atoms: C_18  and  C_21
REMARK                            x       y       z     vdW  Elec       q    Type
REMARK                         _______ _______ _______ _____ _____    ______ ____
ROOT
ATOM      1  C   UNL     1       7.324  -4.308  24.035  0.00  0.00    +0.074 A 
ATOM      2  S   UNL     1       8.797  -4.864  24.715  0.00  0.00    -0.091 S 
ATOM      3  C   UNL     1       9.536  -3.334  24.556  0.00  0.00    +0.054 A 
ATOM      4  C   UNL     1       8.706  -2.388  23.986  0.00  0.00    -0.010 A 
ATOM      5  C   UNL     1       7.430  -2.974  23.668  0.00  0.00    +0.029 A 
ENDROOT
BRANCH   4   6
ATOM      6  C   UNL     1       9.132  -0.994  23.802  0.00  0.00    -0.017 A 
ATOM      7  C   UNL     1       8.444  -0.141  22.935  0.00  0.00    +0.009 A 
ATOM      8  C   UNL     1       8.810   1.211  22.813  0.00  0.00    +0.009 A 
ATOM      9  C   UNL     1       9.860   1.770  23.566  0.00  0.00    -0.018 A 
ATOM     10  C   UNL     1      10.572   0.888  24.395  0.00  0.00    +0.009 A 
ATOM     11  C   UNL     1      10.216  -0.464  24.514  0.00  0.00    +0.009 A 
BRANCH   9  12
ATOM     12  C   UNL     1      10.152   3.226  23.552  0.00  0.00    -0.015 A 
ATOM     13  C   UNL     1       9.141   4.171  23.784  0.00  0.00    +0.028 A 
ATOM     14  C   UNL     1       9.457   5.522  23.848  0.00  0.00    +0.111 A 
ATOM     15  N   UNL     1      10.705   6.007  23.701  0.00  0.00    -0.263 NA
ATOM     16  C   UNL     1      11.674   5.100  23.468  0.00  0.00    +0.111 A 
ATOM     17  C   UNL     1      11.451   3.731  23.377  0.00  0.00    +0.028 A 
ENDBRANCH   9  12
ENDBRANCH   4   6
BRANCH   1  20
ATOM     18  N   UNL     1       5.259  -5.080  25.005  0.00  0.00    -0.304 N 
ATOM     19  H   UNL     1       5.671  -4.733  25.867  0.00  0.00    +0.150 HD
ATOM     20  C   UNL     1       6.152  -5.170  23.941  0.00  0.00    +0.251 C 
ATOM     21  O   UNL     1       5.918  -5.883  22.967  0.00  0.00    -0.270 OA
BRANCH  18  22
ATOM     22  C   UNL     1       4.082  -5.948  25.117  0.00  0.00    +0.114 C 
BRANCH  22  23
ATOM     23  C   UNL     1       3.873  -6.351  26.571  0.00  0.00    -0.027 A 
ATOM     24  C   UNL     1       4.980  -6.537  27.414  0.00  0.00    +0.005 A 
ATOM     25  C   UNL     1       4.804  -6.909  28.750  0.00  0.00    +0.000 A 
ATOM     26  C   UNL     1       3.522  -7.097  29.262  0.00  0.00    +0.000 A 
ATOM     27  C   UNL     1       2.414  -6.921  28.438  0.00  0.00    +0.000 A 
ATOM     28  C   UNL     1       2.586  -6.551  27.103  0.00  0.00    +0.005 A 
ENDBRANCH  22  23
BRANCH  22  29
ATOM     29  C   UNL     1       2.826  -5.256  24.570  0.00  0.00    +0.147 C 
BRANCH  29  30
ATOM     30  C   UNL     1       2.260  -5.832  23.295  0.00  0.00    +0.307 C 
ATOM     31  O   UNL     1       1.228  -5.414  22.787  0.00  0.00    -0.251 OA
BRANCH  30  32
ATOM     32  O   UNL     1       3.023  -6.754  22.676  0.00  0.00    -0.481 OA
ATOM     33  H   UNL     1       3.341  -6.484  21.793  0.00  0.00    +0.295 HD
ENDBRANCH  30  32
ENDBRANCH  29  30
ENDBRANCH  22  29
ENDBRANCH  18  22
ENDBRANCH   1  20
TORSDOF 8
ENDMDL
MODEL 4
REMARK VINA RESULT:      -6.8      4.293     10.799
REMARK  Name = 
REMARK  8 active torsions:
REMARK  status: ('A' for Active; 'I' for Inactive)
REMARK    1  A    between atoms: C_2  and  C_3
REMARK    2  A    between atoms: C_2  and  N_7
REMARK    3  A    between atoms: C_2  and  C_27
REMARK    4  A    between atoms: C_3  and  C_4
REMARK    5  A    between atoms: C_4  and  O_5
REMARK    6  A    between atoms: C_8  and  C_10
REMARK    7  A    between atoms: C_12  and  C_15
REMARK    8  A    between atoms: C_18  and  C_21
REMARK                            x       y       z     vdW  Elec       q    Type
REMARK                         _______ _______ _______ _____ _____    ______ ____
ROOT
ATOM      1  C   UNL     1       9.283   0.798  23.520  0.00  0.00    +0.074 A 
ATOM      2  S   UNL     1      10.372   0.060  24.620  0.00  0.00    -0.091 S 
ATOM      3  C   UNL     1       9.423  -1.354  24.727  0.00  0.00    +0.054 A 
ATOM      4  C   UNL     1       8.278  -1.299  23.957  0.00  0.00    -0.010 A 
ATOM      5  C   UNL     1       8.198  -0.032  23.277  0.00  0.00    +0.029 A 
ENDROOT
BRANCH   4   6
ATOM      6  C   UNL     1       7.346  -2.432  23.870  0.00  0.00    -0.017 A 
ATOM      7  C   UNL     1       7.636  -3.649  24.493  0.00  0.00    +0.009 A 
ATOM      8  C   UNL     1       6.712  -4.709  24.468  0.00  0.00    +0.009 A 
ATOM      9  C   UNL     1       5.458  -4.589  23.843  0.00  0.00    -0.018 A 
ATOM     10  C   UNL     1       5.203  -3.378  23.180  0.00  0.00    +0.009 A 
ATOM     11  C   UNL     1       6.125  -2.320  23.195  0.00  0.00    +0.009 A 
BRANCH   9  12
ATOM     12  C   UNL     1       4.423  -5.650  23.943  0.00  0.00    -0.015 A 
ATOM     13  C   UNL     1       4.478  -6.625  24.951  0.00  0.00    +0.028 A 
ATOM     14  C   UNL     1       3.452  -7.553  25.073  0.00  0.00    +0.111 A 
ATOM     15  N   UNL     1       2.373  -7.588  24.268  0.00  0.00    -0.263 NA
ATOM     16  C   UNL     1       2.326  -6.658  23.294  0.00  0.00    +0.111 A 
ATOM     17  C   UNL     1       3.308  -5.697  23.089  0.00  0.00    +0.028 A 
ENDBRANCH   9  12
ENDBRANCH   4   6
BRANCH   1  20
ATOM     18  N   UNL     1       9.039   3.192  23.616  0.00  0.00    -0.304 N 
ATOM     19  H   UNL     1       8.247   2.970  24.211  0.00  0.00    +0.150 HD
ATOM     20  C   UNL     1       9.561   2.101  22.927  0.00  0.00    +0.251 C 
ATOM     21  O   UNL     1      10.259   2.250  21.926  0.00  0.00    -0.270 OA
BRANCH  18  22
ATOM     22  C   UNL     1       9.140   4.564  23.105  0.00  0.00    +0.114 C 
BRANCH  22  23
ATOM     23  C   UNL     1       7.748   5.165  22.959  0.00  0.00    -0.027 A 
ATOM     24  C   UNL     1       6.651   4.555  23.587  0.00  0.00    +0.005 A 
ATOM     25  C   UNL     1       5.367   5.093  23.460  0.00  0.00    +0.000 A 
ATOM     26  C   UNL     1       5.162   6.248  22.708  0.00  0.00    +0.000 A 
ATOM     27  C   UNL     1       6.240   6.863  22.074  0.00  0.00    +0.000 A 
ATOM     28  C   UNL     1       7.522   6.327  22.198  0.00  0.00    +0.005 A 
ENDBRANCH  22  23
BRANCH  22  29
ATOM     29  C   UNL     1      10.004   5.438  24.024  0.00  0.00    +0.147 C 
BRANCH  29  30
ATOM     30  C   UNL     1      11.474   5.494  23.688  0.00  0.00    +0.307 C 
ATOM     31  O   UNL     1      12.269   6.170  24.327  0.00  0.00    -0.251 OA
BRANCH  30  32
ATOM     32  O   UNL     1      11.887   4.657  22.716  0.00  0.00    -0.481 OA
ATOM     33  H   UNL     1      11.503   4.843  21.836  0.00  0.00    +0.295 HD
ENDBRANCH  30  32
ENDBRANCH  29  30
ENDBRANCH  22  29
ENDBRANCH  18  22
ENDBRANCH   1  20
TORSDOF 8
ENDMDL
MODEL 5
REMARK VINA RESULT:      -6.7      2.595      3.436
REMARK  Name = 
REMARK  8 active torsions:
REMARK  status: ('A' for Active; 'I' for Inactive)
REMARK    1  A    between atoms: C_2  and  C_3
REMARK    2  A    between atoms: C_2  and  N_7
REMARK    3  A    between atoms: C_2  and  C_27
REMARK    4  A    between atoms: C_3  and  C_4
REMARK    5  A    between atoms: C_4  and  O_5
REMARK    6  A    between atoms: C_8  and  C_10
REMARK    7  A    between atoms: C_12  and  C_15
REMARK    8  A    between atoms: C_18  and  C_21
REMARK                            x       y       z     vdW  Elec       q    Type
REMARK                         _______ _______ _______ _____ _____    ______ ____
ROOT
ATOM      1  C   UNL     1       6.762  -3.464  25.625  0.00  0.00    +0.074 A 
ATOM      2  S   UNL     1       6.084  -2.710  27.008  0.00  0.00    -0.091 S 
ATOM      3  C   UNL     1       6.819  -1.213  26.644  0.00  0.00    +0.054 A 
ATOM      4  C   UNL     1       7.588  -1.250  25.497  0.00  0.00    -0.010 A 
ATOM      5  C   UNL     1       7.563  -2.572  24.927  0.00  0.00    +0.029 A 
ENDROOT
BRANCH   4   6
ATOM      6  C   UNL     1       8.269  -0.055  24.981  0.00  0.00    -0.017 A 
ATOM      7  C   UNL     1       7.544   1.080  24.607  0.00  0.00    +0.009 A 
ATOM      8  C   UNL     1       8.203   2.246  24.179  0.00  0.00    +0.009 A 
ATOM      9  C   UNL     1       9.606   2.335  24.131  0.00  0.00    -0.018 A 
ATOM     10  C   UNL     1      10.318   1.171  24.464  0.00  0.00    +0.009 A 
ATOM     11  C   UNL     1       9.665   0.001  24.883  0.00  0.00    +0.009 A 
BRANCH   9  12
ATOM     12  C   UNL     1      10.305   3.609  23.826  0.00  0.00    -0.015 A 
ATOM     13  C   UNL     1       9.683   4.849  24.042  0.00  0.00    +0.028 A 
ATOM     14  C   UNL     1      10.390   6.024  23.827  0.00  0.00    +0.111 A 
ATOM     15  N   UNL     1      11.671   6.064  23.415  0.00  0.00    -0.263 NA
ATOM     16  C   UNL     1      12.264   4.874  23.198  0.00  0.00    +0.111 A 
ATOM     17  C   UNL     1      11.635   3.649  23.375  0.00  0.00    +0.028 A 
ENDBRANCH   9  12
ENDBRANCH   4   6
BRANCH   1  20
ATOM     18  N   UNL     1       5.724  -5.009  24.096  0.00  0.00    -0.304 N 
ATOM     19  H   UNL     1       5.192  -4.190  23.815  0.00  0.00    +0.150 HD
ATOM     20  C   UNL     1       6.446  -4.844  25.275  0.00  0.00    +0.251 C 
ATOM     21  O   UNL     1       6.838  -5.810  25.926  0.00  0.00    -0.270 OA
BRANCH  18  22
ATOM     22  C   UNL     1       5.238  -6.319  23.650  0.00  0.00    +0.114 C 
BRANCH  22  23
ATOM     23  C   UNL     1       3.750  -6.448  23.947  0.00  0.00    -0.027 A 
ATOM     24  C   UNL     1       3.305  -7.347  24.929  0.00  0.00    +0.005 A 
ATOM     25  C   UNL     1       1.941  -7.477  25.210  0.00  0.00    +0.000 A 
ATOM     26  C   UNL     1       1.006  -6.712  24.518  0.00  0.00    +0.000 A 
ATOM     27  C   UNL     1       1.431  -5.819  23.537  0.00  0.00    +0.000 A 
ATOM     28  C   UNL     1       2.791  -5.687  23.253  0.00  0.00    +0.005 A 
ENDBRANCH  22  23
BRANCH  22  29
ATOM     29  C   UNL     1       5.504  -6.531  22.153  0.00  0.00    +0.147 C 
BRANCH  29  30
ATOM     30  C   UNL     1       6.418  -5.525  21.498  0.00  0.00    +0.307 C 
ATOM     31  O   UNL     1       7.636  -5.644  21.504  0.00  0.00    -0.251 OA
BRANCH  30  32
ATOM     32  O   UNL     1       5.811  -4.548  20.796  0.00  0.00    -0.481 OA
ATOM     33  H   UNL     1       6.161  -4.428  19.892  0.00  0.00    +0.295 HD
ENDBRANCH  30  32
ENDBRANCH  29  30
ENDBRANCH  22  29
ENDBRANCH  18  22
ENDBRANCH   1  20
TORSDOF 8
ENDMDL
MODEL 6
REMARK VINA RESULT:      -6.6      3.999     10.868
REMARK  Name = 
REMARK  8 active torsions:
REMARK  status: ('A' for Active; 'I' for Inactive)
REMARK    1  A    between atoms: C_2  and  C_3
REMARK    2  A    between atoms: C_2  and  N_7
REMARK    3  A    between atoms: C_2  and  C_27
REMARK    4  A    between atoms: C_3  and  C_4
REMARK    5  A    between atoms: C_4  and  O_5
REMARK    6  A    between atoms: C_8  and  C_10
REMARK    7  A    between atoms: C_12  and  C_15
REMARK    8  A    between atoms: C_18  and  C_21
REMARK                            x       y       z     vdW  Elec       q    Type
REMARK                         _______ _______ _______ _____ _____    ______ ____
ROOT
ATOM      1  C   UNL     1       7.849   0.540  24.365  0.00  0.00    +0.074 A 
ATOM      2  S   UNL     1       8.960   0.026  23.165  0.00  0.00    -0.091 S 
ATOM      3  C   UNL     1       8.203  -1.496  23.009  0.00  0.00    +0.054 A 
ATOM      4  C   UNL     1       7.120  -1.652  23.853  0.00  0.00    -0.010 A 
ATOM      5  C   UNL     1       6.939  -0.468  24.652  0.00  0.00    +0.029 A 
ENDROOT
BRANCH   4   6
ATOM      6  C   UNL     1       6.300  -2.871  23.844  0.00  0.00    -0.017 A 
ATOM      7  C   UNL     1       5.946  -3.508  25.037  0.00  0.00    +0.009 A 
ATOM      8  C   UNL     1       5.105  -4.634  25.031  0.00  0.00    +0.009 A 
ATOM      9  C   UNL     1       4.566  -5.155  23.840  0.00  0.00    -0.018 A 
ATOM     10  C   UNL     1       4.970  -4.534  22.647  0.00  0.00    +0.009 A 
ATOM     11  C   UNL     1       5.817  -3.415  22.647  0.00  0.00    +0.009 A 
BRANCH   9  12
ATOM     12  C   UNL     1       3.560  -6.248  23.842  0.00  0.00    -0.015 A 
ATOM     13  C   UNL     1       3.583  -7.253  24.820  0.00  0.00    +0.028 A 
ATOM     14  C   UNL     1       2.581  -8.215  24.848  0.00  0.00    +0.111 A 
ATOM     15  N   UNL     1       1.555  -8.253  23.977  0.00  0.00    -0.263 NA
ATOM     16  C   UNL     1       1.539  -7.294  23.032  0.00  0.00    +0.111 A 
ATOM     17  C   UNL     1       2.502  -6.298  22.919  0.00  0.00    +0.028 A 
ENDBRANCH   9  12
ENDBRANCH   4   6
BRANCH   1  20
ATOM     18  N   UNL     1       8.245   2.890  24.022  0.00  0.00    -0.304 N 
ATOM     19  H   UNL     1       8.776   2.563  23.219  0.00  0.00    +0.150 HD
ATOM     20  C   UNL     1       7.892   1.888  24.920  0.00  0.00    +0.251 C 
ATOM     21  O   UNL     1       7.578   2.149  26.079  0.00  0.00    -0.270 OA
BRANCH  18  22
ATOM     22  C   UNL     1       8.434   4.285  24.436  0.00  0.00    +0.114 C 
BRANCH  22  23
ATOM     23  C   UNL     1       9.866   4.720  24.154  0.00  0.00    -0.027 A 
ATOM     24  C   UNL     1      10.308   5.989  24.561  0.00  0.00    +0.005 A 
ATOM     25  C   UNL     1      11.619   6.403  24.308  0.00  0.00    +0.000 A 
ATOM     26  C   UNL     1      12.506   5.556  23.648  0.00  0.00    +0.000 A 
ATOM     27  C   UNL     1      12.082   4.295  23.233  0.00  0.00    +0.000 A 
ATOM     28  C   UNL     1      10.773   3.880  23.484  0.00  0.00    +0.005 A 
ENDBRANCH  22  23
BRANCH  22  29
ATOM     29  C   UNL     1       7.444   5.217  23.722  0.00  0.00    +0.147 C 
BRANCH  29  30
ATOM     30  C   UNL     1       7.249   4.963  22.247  0.00  0.00    +0.307 C 
ATOM     31  O   UNL     1       6.758   3.927  21.819  0.00  0.00    -0.251 OA
BRANCH  30  32
ATOM     32  O   UNL     1       7.532   5.996  21.430  0.00  0.00    -0.481 OA
ATOM     33  H   UNL     1       8.269   5.827  20.810  0.00  0.00    +0.295 HD
ENDBRANCH  30  32
ENDBRANCH  29  30
ENDBRANCH  22  29
ENDBRANCH  18  22
ENDBRANCH   1  20
TORSDOF 8
ENDMDL
MODEL 7
REMARK VINA RESULT:      -6.5      1.599      2.099
REMARK  Name = 
REMARK  8 active torsions:
REMARK  status: ('A' for Active; 'I' for Inactive)
REMARK    1  A    between atoms: C_2  and  C_3
REMARK    2  A    between atoms: C_2  and  N_7
REMARK    3  A    between atoms: C_2  and  C_27
REMARK    4  A    between atoms: C_3  and  C_4
REMARK    5  A    between atoms: C_4  and  O_5
REMARK    6  A    between atoms: C_8  and  C_10
REMARK    7  A    between atoms: C_12  and  C_15
REMARK    8  A    between atoms: C_18  and  C_21
REMARK                            x       y       z     vdW  Elec       q    Type
REMARK                         _______ _______ _______ _____ _____    ______ ____
ROOT
ATOM      1  C   UNL     1       7.292  -4.238  25.223  0.00  0.00    +0.074 A 
ATOM      2  S   UNL     1       8.835  -4.902  24.877  0.00  0.00    -0.091 S 
ATOM      3  C   UNL     1       9.475  -3.381  24.442  0.00  0.00    +0.054 A 
ATOM      4  C   UNL     1       8.552  -2.357  24.535  0.00  0.00    -0.010 A 
ATOM      5  C   UNL     1       7.280  -2.874  24.970  0.00  0.00    +0.029 A 
ENDROOT
BRANCH   4   6
ATOM      6  C   UNL     1       8.911  -0.961  24.250  0.00  0.00    -0.017 A 
ATOM      7  C   UNL     1       7.958   0.057  24.333  0.00  0.00    +0.009 A 
ATOM      8  C   UNL     1       8.319   1.401  24.127  0.00  0.00    +0.009 A 
ATOM      9  C   UNL     1       9.646   1.782  23.855  0.00  0.00    -0.018 A 
ATOM     10  C   UNL     1      10.582   0.743  23.727  0.00  0.00    +0.009 A 
ATOM     11  C   UNL     1      10.224  -0.600  23.922  0.00  0.00    +0.009 A 
BRANCH   9  12
ATOM     12  C   UNL     1      10.058   3.208  23.787  0.00  0.00    -0.015 A 
ATOM     13  C   UNL     1       9.184   4.235  24.174  0.00  0.00    +0.028 A 
ATOM     14  C   UNL     1       9.623   5.552  24.180  0.00  0.00    +0.111 A 
ATOM     15  N   UNL     1      10.868   5.928  23.831  0.00  0.00    -0.263 NA
ATOM     16  C   UNL     1      11.704   4.943  23.449  0.00  0.00    +0.111 A 
ATOM     17  C   UNL     1      11.351   3.600  23.402  0.00  0.00    +0.028 A 
ENDBRANCH   9  12
ENDBRANCH   4   6
BRANCH   1  20
ATOM     18  N   UNL     1       4.927  -4.669  25.378  0.00  0.00    -0.304 N 
ATOM     19  H   UNL     1       4.851  -3.694  25.100  0.00  0.00    +0.150 HD
ATOM     20  C   UNL     1       6.210  -5.057  25.757  0.00  0.00    +0.251 C 
ATOM     21  O   UNL     1       6.399  -6.060  26.440  0.00  0.00    -0.270 OA
BRANCH  18  22
ATOM     22  C   UNL     1       3.723  -5.320  25.905  0.00  0.00    +0.114 C 
BRANCH  22  23
ATOM     23  C   UNL     1       2.891  -4.313  26.688  0.00  0.00    -0.027 A 
ATOM     24  C   UNL     1       2.256  -3.255  26.019  0.00  0.00    +0.005 A 
ATOM     25  C   UNL     1       1.492  -2.322  26.725  0.00  0.00    +0.000 A 
ATOM     26  C   UNL     1       1.348  -2.434  28.106  0.00  0.00    +0.000 A 
ATOM     27  C   UNL     1       1.975  -3.475  28.786  0.00  0.00    +0.000 A 
ATOM     28  C   UNL     1       2.740  -4.408  28.084  0.00  0.00    +0.005 A 
ENDBRANCH  22  23
BRANCH  22  29
ATOM     29  C   UNL     1       2.886  -5.939  24.776  0.00  0.00    +0.147 C 
BRANCH  29  30
ATOM     30  C   UNL     1       3.296  -7.324  24.337  0.00  0.00    +0.307 C 
ATOM     31  O   UNL     1       2.484  -8.164  23.975  0.00  0.00    -0.251 OA
BRANCH  30  32
ATOM     32  O   UNL     1       4.622  -7.544  24.248  0.00  0.00    -0.481 OA
ATOM     33  H   UNL     1       5.012  -7.297  23.387  0.00  0.00    +0.295 HD
ENDBRANCH  30  32
ENDBRANCH  29  30
ENDBRANCH  22  29
ENDBRANCH  18  22
ENDBRANCH   1  20
TORSDOF 8
ENDMDL
MODEL 8
REMARK VINA RESULT:      -6.4      4.142      5.181
REMARK  Name = 
REMARK  8 active torsions:
REMARK  status: ('A' for Active; 'I' for Inactive)
REMARK    1  A    between atoms: C_2  and  C_3
REMARK    2  A    between atoms: C_2  and  N_7
REMARK    3  A    between atoms: C_2  and  C_27
REMARK    4  A    between atoms: C_3  and  C_4
REMARK    5  A    between atoms: C_4  and  O_5
REMARK    6  A    between atoms: C_8  and  C_10
REMARK    7  A    between atoms: C_12  and  C_15
REMARK    8  A    between atoms: C_18  and  C_21
REMARK                            x       y       z     vdW  Elec       q    Type
REMARK                         _______ _______ _______ _____ _____    ______ ____
ROOT
ATOM      1  C   UNL     1       8.783  -1.428  23.284  0.00  0.00    +0.074 A 
ATOM      2  S   UNL     1      10.155  -0.442  22.993  0.00  0.00    -0.091 S 
ATOM      3  C   UNL     1       9.213   0.981  22.935  0.00  0.00    +0.054 A 
ATOM      4  C   UNL     1       7.864   0.746  23.121  0.00  0.00    -0.010 A 
ATOM      5  C   UNL     1       7.626  -0.662  23.301  0.00  0.00    +0.029 A 
ENDROOT
BRANCH   4   6
ATOM      6  C   UNL     1       6.885   1.841  23.154  0.00  0.00    -0.017 A 
ATOM      7  C   UNL     1       7.041   2.969  22.343  0.00  0.00    +0.009 A 
ATOM      8  C   UNL     1       6.067   3.983  22.325  0.00  0.00    +0.009 A 
ATOM      9  C   UNL     1       4.892   3.902  23.095  0.00  0.00    -0.018 A 
ATOM     10  C   UNL     1       4.775   2.786  23.940  0.00  0.00    +0.009 A 
ATOM     11  C   UNL     1       5.748   1.776  23.968  0.00  0.00    +0.009 A 
BRANCH   9  12
ATOM     12  C   UNL     1       3.795   4.895  22.965  0.00  0.00    -0.015 A 
ATOM     13  C   UNL     1       4.034   6.178  22.450  0.00  0.00    +0.028 A 
ATOM     14  C   UNL     1       2.976   7.056  22.261  0.00  0.00    +0.111 A 
ATOM     15  N   UNL     1       1.694   6.757  22.545  0.00  0.00    -0.263 NA
ATOM     16  C   UNL     1       1.466   5.529  23.050  0.00  0.00    +0.111 A 
ATOM     17  C   UNL     1       2.461   4.588  23.282  0.00  0.00    +0.028 A 
ENDBRANCH   9  12
ENDBRANCH   4   6
BRANCH   1  20
ATOM     18  N   UNL     1       7.784  -3.619  23.205  0.00  0.00    -0.304 N 
ATOM     19  H   UNL     1       6.915  -3.093  23.200  0.00  0.00    +0.150 HD
ATOM     20  C   UNL     1       8.908  -2.861  23.524  0.00  0.00    +0.251 C 
ATOM     21  O   UNL     1       9.946  -3.389  23.916  0.00  0.00    -0.270 OA
BRANCH  18  22
ATOM     22  C   UNL     1       7.706  -5.058  23.478  0.00  0.00    +0.114 C 
BRANCH  22  23
ATOM     23  C   UNL     1       7.067  -5.293  24.840  0.00  0.00    -0.027 A 
ATOM     24  C   UNL     1       7.839  -5.174  26.007  0.00  0.00    +0.005 A 
ATOM     25  C   UNL     1       7.268  -5.389  27.265  0.00  0.00    +0.000 A 
ATOM     26  C   UNL     1       5.919  -5.722  27.375  0.00  0.00    +0.000 A 
ATOM     27  C   UNL     1       5.141  -5.848  26.227  0.00  0.00    +0.000 A 
ATOM     28  C   UNL     1       5.709  -5.635  24.969  0.00  0.00    +0.005 A 
ENDBRANCH  22  23
BRANCH  22  29
ATOM     29  C   UNL     1       6.913  -5.789  22.385  0.00  0.00    +0.147 C 
BRANCH  29  30
ATOM     30  C   UNL     1       6.012  -4.925  21.537  0.00  0.00    +0.307 C 
ATOM     31  O   UNL     1       5.384  -3.981  21.998  0.00  0.00    -0.251 OA
BRANCH  30  32
ATOM     32  O   UNL     1       6.032  -5.175  20.213  0.00  0.00    -0.481 OA
ATOM     33  H   UNL     1       5.251  -4.842  19.730  0.00  0.00    +0.295 HD
ENDBRANCH  30  32
ENDBRANCH  29  30
ENDBRANCH  22  29
ENDBRANCH  18  22
ENDBRANCH   1  20
TORSDOF 8
ENDMDL
MODEL 9
REMARK VINA RESULT:      -6.0      4.272     10.383
REMARK  Name = 
REMARK  8 active torsions:
REMARK  status: ('A' for Active; 'I' for Inactive)
REMARK    1  A    between atoms: C_2  and  C_3
REMARK    2  A    between atoms: C_2  and  N_7
REMARK    3  A    between atoms: C_2  and  C_27
REMARK    4  A    between atoms: C_3  and  C_4
REMARK    5  A    between atoms: C_4  and  O_5
REMARK    6  A    between atoms: C_8  and  C_10
REMARK    7  A    between atoms: C_12  and  C_15
REMARK    8  A    between atoms: C_18  and  C_21
REMARK                            x       y       z     vdW  Elec       q    Type
REMARK                         _______ _______ _______ _____ _____    ______ ____
ROOT
ATOM      1  C   UNL     1       9.481   0.112  23.492  0.00  0.00    +0.074 A 
ATOM      2  S   UNL     1      10.333  -1.151  22.705  0.00  0.00    -0.091 S 
ATOM      3  C   UNL     1       9.668  -2.341  23.733  0.00  0.00    +0.054 A 
ATOM      4  C   UNL     1       8.811  -1.819  24.682  0.00  0.00    -0.010 A 
ATOM      5  C   UNL     1       8.729  -0.388  24.544  0.00  0.00    +0.029 A 
ENDROOT
BRANCH   4   6
ATOM      6  C   UNL     1       8.096  -2.679  25.636  0.00  0.00    -0.017 A 
ATOM      7  C   UNL     1       6.891  -2.266  26.211  0.00  0.00    +0.009 A 
ATOM      8  C   UNL     1       6.173  -3.118  27.069  0.00  0.00    +0.009 A 
ATOM      9  C   UNL     1       6.616  -4.420  27.368  0.00  0.00    -0.018 A 
ATOM     10  C   UNL     1       7.853  -4.800  26.822  0.00  0.00    +0.009 A 
ATOM     11  C   UNL     1       8.577  -3.950  25.972  0.00  0.00    +0.009 A 
BRANCH   9  12
ATOM     12  C   UNL     1       5.789  -5.373  28.151  0.00  0.00    -0.015 A 
ATOM     13  C   UNL     1       5.602  -5.208  29.532  0.00  0.00    +0.028 A 
ATOM     14  C   UNL     1       4.756  -6.065  30.223  0.00  0.00    +0.111 A 
ATOM     15  N   UNL     1       4.078  -7.076  29.646  0.00  0.00    -0.263 NA
ATOM     16  C   UNL     1       4.266  -7.241  28.322  0.00  0.00    +0.111 A 
ATOM     17  C   UNL     1       5.099  -6.440  27.550  0.00  0.00    +0.028 A 
ENDBRANCH   9  12
ENDBRANCH   4   6
BRANCH   1  20
ATOM     18  N   UNL     1       8.993   2.440  23.872  0.00  0.00    -0.304 N 
ATOM     19  H   UNL     1       8.297   2.068  24.512  0.00  0.00    +0.150 HD
ATOM     20  C   UNL     1       9.552   1.491  23.021  0.00  0.00    +0.251 C 
ATOM     21  O   UNL     1      10.120   1.819  21.982  0.00  0.00    -0.270 OA
BRANCH  18  22
ATOM     22  C   UNL     1       8.890   3.857  23.508  0.00  0.00    +0.114 C 
BRANCH  22  23
ATOM     23  C   UNL     1       7.429   4.232  23.294  0.00  0.00    -0.027 A 
ATOM     24  C   UNL     1       7.099   5.475  22.730  0.00  0.00    +0.005 A 
ATOM     25  C   UNL     1       5.762   5.834  22.530  0.00  0.00    +0.000 A 
ATOM     26  C   UNL     1       4.740   4.958  22.888  0.00  0.00    +0.000 A 
ATOM     27  C   UNL     1       5.051   3.723  23.454  0.00  0.00    +0.000 A 
ATOM     28  C   UNL     1       6.385   3.363  23.656  0.00  0.00    +0.005 A 
ENDBRANCH  22  23
BRANCH  22  29
ATOM     29  C   UNL     1       9.519   4.755  24.583  0.00  0.00    +0.147 C 
BRANCH  29  30
ATOM     30  C   UNL     1      10.558   5.735  24.096  0.00  0.00    +0.307 C 
ATOM     31  O   UNL     1      11.071   6.568  24.831  0.00  0.00    -0.251 OA
BRANCH  30  32
ATOM     32  O   UNL     1      10.984   5.560  22.829  0.00  0.00    -0.481 OA
ATOM     33  H   UNL     1      10.616   6.201  22.190  0.00  0.00    +0.295 HD
ENDBRANCH  30  32
ENDBRANCH  29  30
ENDBRANCH  22  29
ENDBRANCH  18  22
ENDBRANCH   1  20
TORSDOF 8
ENDMDL
