MODEL 1
REMARK VINA RESULT:      -6.6      0.000      0.000
REMARK  Name = 
REMARK  9 active torsions:
REMARK  status: ('A' for Active; 'I' for Inactive)
REMARK    1  A    between atoms: C_2  and  C_4
REMARK    2  A    between atoms: C_5  and  C_6
REMARK    3  A    between atoms: C_6  and  C_7
REMARK    4  A    between atoms: C_7  and  S_8
REMARK    5  A    between atoms: CA_11  and  N_12
REMARK    6  A    between atoms: CA_11  and  C_24
REMARK    7  A    between atoms: N_12  and  C_13
REMARK    8  A    between atoms: C_14  and  C_15
REMARK    9  A    between atoms: C_24  and  O_25
REMARK                            x       y       z     vdW  Elec       q    Type
REMARK                         _______ _______ _______ _____ _____    ______ ____
ROOT
ATOM      1  C   UNL     1       5.145  -4.544  24.571  0.00  0.00    +0.004 C 
ATOM      2  CA  UNL     1       5.955  -3.731  23.846  0.00  0.00    +0.122 C 
ENDROOT
BRANCH   1   4
ATOM      3  C   UNL     1       3.313  -6.198  24.441  0.00  0.00    +0.067 C 
ATOM      4  C   UNL     1       4.481  -5.711  24.004  0.00  0.00    +0.012 C 
BRANCH   3   8
ATOM      5  N   UNL     1       2.225  -7.327  22.665  0.00  0.00    -0.326 N 
ATOM      6  H   UNL     1       2.107  -6.420  22.234  0.00  0.00    +0.145 HD
ATOM      7  H   UNL     1       1.761  -8.130  22.268  0.00  0.00    +0.145 HD
ATOM      8  C   UNL     1       2.782  -7.464  23.899  0.00  0.00    +0.234 C 
ATOM      9  O   UNL     1       2.781  -8.534  24.494  0.00  0.00    -0.271 OA
ENDBRANCH   3   8
ENDBRANCH   1   4
BRANCH   2  10
ATOM     10  C   UNL     1       6.065  -3.882  22.332  0.00  0.00    +0.351 C 
ATOM     11  OXT UNL     1       5.395  -3.322  21.480  0.00  0.00    -0.244 OA
BRANCH  10  12
ATOM     12  O   UNL     1       7.009  -4.803  22.004  0.00  0.00    -0.476 OA
ATOM     13  H   UNL     1       6.578  -5.678  21.952  0.00  0.00    +0.295 HD
ENDBRANCH  10  12
ENDBRANCH   2  10
BRANCH   2  14
ATOM     14  N   UNL     1       6.763  -2.719  24.410  0.00  0.00    -0.294 N 
ATOM     15  H   UNL     1       6.787  -2.944  25.430  0.00  0.00    +0.154 HD
BRANCH  14  16
ATOM     16  C   UNL     1       7.972  -2.237  23.929  0.00  0.00    +0.118 A 
ATOM     17  N   UNL     1       8.156  -1.014  23.255  0.00  0.00    -0.304 N 
ATOM     18  C   UNL     1       9.492  -0.942  22.852  0.00  0.00    +0.048 A 
ATOM     19  C   UNL     1       9.900   0.165  22.050  0.00  0.00    +0.026 A 
ATOM     20  C   UNL     1       9.010   1.118  21.721  0.00  0.00    +0.003 A 
ATOM     21  C   UNL     1       7.648   1.066  22.203  0.00  0.00    +0.018 A 
ATOM     22  C   UNL     1      10.165  -2.028  23.355  0.00  0.00    +0.040 A 
ATOM     23  C   UNL     1       7.262   0.022  22.949  0.00  0.00    +0.093 A 
ATOM     24  C   UNL     1       9.219  -2.856  24.017  0.00  0.00    +0.055 A 
BRANCH  24  25
ATOM     25  C   UNL     1       9.520  -4.120  24.673  0.00  0.00    +0.262 C 
ATOM     26  O   UNL     1       9.038  -5.192  24.320  0.00  0.00    -0.296 OA
ENDBRANCH  24  25
ENDBRANCH  14  16
ENDBRANCH   2  14
BRANCH   1  27
ATOM     27  C   UNL     1       5.116  -4.501  26.095  0.00  0.00    +0.229 C 
BRANCH  27  28
ATOM     28  S   UNL     1       6.334  -5.657  26.860  0.00  0.00    +0.091 S 
ATOM     29  O   UNL     1       5.496  -6.867  27.196  0.00  0.00    -0.152 OA
ATOM     30  O   UNL     1       6.835  -4.840  28.028  0.00  0.00    -0.152 OA
ENDBRANCH  27  28
ENDBRANCH   1  27
TORSDOF 9
ENDMDL
MODEL 2
REMARK VINA RESULT:      -6.5      2.815      4.471
REMARK  Name = 
REMARK  9 active torsions:
REMARK  status: ('A' for Active; 'I' for Inactive)
REMARK    1  A    between atoms: C_2  and  C_4
REMARK    2  A    between atoms: C_5  and  C_6
REMARK    3  A    between atoms: C_6  and  C_7
REMARK    4  A    between atoms: C_7  and  S_8
REMARK    5  A    between atoms: CA_11  and  N_12
REMARK    6  A    between atoms: CA_11  and  C_24
REMARK    7  A    between atoms: N_12  and  C_13
REMARK    8  A    between atoms: C_14  and  C_15
REMARK    9  A    between atoms: C_24  and  O_25
REMARK                            x       y       z     vdW  Elec       q    Type
REMARK                         _______ _______ _______ _____ _____    ______ ____
ROOT
ATOM      1  C   UNL     1       6.987  -2.865  23.945  0.00  0.00    +0.004 C 
ATOM      2  CA  UNL     1       7.680  -1.723  24.186  0.00  0.00    +0.122 C 
ENDROOT
BRANCH   1   4
ATOM      3  C   UNL     1       6.474  -4.364  25.842  0.00  0.00    +0.067 C 
ATOM      4  C   UNL     1       7.164  -4.080  24.731  0.00  0.00    +0.012 C 
BRANCH   3   8
ATOM      5  N   UNL     1       8.145  -5.654  26.918  0.00  0.00    -0.326 N 
ATOM      6  H   UNL     1       8.819  -5.023  26.505  0.00  0.00    +0.145 HD
ATOM      7  H   UNL     1       8.467  -6.486  27.388  0.00  0.00    +0.145 HD
ATOM      8  C   UNL     1       6.815  -5.552  26.650  0.00  0.00    +0.234 C 
ATOM      9  O   UNL     1       6.016  -6.404  27.013  0.00  0.00    -0.271 OA
ENDBRANCH   3   8
ENDBRANCH   1   4
BRANCH   2  10
ATOM     10  C   UNL     1       8.837  -1.703  25.181  0.00  0.00    +0.351 C 
ATOM     11  OXT UNL     1       8.803  -1.363  26.352  0.00  0.00    -0.244 OA
BRANCH  10  12
ATOM     12  O   UNL     1       9.999  -2.076  24.581  0.00  0.00    -0.476 OA
ATOM     13  H   UNL     1      10.730  -1.575  24.993  0.00  0.00    +0.295 HD
ENDBRANCH  10  12
ENDBRANCH   2  10
BRANCH   2  14
ATOM     14  N   UNL     1       7.389  -0.483  23.577  0.00  0.00    -0.294 N 
ATOM     15  H   UNL     1       6.535  -0.144  24.073  0.00  0.00    +0.154 HD
BRANCH  14  16
ATOM     16  C   UNL     1       8.280   0.537  23.268  0.00  0.00    +0.118 A 
ATOM     17  N   UNL     1       8.388   1.764  23.950  0.00  0.00    -0.304 N 
ATOM     18  C   UNL     1       9.327   2.549  23.277  0.00  0.00    +0.048 A 
ATOM     19  C   UNL     1       9.533   3.889  23.719  0.00  0.00    +0.026 A 
ATOM     20  C   UNL     1       8.847   4.359  24.777  0.00  0.00    +0.003 A 
ATOM     21  C   UNL     1       7.931   3.513  25.508  0.00  0.00    +0.018 A 
ATOM     22  C   UNL     1       9.885   1.803  22.268  0.00  0.00    +0.040 A 
ATOM     23  C   UNL     1       7.730   2.256  25.087  0.00  0.00    +0.093 A 
ATOM     24  C   UNL     1       9.224   0.546  22.241  0.00  0.00    +0.055 A 
BRANCH  24  25
ATOM     25  C   UNL     1       9.504  -0.533  21.305  0.00  0.00    +0.262 C 
ATOM     26  O   UNL     1       9.710  -1.690  21.655  0.00  0.00    -0.296 OA
ENDBRANCH  24  25
ENDBRANCH  14  16
ENDBRANCH   2  14
BRANCH   1  27
ATOM     27  C   UNL     1       5.747  -2.883  23.058  0.00  0.00    +0.229 C 
BRANCH  27  28
ATOM     28  S   UNL     1       5.475  -4.521  22.253  0.00  0.00    +0.091 S 
ATOM     29  O   UNL     1       5.675  -4.220  20.787  0.00  0.00    -0.152 OA
ATOM     30  O   UNL     1       4.064  -4.841  22.688  0.00  0.00    -0.152 OA
ENDBRANCH  27  28
ENDBRANCH   1  27
TORSDOF 9
ENDMDL
MODEL 3
REMARK VINA RESULT:      -6.4      2.404      3.961
REMARK  Name = 
REMARK  9 active torsions:
REMARK  status: ('A' for Active; 'I' for Inactive)
REMARK    1  A    between atoms: C_2  and  C_4
REMARK    2  A    between atoms: C_5  and  C_6
REMARK    3  A    between atoms: C_6  and  C_7
REMARK    4  A    between atoms: C_7  and  S_8
REMARK    5  A    between atoms: CA_11  and  N_12
REMARK    6  A    between atoms: CA_11  and  C_24
REMARK    7  A    between atoms: N_12  and  C_13
REMARK    8  A    between atoms: C_14  and  C_15
REMARK    9  A    between atoms: C_24  and  O_25
REMARK                            x       y       z     vdW  Elec       q    Type
REMARK                         _______ _______ _______ _____ _____    ______ ____
ROOT
ATOM      1  C   UNL     1       6.405  -4.886  25.244  0.00  0.00    +0.004 C 
ATOM      2  CA  UNL     1       7.612  -4.369  24.899  0.00  0.00    +0.122 C 
ENDROOT
BRANCH   1   4
ATOM      3  C   UNL     1       6.015  -5.414  27.627  0.00  0.00    +0.067 C 
ATOM      4  C   UNL     1       6.227  -5.803  26.364  0.00  0.00    +0.012 C 
BRANCH   3   8
ATOM      5  N   UNL     1       5.318  -7.547  28.387  0.00  0.00    -0.326 N 
ATOM      6  H   UNL     1       4.817  -7.634  27.513  0.00  0.00    +0.145 HD
ATOM      7  H   UNL     1       5.177  -8.236  29.111  0.00  0.00    +0.145 HD
ATOM      8  C   UNL     1       5.983  -6.408  28.719  0.00  0.00    +0.234 C 
ATOM      9  O   UNL     1       6.453  -6.235  29.835  0.00  0.00    -0.271 OA
ENDBRANCH   3   8
ENDBRANCH   1   4
BRANCH   2  10
ATOM     10  C   UNL     1       8.896  -4.874  25.550  0.00  0.00    +0.351 C 
ATOM     11  OXT UNL     1       9.331  -4.588  26.653  0.00  0.00    -0.244 OA
BRANCH  10  12
ATOM     12  O   UNL     1       9.582  -5.686  24.703  0.00  0.00    -0.476 OA
ATOM     13  H   UNL     1       9.679  -6.561  25.128  0.00  0.00    +0.295 HD
ENDBRANCH  10  12
ENDBRANCH   2  10
BRANCH   2  14
ATOM     14  N   UNL     1       7.783  -3.334  23.954  0.00  0.00    -0.294 N 
ATOM     15  H   UNL     1       7.014  -3.484  23.262  0.00  0.00    +0.154 HD
BRANCH  14  16
ATOM     16  C   UNL     1       8.035  -1.992  24.207  0.00  0.00    +0.118 A 
ATOM     17  N   UNL     1       8.591  -1.078  23.292  0.00  0.00    -0.304 N 
ATOM     18  C   UNL     1       8.772   0.138  23.955  0.00  0.00    +0.048 A 
ATOM     19  C   UNL     1       9.427   1.199  23.262  0.00  0.00    +0.026 A 
ATOM     20  C   UNL     1       9.831   1.020  21.992  0.00  0.00    +0.003 A 
ATOM     21  C   UNL     1       9.575  -0.220  21.294  0.00  0.00    +0.018 A 
ATOM     22  C   UNL     1       8.240   0.037  25.217  0.00  0.00    +0.040 A 
ATOM     23  C   UNL     1       8.967  -1.220  21.948  0.00  0.00    +0.093 A 
ATOM     24  C   UNL     1       7.790  -1.300  25.393  0.00  0.00    +0.055 A 
BRANCH  24  25
ATOM     25  C   UNL     1       7.177  -1.830  26.601  0.00  0.00    +0.262 C 
ATOM     26  O   UNL     1       5.997  -1.655  26.888  0.00  0.00    -0.296 OA
ENDBRANCH  24  25
ENDBRANCH  14  16
ENDBRANCH   2  14
BRANCH   1  27
ATOM     27  C   UNL     1       5.099  -4.312  24.707  0.00  0.00    +0.229 C 
BRANCH  27  28
ATOM     28  S   UNL     1       4.668  -4.969  23.039  0.00  0.00    +0.091 S 
ATOM     29  O   UNL     1       5.325  -3.985  22.101  0.00  0.00    -0.152 OA
ATOM     30  O   UNL     1       3.157  -4.949  23.086  0.00  0.00    -0.152 OA
ENDBRANCH  27  28
ENDBRANCH   1  27
TORSDOF 9
ENDMDL
MODEL 4
REMARK VINA RESULT:      -6.4      1.434      2.366
REMARK  Name = 
REMARK  9 active torsions:
REMARK  status: ('A' for Active; 'I' for Inactive)
REMARK    1  A    between atoms: C_2  and  C_4
REMARK    2  A    between atoms: C_5  and  C_6
REMARK    3  A    between atoms: C_6  and  C_7
REMARK    4  A    between atoms: C_7  and  S_8
REMARK    5  A    between atoms: CA_11  and  N_12
REMARK    6  A    between atoms: CA_11  and  C_24
REMARK    7  A    between atoms: N_12  and  C_13
REMARK    8  A    between atoms: C_14  and  C_15
REMARK    9  A    between atoms: C_24  and  O_25
REMARK                            x       y       z     vdW  Elec       q    Type
REMARK                         _______ _______ _______ _____ _____    ______ ____
ROOT
ATOM      1  C   UNL     1       5.673  -4.796  24.837  0.00  0.00    +0.004 C 
ATOM      2  CA  UNL     1       6.352  -3.987  23.984  0.00  0.00    +0.122 C 
ENDROOT
BRANCH   1   4
ATOM      3  C   UNL     1       3.648  -6.185  24.550  0.00  0.00    +0.067 C 
ATOM      4  C   UNL     1       4.964  -5.992  24.398  0.00  0.00    +0.012 C 
BRANCH   3   8
ATOM      5  N   UNL     1       2.471  -7.495  22.965  0.00  0.00    -0.326 N 
ATOM      6  H   UNL     1       2.397  -6.654  22.408  0.00  0.00    +0.145 HD
ATOM      7  H   UNL     1       1.956  -8.318  22.693  0.00  0.00    +0.145 HD
ATOM      8  C   UNL     1       3.039  -7.484  24.202  0.00  0.00    +0.234 C 
ATOM      9  O   UNL     1       2.988  -8.455  24.945  0.00  0.00    -0.271 OA
ENDBRANCH   3   8
ENDBRANCH   1   4
BRANCH   2  10
ATOM     10  C   UNL     1       6.252  -4.178  22.474  0.00  0.00    +0.351 C 
ATOM     11  OXT UNL     1       7.026  -4.782  21.750  0.00  0.00    -0.244 OA
BRANCH  10  12
ATOM     12  O   UNL     1       5.172  -3.523  21.973  0.00  0.00    -0.476 OA
ATOM     13  H   UNL     1       5.490  -2.848  21.341  0.00  0.00    +0.295 HD
ENDBRANCH  10  12
ENDBRANCH   2  10
BRANCH   2  14
ATOM     14  N   UNL     1       7.205  -2.942  24.403  0.00  0.00    -0.294 N 
ATOM     15  H   UNL     1       8.168  -3.330  24.285  0.00  0.00    +0.154 HD
BRANCH  14  16
ATOM     16  C   UNL     1       7.117  -1.596  24.076  0.00  0.00    +0.118 A 
ATOM     17  N   UNL     1       7.876  -0.943  23.086  0.00  0.00    -0.304 N 
ATOM     18  C   UNL     1       7.562   0.418  23.132  0.00  0.00    +0.048 A 
ATOM     19  C   UNL     1       8.289   1.310  22.289  0.00  0.00    +0.026 A 
ATOM     20  C   UNL     1       9.232   0.830  21.459  0.00  0.00    +0.003 A 
ATOM     21  C   UNL     1       9.497  -0.589  21.371  0.00  0.00    +0.018 A 
ATOM     22  C   UNL     1       6.551   0.608  24.041  0.00  0.00    +0.040 A 
ATOM     23  C   UNL     1       8.821  -1.427  22.169  0.00  0.00    +0.093 A 
ATOM     24  C   UNL     1       6.275  -0.644  24.653  0.00  0.00    +0.055 A 
BRANCH  24  25
ATOM     25  C   UNL     1       5.280  -0.874  25.689  0.00  0.00    +0.262 C 
ATOM     26  O   UNL     1       4.325  -1.632  25.547  0.00  0.00    -0.296 OA
ENDBRANCH  24  25
ENDBRANCH  14  16
ENDBRANCH   2  14
BRANCH   1  27
ATOM     27  C   UNL     1       5.857  -4.711  26.348  0.00  0.00    +0.229 C 
BRANCH  27  28
ATOM     28  S   UNL     1       7.464  -5.423  26.908  0.00  0.00    +0.091 S 
ATOM     29  O   UNL     1       7.108  -6.089  28.215  0.00  0.00    -0.152 OA
ATOM     30  O   UNL     1       8.329  -4.187  26.996  0.00  0.00    -0.152 OA
ENDBRANCH  27  28
ENDBRANCH   1  27
TORSDOF 9
ENDMDL
MODEL 5
REMARK VINA RESULT:      -6.3      2.696      4.073
REMARK  Name = 
REMARK  9 active torsions:
REMARK  status: ('A' for Active; 'I' for Inactive)
REMARK    1  A    between atoms: C_2  and  C_4
REMARK    2  A    between atoms: C_5  and  C_6
REMARK    3  A    between atoms: C_6  and  C_7
REMARK    4  A    between atoms: C_7  and  S_8
REMARK    5  A    between atoms: CA_11  and  N_12
REMARK    6  A    between atoms: CA_11  and  C_24
REMARK    7  A    between atoms: N_12  and  C_13
REMARK    8  A    between atoms: C_14  and  C_15
REMARK    9  A    between atoms: C_24  and  O_25
REMARK                            x       y       z     vdW  Elec       q    Type
REMARK                         _______ _______ _______ _____ _____    ______ ____
ROOT
ATOM      1  C   UNL     1       7.053  -3.563  23.998  0.00  0.00    +0.004 C 
ATOM      2  CA  UNL     1       6.929  -2.213  23.927  0.00  0.00    +0.122 C 
ENDROOT
BRANCH   1   4
ATOM      3  C   UNL     1       7.338  -4.917  26.046  0.00  0.00    +0.067 C 
ATOM      4  C   UNL     1       6.555  -4.345  25.123  0.00  0.00    +0.012 C 
BRANCH   3   8
ATOM      5  N   UNL     1       5.623  -6.433  26.657  0.00  0.00    -0.326 N 
ATOM      6  H   UNL     1       5.188  -6.212  25.770  0.00  0.00    +0.145 HD
ATOM      7  H   UNL     1       5.118  -6.987  27.332  0.00  0.00    +0.145 HD
ATOM      8  C   UNL     1       6.757  -5.807  27.072  0.00  0.00    +0.234 C 
ATOM      9  O   UNL     1       7.196  -5.949  28.205  0.00  0.00    -0.271 OA
ENDBRANCH   3   8
ENDBRANCH   1   4
BRANCH   2  10
ATOM     10  C   UNL     1       6.427  -1.407  25.121  0.00  0.00    +0.351 C 
ATOM     11  OXT UNL     1       7.066  -1.054  26.099  0.00  0.00    -0.244 OA
BRANCH  10  12
ATOM     12  O   UNL     1       5.098  -1.148  25.007  0.00  0.00    -0.476 OA
ATOM     13  H   UNL     1       4.933  -0.780  24.117  0.00  0.00    +0.295 HD
ENDBRANCH  10  12
ENDBRANCH   2  10
BRANCH   2  14
ATOM     14  N   UNL     1       7.220  -1.456  22.770  0.00  0.00    -0.294 N 
ATOM     15  H   UNL     1       6.292  -1.317  22.311  0.00  0.00    +0.154 HD
BRANCH  14  16
ATOM     16  C   UNL     1       8.048  -0.347  22.672  0.00  0.00    +0.118 A 
ATOM     17  N   UNL     1       7.623   0.995  22.676  0.00  0.00    -0.304 N 
ATOM     18  C   UNL     1       8.743   1.802  22.462  0.00  0.00    +0.048 A 
ATOM     19  C   UNL     1       8.548   3.208  22.315  0.00  0.00    +0.026 A 
ATOM     20  C   UNL     1       7.311   3.727  22.409  0.00  0.00    +0.003 A 
ATOM     21  C   UNL     1       6.170   2.888  22.701  0.00  0.00    +0.018 A 
ATOM     22  C   UNL     1       9.862   1.008  22.440  0.00  0.00    +0.040 A 
ATOM     23  C   UNL     1       6.350   1.566  22.830  0.00  0.00    +0.093 A 
ATOM     24  C   UNL     1       9.438  -0.343  22.553  0.00  0.00    +0.055 A 
BRANCH  24  25
ATOM     25  C   UNL     1      10.316  -1.504  22.552  0.00  0.00    +0.262 C 
ATOM     26  O   UNL     1      10.303  -2.356  23.435  0.00  0.00    -0.296 OA
ENDBRANCH  24  25
ENDBRANCH  14  16
ENDBRANCH   2  14
BRANCH   1  27
ATOM     27  C   UNL     1       7.426  -4.403  22.783  0.00  0.00    +0.229 C 
BRANCH  27  28
ATOM     28  S   UNL     1       5.954  -4.904  21.789  0.00  0.00    +0.091 S 
ATOM     29  O   UNL     1       6.506  -5.968  20.870  0.00  0.00    -0.152 OA
ATOM     30  O   UNL     1       5.564  -3.594  21.144  0.00  0.00    -0.152 OA
ENDBRANCH  27  28
ENDBRANCH   1  27
TORSDOF 9
ENDMDL
MODEL 6
REMARK VINA RESULT:      -6.2      2.771      4.166
REMARK  Name = 
REMARK  9 active torsions:
REMARK  status: ('A' for Active; 'I' for Inactive)
REMARK    1  A    between atoms: C_2  and  C_4
REMARK    2  A    between atoms: C_5  and  C_6
REMARK    3  A    between atoms: C_6  and  C_7
REMARK    4  A    between atoms: C_7  and  S_8
REMARK    5  A    between atoms: CA_11  and  N_12
REMARK    6  A    between atoms: CA_11  and  C_24
REMARK    7  A    between atoms: N_12  and  C_13
REMARK    8  A    between atoms: C_14  and  C_15
REMARK    9  A    between atoms: C_24  and  O_25
REMARK                            x       y       z     vdW  Elec       q    Type
REMARK                         _______ _______ _______ _____ _____    ______ ____
ROOT
ATOM      1  C   UNL     1       6.215  -4.938  25.297  0.00  0.00    +0.004 C 
ATOM      2  CA  UNL     1       7.379  -4.276  25.077  0.00  0.00    +0.122 C 
ENDROOT
BRANCH   1   4
ATOM      3  C   UNL     1       5.341  -5.895  27.401  0.00  0.00    +0.067 C 
ATOM      4  C   UNL     1       6.080  -5.997  26.290  0.00  0.00    +0.012 C 
BRANCH   3   8
ATOM      5  N   UNL     1       4.135  -7.406  28.772  0.00  0.00    -0.326 N 
ATOM      6  H   UNL     1       3.295  -6.957  28.432  0.00  0.00    +0.145 HD
ATOM      7  H   UNL     1       4.072  -8.072  29.527  0.00  0.00    +0.145 HD
ATOM      8  C   UNL     1       5.373  -6.965  28.419  0.00  0.00    +0.234 C 
ATOM      9  O   UNL     1       6.388  -7.396  28.949  0.00  0.00    -0.271 OA
ENDBRANCH   3   8
ENDBRANCH   1   4
BRANCH   2  10
ATOM     10  C   UNL     1       8.679  -4.738  25.729  0.00  0.00    +0.351 C 
ATOM     11  OXT UNL     1       9.050  -4.530  26.872  0.00  0.00    -0.244 OA
BRANCH  10  12
ATOM     12  O   UNL     1       9.459  -5.404  24.836  0.00  0.00    -0.476 OA
ATOM     13  H   UNL     1       8.956  -5.502  24.004  0.00  0.00    +0.295 HD
ENDBRANCH  10  12
ENDBRANCH   2  10
BRANCH   2  14
ATOM     14  N   UNL     1       7.488  -3.122  24.270  0.00  0.00    -0.294 N 
ATOM     15  H   UNL     1       6.600  -3.106  23.719  0.00  0.00    +0.154 HD
BRANCH  14  16
ATOM     16  C   UNL     1       7.912  -1.858  24.657  0.00  0.00    +0.118 A 
ATOM     17  N   UNL     1       7.236  -1.005  25.550  0.00  0.00    -0.304 N 
ATOM     18  C   UNL     1       7.933   0.205  25.600  0.00  0.00    +0.048 A 
ATOM     19  C   UNL     1       7.378   1.277  26.361  0.00  0.00    +0.026 A 
ATOM     20  C   UNL     1       6.223   1.098  27.027  0.00  0.00    +0.003 A 
ATOM     21  C   UNL     1       5.549  -0.181  27.023  0.00  0.00    +0.018 A 
ATOM     22  C   UNL     1       9.080   0.085  24.855  0.00  0.00    +0.040 A 
ATOM     23  C   UNL     1       6.065  -1.186  26.301  0.00  0.00    +0.093 A 
ATOM     24  C   UNL     1       9.070  -1.197  24.244  0.00  0.00    +0.055 A 
BRANCH  24  25
ATOM     25  C   UNL     1      10.099  -1.715  23.355  0.00  0.00    +0.262 C 
ATOM     26  O   UNL     1      10.478  -2.882  23.374  0.00  0.00    -0.296 OA
ENDBRANCH  24  25
ENDBRANCH  14  16
ENDBRANCH   2  14
BRANCH   1  27
ATOM     27  C   UNL     1       4.882  -4.423  24.765  0.00  0.00    +0.229 C 
BRANCH  27  28
ATOM     28  S   UNL     1       4.559  -4.951  23.027  0.00  0.00    +0.091 S 
ATOM     29  O   UNL     1       5.162  -3.832  22.211  0.00  0.00    -0.152 OA
ATOM     30  O   UNL     1       3.052  -5.055  23.017  0.00  0.00    -0.152 OA
ENDBRANCH  27  28
ENDBRANCH   1  27
TORSDOF 9
ENDMDL
MODEL 7
REMARK VINA RESULT:      -6.2      2.666      3.500
REMARK  Name = 
REMARK  9 active torsions:
REMARK  status: ('A' for Active; 'I' for Inactive)
REMARK    1  A    between atoms: C_2  and  C_4
REMARK    2  A    between atoms: C_5  and  C_6
REMARK    3  A    between atoms: C_6  and  C_7
REMARK    4  A    between atoms: C_7  and  S_8
REMARK    5  A    between atoms: CA_11  and  N_12
REMARK    6  A    between atoms: CA_11  and  C_24
REMARK    7  A    between atoms: N_12  and  C_13
REMARK    8  A    between atoms: C_14  and  C_15
REMARK    9  A    between atoms: C_24  and  O_25
REMARK                            x       y       z     vdW  Elec       q    Type
REMARK                         _______ _______ _______ _____ _____    ______ ____
ROOT
ATOM      1  C   UNL     1       7.475  -3.214  24.337  0.00  0.00    +0.004 C 
ATOM      2  CA  UNL     1       7.452  -1.865  24.486  0.00  0.00    +0.122 C 
ENDROOT
BRANCH   1   4
ATOM      3  C   UNL     1       6.569  -5.062  22.967  0.00  0.00    +0.067 C 
ATOM      4  C   UNL     1       6.392  -3.960  23.706  0.00  0.00    +0.012 C 
BRANCH   3   8
ATOM      5  N   UNL     1       5.801  -6.353  21.135  0.00  0.00    -0.326 N 
ATOM      6  H   UNL     1       6.754  -6.337  20.796  0.00  0.00    +0.145 HD
ATOM      7  H   UNL     1       5.070  -6.722  20.546  0.00  0.00    +0.145 HD
ATOM      8  C   UNL     1       5.430  -5.673  22.253  0.00  0.00    +0.234 C 
ATOM      9  O   UNL     1       4.256  -5.555  22.579  0.00  0.00    -0.271 OA
ENDBRANCH   3   8
ENDBRANCH   1   4
BRANCH   2  10
ATOM     10  C   UNL     1       6.192  -1.062  24.174  0.00  0.00    +0.351 C 
ATOM     11  OXT UNL     1       5.270  -0.806  24.930  0.00  0.00    -0.244 OA
BRANCH  10  12
ATOM     12  O   UNL     1       6.172  -0.680  22.870  0.00  0.00    -0.476 OA
ATOM     13  H   UNL     1       5.261  -0.788  22.533  0.00  0.00    +0.295 HD
ENDBRANCH  10  12
ENDBRANCH   2  10
BRANCH   2  14
ATOM     14  N   UNL     1       8.562  -1.102  24.908  0.00  0.00    -0.294 N 
ATOM     15  H   UNL     1       9.307  -1.809  25.096  0.00  0.00    +0.154 HD
BRANCH  14  16
ATOM     16  C   UNL     1       9.051   0.066  24.338  0.00  0.00    +0.118 A 
ATOM     17  N   UNL     1       8.716   1.374  24.736  0.00  0.00    -0.304 N 
ATOM     18  C   UNL     1       9.338   2.264  23.858  0.00  0.00    +0.048 A 
ATOM     19  C   UNL     1       9.059   3.657  23.992  0.00  0.00    +0.026 A 
ATOM     20  C   UNL     1       8.234   4.084  24.965  0.00  0.00    +0.003 A 
ATOM     21  C   UNL     1       7.653   3.159  25.911  0.00  0.00    +0.018 A 
ATOM     22  C   UNL     1      10.137   1.552  22.999  0.00  0.00    +0.040 A 
ATOM     23  C   UNL     1       7.907   1.849  25.780  0.00  0.00    +0.093 A 
ATOM     24  C   UNL     1       9.953   0.171  23.278  0.00  0.00    +0.055 A 
BRANCH  24  25
ATOM     25  C   UNL     1      10.605  -0.925  22.577  0.00  0.00    +0.262 C 
ATOM     26  O   UNL     1       9.993  -1.869  22.089  0.00  0.00    -0.296 OA
ENDBRANCH  24  25
ENDBRANCH  14  16
ENDBRANCH   2  14
BRANCH   1  27
ATOM     27  C   UNL     1       8.754  -4.023  24.515  0.00  0.00    +0.229 C 
BRANCH  27  28
ATOM     28  S   UNL     1       8.931  -4.704  26.221  0.00  0.00    +0.091 S 
ATOM     29  O   UNL     1       7.872  -5.779  26.273  0.00  0.00    -0.152 OA
ATOM     30  O   UNL     1       8.685  -3.475  27.064  0.00  0.00    -0.152 OA
ENDBRANCH  27  28
ENDBRANCH   1  27
TORSDOF 9
ENDMDL
MODEL 8
REMARK VINA RESULT:      -6.1      2.711      4.505
REMARK  Name = 
REMARK  9 active torsions:
REMARK  status: ('A' for Active; 'I' for Inactive)
REMARK    1  A    between atoms: C_2  and  C_4
REMARK    2  A    between atoms: C_5  and  C_6
REMARK    3  A    between atoms: C_6  and  C_7
REMARK    4  A    between atoms: C_7  and  S_8
REMARK    5  A    between atoms: CA_11  and  N_12
REMARK    6  A    between atoms: CA_11  and  C_24
REMARK    7  A    between atoms: N_12  and  C_13
REMARK    8  A    between atoms: C_14  and  C_15
REMARK    9  A    between atoms: C_24  and  O_25
REMARK                            x       y       z     vdW  Elec       q    Type
REMARK                         _______ _______ _______ _____ _____    ______ ____
ROOT
ATOM      1  C   UNL     1       6.198  -3.303  24.215  0.00  0.00    +0.004 C 
ATOM      2  CA  UNL     1       6.523  -2.029  24.550  0.00  0.00    +0.122 C 
ENDROOT
BRANCH   1   4
ATOM      3  C   UNL     1       5.715  -4.901  26.038  0.00  0.00    +0.067 C 
ATOM      4  C   UNL     1       6.510  -4.449  25.060  0.00  0.00    +0.012 C 
BRANCH   3   8
ATOM      5  N   UNL     1       7.507  -5.928  27.199  0.00  0.00    -0.326 N 
ATOM      6  H   UNL     1       8.115  -5.268  26.732  0.00  0.00    +0.145 HD
ATOM      7  H   UNL     1       7.910  -6.685  27.731  0.00  0.00    +0.145 HD
ATOM      8  C   UNL     1       6.173  -5.981  26.934  0.00  0.00    +0.234 C 
ATOM      9  O   UNL     1       5.462  -6.877  27.370  0.00  0.00    -0.271 OA
ENDBRANCH   3   8
ENDBRANCH   1   4
BRANCH   2  10
ATOM     10  C   UNL     1       7.416  -1.738  25.753  0.00  0.00    +0.351 C 
ATOM     11  OXT UNL     1       8.630  -1.836  25.817  0.00  0.00    -0.244 OA
BRANCH  10  12
ATOM     12  O   UNL     1       6.671  -1.385  26.834  0.00  0.00    -0.476 OA
ATOM     13  H   UNL     1       5.792  -1.804  26.750  0.00  0.00    +0.295 HD
ENDBRANCH  10  12
ENDBRANCH   2  10
BRANCH   2  14
ATOM     14  N   UNL     1       6.062  -0.890  23.854  0.00  0.00    -0.294 N 
ATOM     15  H   UNL     1       5.034  -0.873  24.037  0.00  0.00    +0.154 HD
BRANCH  14  16
ATOM     16  C   UNL     1       6.633   0.375  23.830  0.00  0.00    +0.118 A 
ATOM     17  N   UNL     1       7.787   0.739  23.109  0.00  0.00    -0.304 N 
ATOM     18  C   UNL     1       8.089   2.066  23.422  0.00  0.00    +0.048 A 
ATOM     19  C   UNL     1       9.287   2.633  22.895  0.00  0.00    +0.026 A 
ATOM     20  C   UNL     1      10.080   1.897  22.095  0.00  0.00    +0.003 A 
ATOM     21  C   UNL     1       9.719   0.547  21.722  0.00  0.00    +0.018 A 
ATOM     22  C   UNL     1       7.094   2.568  24.225  0.00  0.00    +0.040 A 
ATOM     23  C   UNL     1       8.598   0.012  22.225  0.00  0.00    +0.093 A 
ATOM     24  C   UNL     1       6.185   1.513  24.502  0.00  0.00    +0.055 A 
BRANCH  24  25
ATOM     25  C   UNL     1       4.997   1.621  25.335  0.00  0.00    +0.262 C 
ATOM     26  O   UNL     1       4.467   0.657  25.879  0.00  0.00    -0.296 OA
ENDBRANCH  24  25
ENDBRANCH  14  16
ENDBRANCH   2  14
BRANCH   1  27
ATOM     27  C   UNL     1       5.205  -3.615  23.100  0.00  0.00    +0.229 C 
BRANCH  27  28
ATOM     28  S   UNL     1       5.494  -5.269  22.336  0.00  0.00    +0.091 S 
ATOM     29  O   UNL     1       5.906  -4.928  20.924  0.00  0.00    -0.152 OA
ATOM     30  O   UNL     1       4.141  -5.921  22.504  0.00  0.00    -0.152 OA
ENDBRANCH  27  28
ENDBRANCH   1  27
TORSDOF 9
ENDMDL
MODEL 9
REMARK VINA RESULT:      -6.0      2.977      4.217
REMARK  Name = 
REMARK  9 active torsions:
REMARK  status: ('A' for Active; 'I' for Inactive)
REMARK    1  A    between atoms: C_2  and  C_4
REMARK    2  A    between atoms: C_5  and  C_6
REMARK    3  A    between atoms: C_6  and  C_7
REMARK    4  A    between atoms: C_7  and  S_8
REMARK    5  A    between atoms: CA_11  and  N_12
REMARK    6  A    between atoms: CA_11  and  C_24
REMARK    7  A    between atoms: N_12  and  C_13
REMARK    8  A    between atoms: C_14  and  C_15
REMARK    9  A    between atoms: C_24  and  O_25
REMARK                            x       y       z     vdW  Elec       q    Type
REMARK                         _______ _______ _______ _____ _____    ______ ____
ROOT
ATOM      1  C   UNL     1       7.131  -2.258  23.628  0.00  0.00    +0.004 C 
ATOM      2  CA  UNL     1       8.094  -1.307  23.532  0.00  0.00    +0.122 C 
ENDROOT
BRANCH   1   4
ATOM      3  C   UNL     1       6.410  -3.888  21.915  0.00  0.00    +0.067 C 
ATOM      4  C   UNL     1       7.208  -3.537  22.931  0.00  0.00    +0.012 C 
BRANCH   3   8
ATOM      5  N   UNL     1       7.271  -6.090  22.072  0.00  0.00    -0.326 N 
ATOM      6  H   UNL     1       7.840  -5.753  22.838  0.00  0.00    +0.145 HD
ATOM      7  H   UNL     1       7.431  -7.015  21.704  0.00  0.00    +0.145 HD
ATOM      8  C   UNL     1       6.467  -5.255  21.360  0.00  0.00    +0.234 C 
ATOM      9  O   UNL     1       5.902  -5.618  20.337  0.00  0.00    -0.271 OA
ENDBRANCH   3   8
ENDBRANCH   1   4
BRANCH   2  10
ATOM     10  C   UNL     1       9.234  -1.443  22.526  0.00  0.00    +0.351 C 
ATOM     11  OXT UNL     1       9.215  -1.160  21.340  0.00  0.00    -0.244 OA
BRANCH  10  12
ATOM     12  O   UNL     1      10.330  -1.998  23.109  0.00  0.00    -0.476 OA
ATOM     13  H   UNL     1      11.126  -1.627  22.678  0.00  0.00    +0.295 HD
ENDBRANCH  10  12
ENDBRANCH   2  10
BRANCH   2  14
ATOM     14  N   UNL     1       8.144  -0.153  24.344  0.00  0.00    -0.294 N 
ATOM     15  H   UNL     1       8.726  -0.436  25.164  0.00  0.00    +0.154 HD
BRANCH  14  16
ATOM     16  C   UNL     1       8.373   1.156  23.940  0.00  0.00    +0.118 A 
ATOM     17  N   UNL     1       7.385   2.067  23.519  0.00  0.00    -0.304 N 
ATOM     18  C   UNL     1       8.027   3.238  23.108  0.00  0.00    +0.048 A 
ATOM     19  C   UNL     1       7.238   4.278  22.533  0.00  0.00    +0.026 A 
ATOM     20  C   UNL     1       5.907   4.126  22.422  0.00  0.00    +0.003 A 
ATOM     21  C   UNL     1       5.247   2.939  22.917  0.00  0.00    +0.018 A 
ATOM     22  C   UNL     1       9.370   3.120  23.367  0.00  0.00    +0.040 A 
ATOM     23  C   UNL     1       5.988   1.957  23.449  0.00  0.00    +0.093 A 
ATOM     24  C   UNL     1       9.602   1.812  23.873  0.00  0.00    +0.055 A 
BRANCH  24  25
ATOM     25  C   UNL     1      10.899   1.275  24.256  0.00  0.00    +0.262 C 
ATOM     26  O   UNL     1      11.033   0.325  25.021  0.00  0.00    -0.296 OA
ENDBRANCH  24  25
ENDBRANCH  14  16
ENDBRANCH   2  14
BRANCH   1  27
ATOM     27  C   UNL     1       6.057  -2.212  24.709  0.00  0.00    +0.229 C 
BRANCH  27  28
ATOM     28  S   UNL     1       6.596  -3.020  26.278  0.00  0.00    +0.091 S 
ATOM     29  O   UNL     1       5.328  -3.061  27.097  0.00  0.00    -0.152 OA
ATOM     30  O   UNL     1       7.673  -2.072  26.752  0.00  0.00    -0.152 OA
ENDBRANCH  27  28
ENDBRANCH   1  27
TORSDOF 9
ENDMDL
