MODEL 1
REMARK VINA RESULT:      -7.0      0.000      0.000
REMARK  Name = 
REMARK  4 active torsions:
REMARK  status: ('A' for Active; 'I' for Inactive)
REMARK    1  A    between atoms: C_4  and  O_5
REMARK    2  A    between atoms: O_5  and  C_6
REMARK    3  A    between atoms: N_16  and  C_17
REMARK    4  A    between atoms: C_20  and  C_23
REMARK                            x       y       z     vdW  Elec       q    Type
REMARK                         _______ _______ _______ _____ _____    ______ ____
ROOT
ATOM      1  N   UNL     1       5.264  -0.931  25.521  0.00  0.00    -0.327 N 
ATOM      2  H   UNL     1       5.155  -0.032  25.074  0.00  0.00    +0.145 HD
ATOM      3  H   UNL     1       4.429  -1.453  25.744  0.00  0.00    +0.145 HD
ATOM      4  C   UNL     1       6.177  -1.717  24.844  0.00  0.00    +0.220 A 
ATOM      5  N   UNL     1       7.069  -1.105  24.092  0.00  0.00    -0.181 NA
ATOM      6  C   UNL     1       7.960  -1.883  23.485  0.00  0.00    +0.227 A 
ATOM      7  N   UNL     1       8.995  -1.326  22.725  0.00  0.00    -0.283 N 
ATOM      8  H   UNL     1       9.589  -2.080  22.413  0.00  0.00    +0.155 HD
ATOM      9  N   UNL     1       7.977  -3.209  23.578  0.00  0.00    -0.161 NA
ATOM     10  C   UNL     1       7.005  -3.714  24.329  0.00  0.00    +0.329 A 
ATOM     11  N   UNL     1       6.085  -3.020  24.989  0.00  0.00    -0.161 NA
ENDROOT
BRANCH   7  12
ATOM     12  C   UNL     1       9.601  -0.064  22.816  0.00  0.00    +0.034 A 
ATOM     13  C   UNL     1       9.538   0.907  21.810  0.00  0.00    +0.024 A 
ATOM     14  C   UNL     1      10.130   2.167  21.979  0.00  0.00    +0.020 A 
ATOM     15  C   UNL     1      10.806   2.471  23.162  0.00  0.00    +0.052 A 
ATOM     16  C   UNL     1      10.890   1.510  24.169  0.00  0.00    +0.020 A 
ATOM     17  C   UNL     1      10.303   0.252  23.990  0.00  0.00    +0.024 A 
BRANCH  15  18
ATOM     18  C   UNL     1      11.415   3.759  23.336  0.00  0.00    +0.099 C 
ATOM     19  N   UNL     1      11.905   4.798  23.484  0.00  0.00    -0.191 NA
ENDBRANCH  15  18
ENDBRANCH   7  12
BRANCH  10  20
ATOM     20  O   UNL     1       6.944  -5.072  24.576  0.00  0.00    -0.421 OA
BRANCH  20  21
ATOM     21  C   UNL     1       5.791  -5.672  25.025  0.00  0.00    +0.168 A 
ATOM     22  C   UNL     1       5.543  -6.032  26.358  0.00  0.00    +0.085 A 
ATOM     23 CL   UNL     1       6.541  -5.550  27.684  0.00  0.00    -0.080 Cl
ATOM     24  C   UNL     1       4.481  -6.896  26.667  0.00  0.00    +0.024 A 
ATOM     25  C   UNL     1       3.667  -7.416  25.660  0.00  0.00    +0.003 A 
ATOM     26  C   UNL     1       3.883  -7.039  24.339  0.00  0.00    +0.024 A 
ATOM     27  C   UNL     1       4.935  -6.171  24.025  0.00  0.00    +0.085 A 
ATOM     28 CL   UNL     1       5.170  -5.771  22.358  0.00  0.00    -0.080 Cl
ENDBRANCH  20  21
ENDBRANCH  10  20
TORSDOF 4
ENDMDL
MODEL 2
REMARK VINA RESULT:      -7.0      2.619      3.456
REMARK  Name = 
REMARK  4 active torsions:
REMARK  status: ('A' for Active; 'I' for Inactive)
REMARK    1  A    between atoms: C_4  and  O_5
REMARK    2  A    between atoms: O_5  and  C_6
REMARK    3  A    between atoms: N_16  and  C_17
REMARK    4  A    between atoms: C_20  and  C_23
REMARK                            x       y       z     vdW  Elec       q    Type
REMARK                         _______ _______ _______ _____ _____    ______ ____
ROOT
ATOM      1  N   UNL     1       9.078  -0.566  27.443  0.00  0.00    -0.327 N 
ATOM      2  H   UNL     1       8.646   0.309  27.702  0.00  0.00    +0.145 HD
ATOM      3  H   UNL     1       9.260  -1.238  28.173  0.00  0.00    +0.145 HD
ATOM      4  C   UNL     1       8.417  -1.152  26.380  0.00  0.00    +0.220 A 
ATOM      5  N   UNL     1       7.711  -0.366  25.594  0.00  0.00    -0.181 NA
ATOM      6  C   UNL     1       7.118  -0.950  24.555  0.00  0.00    +0.227 A 
ATOM      7  N   UNL     1       6.407  -0.192  23.618  0.00  0.00    -0.283 N 
ATOM      8  H   UNL     1       6.101  -0.814  22.886  0.00  0.00    +0.155 HD
ATOM      9  N   UNL     1       7.184  -2.251  24.297  0.00  0.00    -0.161 NA
ATOM     10  C   UNL     1       7.890  -2.947  25.181  0.00  0.00    +0.329 A 
ATOM     11  N   UNL     1       8.532  -2.453  26.234  0.00  0.00    -0.161 NA
ENDROOT
BRANCH   7  12
ATOM     12  C   UNL     1       6.546   1.157  23.260  0.00  0.00    +0.034 A 
ATOM     13  C   UNL     1       5.759   2.190  23.782  0.00  0.00    +0.024 A 
ATOM     14  C   UNL     1       5.974   3.526  23.414  0.00  0.00    +0.020 A 
ATOM     15  C   UNL     1       6.983   3.848  22.504  0.00  0.00    +0.052 A 
ATOM     16  C   UNL     1       7.769   2.830  21.964  0.00  0.00    +0.020 A 
ATOM     17  C   UNL     1       7.542   1.498  22.331  0.00  0.00    +0.024 A 
BRANCH  15  18
ATOM     18  C   UNL     1       7.204   5.214  22.124  0.00  0.00    +0.099 C 
ATOM     19  N   UNL     1       7.375   6.319  21.821  0.00  0.00    -0.191 NA
ENDBRANCH  15  18
ENDBRANCH   7  12
BRANCH  10  20
ATOM     20  O   UNL     1       8.107  -4.300  24.997  0.00  0.00    -0.421 OA
BRANCH  20  21
ATOM     21  C   UNL     1       7.067  -5.170  24.763  0.00  0.00    +0.168 A 
ATOM     22  C   UNL     1       6.505  -5.425  23.504  0.00  0.00    +0.085 A 
ATOM     23 CL   UNL     1       7.196  -4.878  22.017  0.00  0.00    -0.080 Cl
ATOM     24  C   UNL     1       5.273  -6.089  23.405  0.00  0.00    +0.024 A 
ATOM     25  C   UNL     1       4.586  -6.494  24.550  0.00  0.00    +0.003 A 
ATOM     26  C   UNL     1       5.151  -6.277  25.802  0.00  0.00    +0.024 A 
ATOM     27  C   UNL     1       6.383  -5.623  25.907  0.00  0.00    +0.085 A 
ATOM     28 CL   UNL     1       7.011  -5.353  27.497  0.00  0.00    -0.080 Cl
ENDBRANCH  20  21
ENDBRANCH  10  20
TORSDOF 4
ENDMDL
MODEL 3
REMARK VINA RESULT:      -7.0      3.303      8.380
REMARK  Name = 
REMARK  4 active torsions:
REMARK  status: ('A' for Active; 'I' for Inactive)
REMARK    1  A    between atoms: C_4  and  O_5
REMARK    2  A    between atoms: O_5  and  C_6
REMARK    3  A    between atoms: N_16  and  C_17
REMARK    4  A    between atoms: C_20  and  C_23
REMARK                            x       y       z     vdW  Elec       q    Type
REMARK                         _______ _______ _______ _____ _____    ______ ____
ROOT
ATOM      1  N   UNL     1      10.185  -5.643  25.612  0.00  0.00    -0.327 N 
ATOM      2  H   UNL     1       9.888  -6.593  25.447  0.00  0.00    +0.145 HD
ATOM      3  H   UNL     1      11.173  -5.442  25.576  0.00  0.00    +0.145 HD
ATOM      4  C   UNL     1       9.467  -4.754  24.834  0.00  0.00    +0.220 A 
ATOM      5  N   UNL     1       8.284  -5.140  24.403  0.00  0.00    -0.181 NA
ATOM      6  C   UNL     1       7.598  -4.251  23.690  0.00  0.00    +0.227 A 
ATOM      7  N   UNL     1       6.300  -4.534  23.250  0.00  0.00    -0.283 N 
ATOM      8  H   UNL     1       5.942  -3.709  22.793  0.00  0.00    +0.155 HD
ATOM      9  N   UNL     1       8.047  -3.039  23.382  0.00  0.00    -0.161 NA
ATOM     10  C   UNL     1       9.268  -2.779  23.836  0.00  0.00    +0.329 A 
ATOM     11  N   UNL     1      10.020  -3.592  24.570  0.00  0.00    -0.161 NA
ENDROOT
BRANCH   7  12
ATOM     12  C   UNL     1       5.340  -5.408  23.782  0.00  0.00    +0.034 A 
ATOM     13  C   UNL     1       5.446  -6.014  25.040  0.00  0.00    +0.024 A 
ATOM     14  C   UNL     1       4.431  -6.847  25.533  0.00  0.00    +0.020 A 
ATOM     15  C   UNL     1       3.292  -7.094  24.765  0.00  0.00    +0.052 A 
ATOM     16  C   UNL     1       3.176  -6.510  23.504  0.00  0.00    +0.020 A 
ATOM     17  C   UNL     1       4.197  -5.685  23.015  0.00  0.00    +0.024 A 
BRANCH  15  18
ATOM     18  C   UNL     1       2.254  -7.948  25.267  0.00  0.00    +0.099 C 
ATOM     19  N   UNL     1       1.415  -8.641  25.665  0.00  0.00    -0.191 NA
ENDBRANCH  15  18
ENDBRANCH   7  12
BRANCH  10  20
ATOM     20  O   UNL     1       9.832  -1.530  23.656  0.00  0.00    -0.421 OA
BRANCH  20  21
ATOM     21  C   UNL     1       9.127  -0.377  23.913  0.00  0.00    +0.168 A 
ATOM     22  C   UNL     1       8.594  -0.028  25.163  0.00  0.00    +0.085 A 
ATOM     23 CL   UNL     1       8.959  -0.866  26.630  0.00  0.00    -0.080 Cl
ATOM     24  C   UNL     1       7.648   1.004  25.260  0.00  0.00    +0.024 A 
ATOM     25  C   UNL     1       7.216   1.686  24.123  0.00  0.00    +0.003 A 
ATOM     26  C   UNL     1       7.762   1.371  22.884  0.00  0.00    +0.024 A 
ATOM     27  C   UNL     1       8.712   0.349  22.781  0.00  0.00    +0.085 A 
ATOM     28 CL   UNL     1       9.324  -0.017  21.204  0.00  0.00    -0.080 Cl
ENDBRANCH  20  21
ENDBRANCH  10  20
TORSDOF 4
ENDMDL
MODEL 4
REMARK VINA RESULT:      -6.9      4.080      8.950
REMARK  Name = 
REMARK  4 active torsions:
REMARK  status: ('A' for Active; 'I' for Inactive)
REMARK    1  A    between atoms: C_4  and  O_5
REMARK    2  A    between atoms: O_5  and  C_6
REMARK    3  A    between atoms: N_16  and  C_17
REMARK    4  A    between atoms: C_20  and  C_23
REMARK                            x       y       z     vdW  Elec       q    Type
REMARK                         _______ _______ _______ _____ _____    ______ ____
ROOT
ATOM      1  N   UNL     1       9.443  -0.017  26.361  0.00  0.00    -0.327 N 
ATOM      2  H   UNL     1       9.548  -0.974  26.666  0.00  0.00    +0.145 HD
ATOM      3  H   UNL     1      10.104   0.664  26.704  0.00  0.00    +0.145 HD
ATOM      4  C   UNL     1       9.319   0.058  24.987  0.00  0.00    +0.220 A 
ATOM      5  N   UNL     1       8.889  -1.015  24.355  0.00  0.00    -0.181 NA
ATOM      6  C   UNL     1       8.739  -0.903  23.038  0.00  0.00    +0.227 A 
ATOM      7  N   UNL     1       8.217  -1.961  22.285  0.00  0.00    -0.283 N 
ATOM      8  H   UNL     1       8.126  -1.644  21.331  0.00  0.00    +0.155 HD
ATOM      9  N   UNL     1       9.018   0.198  22.349  0.00  0.00    -0.161 NA
ATOM     10  C   UNL     1       9.483   1.200  23.088  0.00  0.00    +0.329 A 
ATOM     11  N   UNL     1       9.647   1.190  24.406  0.00  0.00    -0.161 NA
ENDROOT
BRANCH   7  12
ATOM     12  C   UNL     1       7.364  -3.005  22.670  0.00  0.00    +0.034 A 
ATOM     13  C   UNL     1       5.971  -2.966  22.537  0.00  0.00    +0.024 A 
ATOM     14  C   UNL     1       5.174  -4.060  22.904  0.00  0.00    +0.020 A 
ATOM     15  C   UNL     1       5.765  -5.215  23.420  0.00  0.00    +0.052 A 
ATOM     16  C   UNL     1       7.150  -5.267  23.572  0.00  0.00    +0.020 A 
ATOM     17  C   UNL     1       7.938  -4.167  23.211  0.00  0.00    +0.024 A 
BRANCH  15  18
ATOM     18  C   UNL     1       4.952  -6.335  23.798  0.00  0.00    +0.099 C 
ATOM     19  N   UNL     1       4.298  -7.239  24.111  0.00  0.00    -0.191 NA
ENDBRANCH  15  18
ENDBRANCH   7  12
BRANCH  10  20
ATOM     20  O   UNL     1       9.744   2.431  22.516  0.00  0.00    -0.421 OA
BRANCH  20  21
ATOM     21  C   UNL     1       9.309   3.600  23.095  0.00  0.00    +0.168 A 
ATOM     22  C   UNL     1       7.970   4.013  23.157  0.00  0.00    +0.085 A 
ATOM     23 CL   UNL     1       6.633   2.999  22.741  0.00  0.00    -0.080 Cl
ATOM     24  C   UNL     1       7.658   5.339  23.494  0.00  0.00    +0.024 A 
ATOM     25  C   UNL     1       8.667   6.264  23.761  0.00  0.00    +0.003 A 
ATOM     26  C   UNL     1       9.997   5.857  23.736  0.00  0.00    +0.024 A 
ATOM     27  C   UNL     1      10.314   4.534  23.409  0.00  0.00    +0.085 A 
ATOM     28 CL   UNL     1      11.989   4.104  23.360  0.00  0.00    -0.080 Cl
ENDBRANCH  20  21
ENDBRANCH  10  20
TORSDOF 4
ENDMDL
MODEL 5
REMARK VINA RESULT:      -6.9      3.174      8.354
REMARK  Name = 
REMARK  4 active torsions:
REMARK  status: ('A' for Active; 'I' for Inactive)
REMARK    1  A    between atoms: C_4  and  O_5
REMARK    2  A    between atoms: O_5  and  C_6
REMARK    3  A    between atoms: N_16  and  C_17
REMARK    4  A    between atoms: C_20  and  C_23
REMARK                            x       y       z     vdW  Elec       q    Type
REMARK                         _______ _______ _______ _____ _____    ______ ____
ROOT
ATOM      1  N   UNL     1       5.825  -0.445  27.337  0.00  0.00    -0.327 N 
ATOM      2  H   UNL     1       5.352  -1.101  27.941  0.00  0.00    +0.145 HD
ATOM      3  H   UNL     1       6.123   0.434  27.733  0.00  0.00    +0.145 HD
ATOM      4  C   UNL     1       6.857  -1.056  26.650  0.00  0.00    +0.220 A 
ATOM      5  N   UNL     1       6.792  -2.362  26.489  0.00  0.00    -0.181 NA
ATOM      6  C   UNL     1       7.777  -2.919  25.789  0.00  0.00    +0.227 A 
ATOM      7  N   UNL     1       7.763  -4.287  25.497  0.00  0.00    -0.283 N 
ATOM      8  H   UNL     1       8.556  -4.485  24.907  0.00  0.00    +0.155 HD
ATOM      9  N   UNL     1       8.804  -2.244  25.283  0.00  0.00    -0.161 NA
ATOM     10  C   UNL     1       8.782  -0.941  25.545  0.00  0.00    +0.329 A 
ATOM     11  N   UNL     1       7.835  -0.294  26.215  0.00  0.00    -0.161 NA
ENDROOT
BRANCH   7  12
ATOM     12  C   UNL     1       6.680  -5.173  25.388  0.00  0.00    +0.034 A 
ATOM     13  C   UNL     1       6.094  -5.827  26.478  0.00  0.00    +0.024 A 
ATOM     14  C   UNL     1       4.986  -6.670  26.309  0.00  0.00    +0.020 A 
ATOM     15  C   UNL     1       4.451  -6.878  25.037  0.00  0.00    +0.052 A 
ATOM     16  C   UNL     1       5.031  -6.245  23.938  0.00  0.00    +0.020 A 
ATOM     17  C   UNL     1       6.141  -5.410  24.114  0.00  0.00    +0.024 A 
BRANCH  15  18
ATOM     18  C   UNL     1       3.318  -7.742  24.862  0.00  0.00    +0.099 C 
ATOM     19  N   UNL     1       2.409  -8.444  24.716  0.00  0.00    -0.191 NA
ENDBRANCH  15  18
ENDBRANCH   7  12
BRANCH  10  20
ATOM     20  O   UNL     1       9.746  -0.103  25.017  0.00  0.00    -0.421 OA
BRANCH  20  21
ATOM     21  C   UNL     1       9.531   0.597  23.853  0.00  0.00    +0.168 A 
ATOM     22  C   UNL     1       8.877   1.835  23.774  0.00  0.00    +0.085 A 
ATOM     23 CL   UNL     1       8.465   2.793  25.153  0.00  0.00    -0.080 Cl
ATOM     24  C   UNL     1       8.446   2.324  22.532  0.00  0.00    +0.024 A 
ATOM     25  C   UNL     1       8.649   1.587  21.364  0.00  0.00    +0.003 A 
ATOM     26  C   UNL     1       9.326   0.374  21.427  0.00  0.00    +0.024 A 
ATOM     27  C   UNL     1       9.766  -0.115  22.662  0.00  0.00    +0.085 A 
ATOM     28 CL   UNL     1      10.570  -1.647  22.673  0.00  0.00    -0.080 Cl
ENDBRANCH  20  21
ENDBRANCH  10  20
TORSDOF 4
ENDMDL
MODEL 6
REMARK VINA RESULT:      -6.8      3.231      8.614
REMARK  Name = 
REMARK  4 active torsions:
REMARK  status: ('A' for Active; 'I' for Inactive)
REMARK    1  A    between atoms: C_4  and  O_5
REMARK    2  A    between atoms: O_5  and  C_6
REMARK    3  A    between atoms: N_16  and  C_17
REMARK    4  A    between atoms: C_20  and  C_23
REMARK                            x       y       z     vdW  Elec       q    Type
REMARK                         _______ _______ _______ _____ _____    ______ ____
ROOT
ATOM      1  N   UNL     1       9.783  -5.962  25.610  0.00  0.00    -0.327 N 
ATOM      2  H   UNL     1       9.363  -6.857  25.405  0.00  0.00    +0.145 HD
ATOM      3  H   UNL     1      10.786  -5.881  25.529  0.00  0.00    +0.145 HD
ATOM      4  C   UNL     1       9.144  -4.944  24.928  0.00  0.00    +0.220 A 
ATOM      5  N   UNL     1       7.902  -5.154  24.543  0.00  0.00    -0.181 NA
ATOM      6  C   UNL     1       7.298  -4.143  23.926  0.00  0.00    +0.227 A 
ATOM      7  N   UNL     1       5.955  -4.238  23.544  0.00  0.00    -0.283 N 
ATOM      8  H   UNL     1       5.680  -3.347  23.159  0.00  0.00    +0.155 HD
ATOM      9  N   UNL     1       7.878  -2.976  23.666  0.00  0.00    -0.161 NA
ATOM     10  C   UNL     1       9.143  -2.896  24.065  0.00  0.00    +0.329 A 
ATOM     11  N   UNL     1       9.823  -3.841  24.705  0.00  0.00    -0.161 NA
ENDROOT
BRANCH   7  12
ATOM     12  C   UNL     1       4.921  -5.023  24.076  0.00  0.00    +0.034 A 
ATOM     13  C   UNL     1       4.816  -6.406  23.890  0.00  0.00    +0.024 A 
ATOM     14  C   UNL     1       3.780  -7.142  24.483  0.00  0.00    +0.020 A 
ATOM     15  C   UNL     1       2.823  -6.498  25.269  0.00  0.00    +0.052 A 
ATOM     16  C   UNL     1       2.905  -5.118  25.453  0.00  0.00    +0.020 A 
ATOM     17  C   UNL     1       3.938  -4.389  24.852  0.00  0.00    +0.024 A 
BRANCH  15  18
ATOM     18  C   UNL     1       1.761  -7.248  25.875  0.00  0.00    +0.099 C 
ATOM     19  N   UNL     1       0.908  -7.862  26.363  0.00  0.00    -0.191 NA
ENDBRANCH  15  18
ENDBRANCH   7  12
BRANCH  10  20
ATOM     20  O   UNL     1       9.848  -1.715  23.928  0.00  0.00    -0.421 OA
BRANCH  20  21
ATOM     21  C   UNL     1       9.209  -0.499  23.860  0.00  0.00    +0.168 A 
ATOM     22  C   UNL     1       9.065   0.264  22.692  0.00  0.00    +0.085 A 
ATOM     23 CL   UNL     1       9.443  -0.322  21.110  0.00  0.00    -0.080 Cl
ATOM     24  C   UNL     1       8.669   1.607  22.774  0.00  0.00    +0.024 A 
ATOM     25  C   UNL     1       8.425   2.205  24.011  0.00  0.00    +0.003 A 
ATOM     26  C   UNL     1       8.533   1.449  25.173  0.00  0.00    +0.024 A 
ATOM     27  C   UNL     1       8.919   0.106  25.097  0.00  0.00    +0.085 A 
ATOM     28 CL   UNL     1       9.068  -0.767  26.583  0.00  0.00    -0.080 Cl
ENDBRANCH  20  21
ENDBRANCH  10  20
TORSDOF 4
ENDMDL
MODEL 7
REMARK VINA RESULT:      -6.8      3.164      8.861
REMARK  Name = 
REMARK  4 active torsions:
REMARK  status: ('A' for Active; 'I' for Inactive)
REMARK    1  A    between atoms: C_4  and  O_5
REMARK    2  A    between atoms: O_5  and  C_6
REMARK    3  A    between atoms: N_16  and  C_17
REMARK    4  A    between atoms: C_20  and  C_23
REMARK                            x       y       z     vdW  Elec       q    Type
REMARK                         _______ _______ _______ _____ _____    ______ ____
ROOT
ATOM      1  N   UNL     1       9.895  -5.582  25.484  0.00  0.00    -0.327 N 
ATOM      2  H   UNL     1       9.660  -6.463  25.050  0.00  0.00    +0.145 HD
ATOM      3  H   UNL     1      10.857  -5.279  25.449  0.00  0.00    +0.145 HD
ATOM      4  C   UNL     1       9.042  -4.578  25.066  0.00  0.00    +0.220 A 
ATOM      5  N   UNL     1       7.858  -4.935  24.613  0.00  0.00    -0.181 NA
ATOM      6  C   UNL     1       7.041  -3.947  24.256  0.00  0.00    +0.227 A 
ATOM      7  N   UNL     1       5.735  -4.216  23.833  0.00  0.00    -0.283 N 
ATOM      8  H   UNL     1       5.273  -3.333  23.678  0.00  0.00    +0.155 HD
ATOM      9  N   UNL     1       7.363  -2.659  24.312  0.00  0.00    -0.161 NA
ATOM     10  C   UNL     1       8.597  -2.425  24.746  0.00  0.00    +0.329 A 
ATOM     11  N   UNL     1       9.475  -3.340  25.142  0.00  0.00    -0.161 NA
ENDROOT
BRANCH   7  12
ATOM     12  C   UNL     1       4.900  -5.304  24.127  0.00  0.00    +0.034 A 
ATOM     13  C   UNL     1       5.019  -6.093  25.278  0.00  0.00    +0.024 A 
ATOM     14  C   UNL     1       4.126  -7.143  25.535  0.00  0.00    +0.020 A 
ATOM     15  C   UNL     1       3.098  -7.426  24.633  0.00  0.00    +0.052 A 
ATOM     16  C   UNL     1       2.973  -6.659  23.475  0.00  0.00    +0.020 A 
ATOM     17  C   UNL     1       3.873  -5.618  23.221  0.00  0.00    +0.024 A 
BRANCH  15  18
ATOM     18  C   UNL     1       2.184  -8.501  24.893  0.00  0.00    +0.099 C 
ATOM     19  N   UNL     1       1.453  -9.375  25.103  0.00  0.00    -0.191 NA
ENDBRANCH  15  18
ENDBRANCH   7  12
BRANCH  10  20
ATOM     20  O   UNL     1       9.042  -1.129  24.927  0.00  0.00    -0.421 OA
BRANCH  20  21
ATOM     21  C   UNL     1       8.949  -0.189  23.927  0.00  0.00    +0.168 A 
ATOM     22  C   UNL     1       9.694  -0.210  22.738  0.00  0.00    +0.085 A 
ATOM     23 CL   UNL     1      10.656  -1.554  22.232  0.00  0.00    -0.080 Cl
ATOM     24  C   UNL     1       9.751   0.931  21.924  0.00  0.00    +0.024 A 
ATOM     25  C   UNL     1       9.082   2.101  22.287  0.00  0.00    +0.003 A 
ATOM     26  C   UNL     1       8.314   2.122  23.446  0.00  0.00    +0.024 A 
ATOM     27  C   UNL     1       8.246   0.984  24.257  0.00  0.00    +0.085 A 
ATOM     28 CL   UNL     1       7.302   1.091  25.703  0.00  0.00    -0.080 Cl
ENDBRANCH  20  21
ENDBRANCH  10  20
TORSDOF 4
ENDMDL
MODEL 8
REMARK VINA RESULT:      -6.7      2.557      2.849
REMARK  Name = 
REMARK  4 active torsions:
REMARK  status: ('A' for Active; 'I' for Inactive)
REMARK    1  A    between atoms: C_4  and  O_5
REMARK    2  A    between atoms: O_5  and  C_6
REMARK    3  A    between atoms: N_16  and  C_17
REMARK    4  A    between atoms: C_20  and  C_23
REMARK                            x       y       z     vdW  Elec       q    Type
REMARK                         _______ _______ _______ _____ _____    ______ ____
ROOT
ATOM      1  N   UNL     1       9.066  -0.725  27.253  0.00  0.00    -0.327 N 
ATOM      2  H   UNL     1       8.770   0.200  27.530  0.00  0.00    +0.145 HD
ATOM      3  H   UNL     1       9.206  -1.414  27.977  0.00  0.00    +0.145 HD
ATOM      4  C   UNL     1       8.267  -1.221  26.240  0.00  0.00    +0.220 A 
ATOM      5  N   UNL     1       7.621  -0.350  25.493  0.00  0.00    -0.181 NA
ATOM      6  C   UNL     1       6.892  -0.853  24.500  0.00  0.00    +0.227 A 
ATOM      7  N   UNL     1       6.227  -0.010  23.603  0.00  0.00    -0.283 N 
ATOM      8  H   UNL     1       5.796  -0.588  22.898  0.00  0.00    +0.155 HD
ATOM      9  N   UNL     1       6.770  -2.152  24.251  0.00  0.00    -0.161 NA
ATOM     10  C   UNL     1       7.434  -2.933  25.096  0.00  0.00    +0.329 A 
ATOM     11  N   UNL     1       8.202  -2.526  26.101  0.00  0.00    -0.161 NA
ENDROOT
BRANCH   7  12
ATOM     12  C   UNL     1       6.518   1.309  23.222  0.00  0.00    +0.034 A 
ATOM     13  C   UNL     1       7.574   1.663  22.374  0.00  0.00    +0.024 A 
ATOM     14  C   UNL     1       7.789   2.996  21.998  0.00  0.00    +0.020 A 
ATOM     15  C   UNL     1       6.948   4.003  22.475  0.00  0.00    +0.052 A 
ATOM     16  C   UNL     1       5.899   3.671  23.332  0.00  0.00    +0.020 A 
ATOM     17  C   UNL     1       5.696   2.338  23.709  0.00  0.00    +0.024 A 
BRANCH  15  18
ATOM     18  C   UNL     1       7.167   5.369  22.093  0.00  0.00    +0.099 C 
ATOM     19  N   UNL     1       7.351   6.469  21.780  0.00  0.00    -0.191 NA
ENDBRANCH  15  18
ENDBRANCH   7  12
BRANCH  10  20
ATOM     20  O   UNL     1       7.459  -4.303  24.912  0.00  0.00    -0.421 OA
BRANCH  20  21
ATOM     21  C   UNL     1       6.329  -5.072  25.067  0.00  0.00    +0.168 A 
ATOM     22  C   UNL     1       5.871  -5.583  26.290  0.00  0.00    +0.085 A 
ATOM     23 CL   UNL     1       6.512  -5.116  27.826  0.00  0.00    -0.080 Cl
ATOM     24  C   UNL     1       4.893  -6.589  26.309  0.00  0.00    +0.024 A 
ATOM     25  C   UNL     1       4.372  -7.102  25.121  0.00  0.00    +0.003 A 
ATOM     26  C   UNL     1       4.795  -6.578  23.904  0.00  0.00    +0.024 A 
ATOM     27  C   UNL     1       5.763  -5.569  23.878  0.00  0.00    +0.085 A 
ATOM     28 CL   UNL     1       6.271  -4.989  22.329  0.00  0.00    -0.080 Cl
ENDBRANCH  20  21
ENDBRANCH  10  20
TORSDOF 4
ENDMDL
MODEL 9
REMARK VINA RESULT:      -6.7      4.080      8.858
REMARK  Name = 
REMARK  4 active torsions:
REMARK  status: ('A' for Active; 'I' for Inactive)
REMARK    1  A    between atoms: C_4  and  O_5
REMARK    2  A    between atoms: O_5  and  C_6
REMARK    3  A    between atoms: N_16  and  C_17
REMARK    4  A    between atoms: C_20  and  C_23
REMARK                            x       y       z     vdW  Elec       q    Type
REMARK                         _______ _______ _______ _____ _____    ______ ____
ROOT
ATOM      1  N   UNL     1      10.164  -1.297  21.450  0.00  0.00    -0.327 N 
ATOM      2  H   UNL     1       9.892  -2.256  21.293  0.00  0.00    +0.145 HD
ATOM      3  H   UNL     1      10.664  -0.820  20.714  0.00  0.00    +0.145 HD
ATOM      4  C   UNL     1       9.095  -0.542  21.896  0.00  0.00    +0.220 A 
ATOM      5  N   UNL     1       8.103  -1.179  22.482  0.00  0.00    -0.181 NA
ATOM      6  C   UNL     1       7.107  -0.424  22.938  0.00  0.00    +0.227 A 
ATOM      7  N   UNL     1       6.041  -0.996  23.643  0.00  0.00    -0.283 N 
ATOM      8  H   UNL     1       5.440  -0.248  23.953  0.00  0.00    +0.155 HD
ATOM      9  N   UNL     1       7.056   0.897  22.811  0.00  0.00    -0.161 NA
ATOM     10  C   UNL     1       8.092   1.422  22.166  0.00  0.00    +0.329 A 
ATOM     11  N   UNL     1       9.140   0.756  21.694  0.00  0.00    -0.161 NA
ENDROOT
BRANCH   7  12
ATOM     12  C   UNL     1       5.993  -2.176  24.399  0.00  0.00    +0.034 A 
ATOM     13  C   UNL     1       6.613  -2.333  25.645  0.00  0.00    +0.024 A 
ATOM     14  C   UNL     1       6.493  -3.527  26.371  0.00  0.00    +0.020 A 
ATOM     15  C   UNL     1       5.751  -4.591  25.854  0.00  0.00    +0.052 A 
ATOM     16  C   UNL     1       5.138  -4.456  24.609  0.00  0.00    +0.020 A 
ATOM     17  C   UNL     1       5.269  -3.264  23.886  0.00  0.00    +0.024 A 
BRANCH  15  18
ATOM     18  C   UNL     1       5.629  -5.813  26.595  0.00  0.00    +0.099 C 
ATOM     19  N   UNL     1       5.529  -6.796  27.200  0.00  0.00    -0.191 NA
ENDBRANCH  15  18
ENDBRANCH   7  12
BRANCH  10  20
ATOM     20  O   UNL     1       8.211   2.792  22.027  0.00  0.00    -0.421 OA
BRANCH  20  21
ATOM     21  C   UNL     1       8.037   3.642  23.095  0.00  0.00    +0.168 A 
ATOM     22  C   UNL     1       6.839   4.301  23.405  0.00  0.00    +0.085 A 
ATOM     23 CL   UNL     1       5.326   3.952  22.646  0.00  0.00    -0.080 Cl
ATOM     24  C   UNL     1       6.838   5.364  24.322  0.00  0.00    +0.024 A 
ATOM     25  C   UNL     1       8.023   5.786  24.927  0.00  0.00    +0.003 A 
ATOM     26  C   UNL     1       9.210   5.118  24.651  0.00  0.00    +0.024 A 
ATOM     27  C   UNL     1       9.216   4.052  23.745  0.00  0.00    +0.085 A 
ATOM     28 CL   UNL     1      10.735   3.288  23.420  0.00  0.00    -0.080 Cl
ENDBRANCH  20  21
ENDBRANCH  10  20
TORSDOF 4
ENDMDL
