MODEL 1
REMARK VINA RESULT:      -5.4      0.000      0.000
REMARK  Name = 
REMARK  8 active torsions:
REMARK  status: ('A' for Active; 'I' for Inactive)
REMARK    1  A    between atoms: C_1  and  C_2
REMARK    2  A    between atoms: N_4  and  CA_5
REMARK    3  A    between atoms: CA_5  and  CB_7
REMARK    4  A    between atoms: CA_5  and  C_14
REMARK    5  A    between atoms: CB_7  and  CG_8
REMARK    6  A    between atoms: CG_8  and  CD_9
REMARK    7  A    between atoms: CD_9  and  NE_10
REMARK    8  A    between atoms: C_14  and  O_15
REMARK                            x       y       z     vdW  Elec       q    Type
REMARK                         _______ _______ _______ _____ _____    ______ ____
ROOT
ATOM      1  CB  ARG A   1       9.377  -0.845  25.299  0.00  0.00    +0.037 C 
ENDROOT
BRANCH   1   2
ATOM      2  CA  ARG A   1       9.802  -0.537  23.854  0.00  0.00    +0.182 C 
BRANCH   2   5
ATOM      3  C   UNK A   0       7.786   1.866  21.703  0.00  0.00    +0.109 C 
ATOM      4  C   UNK A   0       8.988   1.171  22.282  0.00  0.00    +0.211 C 
ATOM      5  N   ARG A   1       8.692   0.120  23.133  0.00  0.00    -0.303 N 
ATOM      6  H   ARG A   1       7.769   0.113  23.556  0.00  0.00    +0.149 HD
ATOM      7  O   UNK A   0      10.133   1.479  21.978  0.00  0.00    -0.276 OA
ENDBRANCH   2   5
BRANCH   2   8
ATOM      8  C   ARG A   1      10.219  -1.832  23.128  0.00  0.00    +0.325 C 
ATOM      9  OXT ARG A   1      10.275  -2.932  23.662  0.00  0.00    -0.249 OA
BRANCH   8  10
ATOM     10  O   ARG A   1      10.376  -1.665  21.793  0.00  0.00    -0.479 OA
ATOM     11  H   ARG A   1       9.578  -1.236  21.424  0.00  0.00    +0.295 HD
ENDBRANCH   8  10
ENDBRANCH   2   8
ENDBRANCH   1   2
BRANCH   1  12
ATOM     12  CG  ARG A   1       7.922  -1.305  25.480  0.00  0.00    +0.039 C 
BRANCH  12  13
ATOM     13  CD  ARG A   1       7.787  -2.586  26.303  0.00  0.00    +0.196 C 
BRANCH  13  14
ATOM     14  NE  ARG A   1       8.877  -3.496  26.024  0.00  0.00    -0.276 N 
ATOM     15  HE  ARG A   1       9.363  -3.286  25.156  0.00  0.00    +0.258 HD
ATOM     16  CZ  ARG A   1       8.933  -4.797  26.367  0.00  0.00    +0.376 C 
ATOM     17  NH2 ARG A   1       8.134  -5.464  27.113  0.00  0.00    -0.130 NA
ATOM     18  HH2 ARG A   1       7.380  -4.854  27.431  0.00  0.00    +0.306 HD
ATOM     19  NH1 ARG A   1      10.017  -5.401  25.848  0.00  0.00    -0.289 N 
ATOM     20 HH11 ARG A   1      10.127  -6.316  26.275  0.00  0.00    +0.255 HD
ATOM     21 HH12 ARG A   1      10.862  -4.854  25.957  0.00  0.00    +0.255 HD
ENDBRANCH  13  14
ENDBRANCH  12  13
ENDBRANCH   1  12
TORSDOF 7
ENDMDL
MODEL 2
REMARK VINA RESULT:      -5.3      1.436      1.685
REMARK  Name = 
REMARK  8 active torsions:
REMARK  status: ('A' for Active; 'I' for Inactive)
REMARK    1  A    between atoms: C_1  and  C_2
REMARK    2  A    between atoms: N_4  and  CA_5
REMARK    3  A    between atoms: CA_5  and  CB_7
REMARK    4  A    between atoms: CA_5  and  C_14
REMARK    5  A    between atoms: CB_7  and  CG_8
REMARK    6  A    between atoms: CG_8  and  CD_9
REMARK    7  A    between atoms: CD_9  and  NE_10
REMARK    8  A    between atoms: C_14  and  O_15
REMARK                            x       y       z     vdW  Elec       q    Type
REMARK                         _______ _______ _______ _____ _____    ______ ____
ROOT
ATOM      1  CB  ARG A   1       8.001  -1.285  24.598  0.00  0.00    +0.037 C 
ENDROOT
BRANCH   1   2
ATOM      2  CA  ARG A   1       9.463  -0.942  24.269  0.00  0.00    +0.182 C 
BRANCH   2   5
ATOM      3  C   UNK A   0      10.509   2.630  23.485  0.00  0.00    +0.109 C 
ATOM      4  C   UNK A   0      10.592   1.232  24.033  0.00  0.00    +0.211 C 
ATOM      5  N   ARG A   1       9.540   0.407  23.671  0.00  0.00    -0.303 N 
ATOM      6  H   ARG A   1       8.677   0.858  23.382  0.00  0.00    +0.149 HD
ATOM      7  O   UNK A   0      11.542   0.843  24.700  0.00  0.00    -0.276 OA
ENDBRANCH   2   5
BRANCH   2   8
ATOM      8  C   ARG A   1      10.058  -1.988  23.306  0.00  0.00    +0.325 C 
ATOM      9  OXT ARG A   1      10.447  -1.737  22.173  0.00  0.00    -0.249 OA
BRANCH   8  10
ATOM     10  O   ARG A   1      10.251  -3.197  23.888  0.00  0.00    -0.479 OA
ATOM     11  H   ARG A   1       9.459  -3.753  23.745  0.00  0.00    +0.295 HD
ENDBRANCH   8  10
ENDBRANCH   2   8
ENDBRANCH   1   2
BRANCH   1  12
ATOM     12  CG  ARG A   1       7.673  -1.430  26.092  0.00  0.00    +0.039 C 
BRANCH  12  13
ATOM     13  CD  ARG A   1       7.412  -2.874  26.521  0.00  0.00    +0.196 C 
BRANCH  13  14
ATOM     14  NE  ARG A   1       8.506  -3.735  26.123  0.00  0.00    -0.276 N 
ATOM     15  HE  ARG A   1       8.881  -3.510  25.206  0.00  0.00    +0.258 HD
ATOM     16  CZ  ARG A   1       8.660  -5.029  26.462  0.00  0.00    +0.376 C 
ATOM     17  NH2 ARG A   1       7.981  -5.726  27.294  0.00  0.00    -0.130 NA
ATOM     18  HH2 ARG A   1       7.240  -5.150  27.693  0.00  0.00    +0.306 HD
ATOM     19  NH1 ARG A   1       9.706  -5.587  25.826  0.00  0.00    -0.289 N 
ATOM     20 HH11 ARG A   1       9.905  -6.493  26.240  0.00  0.00    +0.255 HD
ATOM     21 HH12 ARG A   1      10.531  -5.001  25.838  0.00  0.00    +0.255 HD
ENDBRANCH  13  14
ENDBRANCH  12  13
ENDBRANCH   1  12
TORSDOF 7
ENDMDL
MODEL 3
REMARK VINA RESULT:      -5.1      2.715      3.714
REMARK  Name = 
REMARK  8 active torsions:
REMARK  status: ('A' for Active; 'I' for Inactive)
REMARK    1  A    between atoms: C_1  and  C_2
REMARK    2  A    between atoms: N_4  and  CA_5
REMARK    3  A    between atoms: CA_5  and  CB_7
REMARK    4  A    between atoms: CA_5  and  C_14
REMARK    5  A    between atoms: CB_7  and  CG_8
REMARK    6  A    between atoms: CG_8  and  CD_9
REMARK    7  A    between atoms: CD_9  and  NE_10
REMARK    8  A    between atoms: C_14  and  O_15
REMARK                            x       y       z     vdW  Elec       q    Type
REMARK                         _______ _______ _______ _____ _____    ______ ____
ROOT
ATOM      1  CB  ARG A   1       6.961  -1.903  23.949  0.00  0.00    +0.037 C 
ENDROOT
BRANCH   1   2
ATOM      2  CA  ARG A   1       7.532  -2.447  22.630  0.00  0.00    +0.182 C 
BRANCH   2   5
ATOM      3  C   UNK A   0       6.279  -5.975  21.955  0.00  0.00    +0.109 C 
ATOM      4  C   UNK A   0       6.417  -4.484  21.814  0.00  0.00    +0.211 C 
ATOM      5  N   ARG A   1       7.409  -3.920  22.598  0.00  0.00    -0.303 N 
ATOM      6  H   ARG A   1       7.713  -4.447  23.410  0.00  0.00    +0.149 HD
ATOM      7  O   UNK A   0       5.741  -3.833  21.028  0.00  0.00    -0.276 OA
ENDBRANCH   2   5
BRANCH   2   8
ATOM      8  C   ARG A   1       9.007  -2.030  22.469  0.00  0.00    +0.325 C 
ATOM      9  OXT ARG A   1       9.414  -1.260  21.610  0.00  0.00    -0.249 OA
BRANCH   8  10
ATOM     10  O   ARG A   1       9.799  -2.484  23.471  0.00  0.00    -0.479 OA
ATOM     11  H   ARG A   1      10.481  -1.812  23.673  0.00  0.00    +0.295 HD
ENDBRANCH   8  10
ENDBRANCH   2   8
ENDBRANCH   1   2
BRANCH   1  12
ATOM     12  CG  ARG A   1       6.631  -2.959  25.016  0.00  0.00    +0.039 C 
BRANCH  12  13
ATOM     13  CD  ARG A   1       7.563  -2.912  26.227  0.00  0.00    +0.196 C 
BRANCH  13  14
ATOM     14  NE  ARG A   1       8.772  -3.667  25.977  0.00  0.00    -0.276 N 
ATOM     15  HE  ARG A   1       9.293  -3.336  25.170  0.00  0.00    +0.258 HD
ATOM     16  CZ  ARG A   1       8.956  -4.977  26.233  0.00  0.00    +0.376 C 
ATOM     17  NH2 ARG A   1       8.188  -5.786  26.862  0.00  0.00    -0.130 NA
ATOM     18  HH2 ARG A   1       7.345  -5.293  27.157  0.00  0.00    +0.306 HD
ATOM     19  NH1 ARG A   1      10.140  -5.412  25.766  0.00  0.00    -0.289 N 
ATOM     20 HH11 ARG A   1      10.326  -6.339  26.136  0.00  0.00    +0.255 HD
ATOM     21 HH12 ARG A   1      10.903  -4.783  25.982  0.00  0.00    +0.255 HD
ENDBRANCH  13  14
ENDBRANCH  12  13
ENDBRANCH   1  12
TORSDOF 7
ENDMDL
MODEL 4
REMARK VINA RESULT:      -5.0      2.976      5.589
REMARK  Name = 
REMARK  8 active torsions:
REMARK  status: ('A' for Active; 'I' for Inactive)
REMARK    1  A    between atoms: C_1  and  C_2
REMARK    2  A    between atoms: N_4  and  CA_5
REMARK    3  A    between atoms: CA_5  and  CB_7
REMARK    4  A    between atoms: CA_5  and  C_14
REMARK    5  A    between atoms: CB_7  and  CG_8
REMARK    6  A    between atoms: CG_8  and  CD_9
REMARK    7  A    between atoms: CD_9  and  NE_10
REMARK    8  A    between atoms: C_14  and  O_15
REMARK                            x       y       z     vdW  Elec       q    Type
REMARK                         _______ _______ _______ _____ _____    ______ ____
ROOT
ATOM      1  CB  ARG A   1       7.441  -1.513  23.713  0.00  0.00    +0.037 C 
ENDROOT
BRANCH   1   2
ATOM      2  CA  ARG A   1       7.907  -2.134  22.387  0.00  0.00    +0.182 C 
BRANCH   2   5
ATOM      3  C   UNK A   0       6.306  -5.576  22.144  0.00  0.00    +0.109 C 
ATOM      4  C   UNK A   0       6.489  -4.096  21.946  0.00  0.00    +0.211 C 
ATOM      5  N   ARG A   1       7.692  -3.596  22.414  0.00  0.00    -0.303 N 
ATOM      6  H   ARG A   1       8.178  -4.143  23.118  0.00  0.00    +0.149 HD
ATOM      7  O   UNK A   0       5.661  -3.403  21.368  0.00  0.00    -0.276 OA
ENDBRANCH   2   5
BRANCH   2   8
ATOM      8  C   ARG A   1       9.395  -1.818  22.137  0.00  0.00    +0.325 C 
ATOM      9  OXT ARG A   1      10.322  -2.375  22.710  0.00  0.00    -0.249 OA
BRANCH   8  10
ATOM     10  O   ARG A   1       9.590  -0.960  21.107  0.00  0.00    -0.479 OA
ATOM     11  H   ARG A   1       8.722  -0.666  20.763  0.00  0.00    +0.295 HD
ENDBRANCH   8  10
ENDBRANCH   2   8
ENDBRANCH   1   2
BRANCH   1  12
ATOM     12  CG  ARG A   1       6.706  -0.169  23.595  0.00  0.00    +0.039 C 
BRANCH  12  13
ATOM     13  CD  ARG A   1       7.556   1.030  24.016  0.00  0.00    +0.196 C 
BRANCH  13  14
ATOM     14  NE  ARG A   1       8.678   1.206  23.120  0.00  0.00    -0.276 N 
ATOM     15  HE  ARG A   1       9.536   0.782  23.462  0.00  0.00    +0.258 HD
ATOM     16  CZ  ARG A   1       8.889   2.261  22.310  0.00  0.00    +0.376 C 
ATOM     17  NH2 ARG A   1       8.106   3.241  22.051  0.00  0.00    -0.130 NA
ATOM     18  HH2 ARG A   1       7.242   3.133  22.582  0.00  0.00    +0.306 HD
ATOM     19  NH1 ARG A   1      10.086   2.189  21.702  0.00  0.00    -0.289 N 
ATOM     20 HH11 ARG A   1      10.132   2.889  20.968  0.00  0.00    +0.255 HD
ATOM     21 HH12 ARG A   1      10.283   1.269  21.329  0.00  0.00    +0.255 HD
ENDBRANCH  13  14
ENDBRANCH  12  13
ENDBRANCH   1  12
TORSDOF 7
ENDMDL
MODEL 5
REMARK VINA RESULT:      -5.0      3.234      5.926
REMARK  Name = 
REMARK  8 active torsions:
REMARK  status: ('A' for Active; 'I' for Inactive)
REMARK    1  A    between atoms: C_1  and  C_2
REMARK    2  A    between atoms: N_4  and  CA_5
REMARK    3  A    between atoms: CA_5  and  CB_7
REMARK    4  A    between atoms: CA_5  and  C_14
REMARK    5  A    between atoms: CB_7  and  CG_8
REMARK    6  A    between atoms: CG_8  and  CD_9
REMARK    7  A    between atoms: CD_9  and  NE_10
REMARK    8  A    between atoms: C_14  and  O_15
REMARK                            x       y       z     vdW  Elec       q    Type
REMARK                         _______ _______ _______ _____ _____    ______ ____
ROOT
ATOM      1  CB  ARG A   1       8.804  -2.692  24.108  0.00  0.00    +0.037 C 
ENDROOT
BRANCH   1   2
ATOM      2  CA  ARG A   1       8.645  -4.220  24.166  0.00  0.00    +0.182 C 
BRANCH   2   5
ATOM      3  C   UNK A   0       5.307  -5.612  22.988  0.00  0.00    +0.109 C 
ATOM      4  C   UNK A   0       6.796  -5.417  23.069  0.00  0.00    +0.211 C 
ATOM      5  N   ARG A   1       7.213  -4.579  24.090  0.00  0.00    -0.303 N 
ATOM      6  H   ARG A   1       6.531  -3.926  24.461  0.00  0.00    +0.149 HD
ATOM      7  O   UNK A   0       7.576  -5.997  22.325  0.00  0.00    -0.276 OA
ENDBRANCH   2   5
BRANCH   2   8
ATOM      8  C   ARG A   1       9.267  -4.777  25.462  0.00  0.00    +0.325 C 
ATOM      9  OXT ARG A   1       9.033  -4.338  26.581  0.00  0.00    -0.249 OA
BRANCH   8  10
ATOM     10  O   ARG A   1       9.991  -5.905  25.262  0.00  0.00    -0.479 OA
ATOM     11  H   ARG A   1       9.963  -6.454  26.071  0.00  0.00    +0.295 HD
ENDBRANCH   8  10
ENDBRANCH   2   8
ENDBRANCH   1   2
BRANCH   1  12
ATOM     12  CG  ARG A   1       8.570  -2.051  22.732  0.00  0.00    +0.039 C 
BRANCH  12  13
ATOM     13  CD  ARG A   1       9.846  -1.503  22.091  0.00  0.00    +0.196 C 
BRANCH  13  14
ATOM     14  NE  ARG A   1       9.651  -0.143  21.637  0.00  0.00    -0.276 N 
ATOM     15  HE  ARG A   1       9.714  -0.044  20.627  0.00  0.00    +0.258 HD
ATOM     16  CZ  ARG A   1       9.993   0.974  22.306  0.00  0.00    +0.376 C 
ATOM     17  NH2 ARG A   1      10.419   1.089  23.509  0.00  0.00    -0.130 NA
ATOM     18  HH2 ARG A   1      10.491   0.164  23.932  0.00  0.00    +0.306 HD
ATOM     19  NH1 ARG A   1       9.804   2.077  21.561  0.00  0.00    -0.289 N 
ATOM     20 HH11 ARG A   1       9.889   2.899  22.151  0.00  0.00    +0.255 HD
ATOM     21 HH12 ARG A   1       8.914   2.077  21.078  0.00  0.00    +0.255 HD
ENDBRANCH  13  14
ENDBRANCH  12  13
ENDBRANCH   1  12
TORSDOF 7
ENDMDL
MODEL 6
REMARK VINA RESULT:      -5.0      2.710      5.794
REMARK  Name = 
REMARK  8 active torsions:
REMARK  status: ('A' for Active; 'I' for Inactive)
REMARK    1  A    between atoms: C_1  and  C_2
REMARK    2  A    between atoms: N_4  and  CA_5
REMARK    3  A    between atoms: CA_5  and  CB_7
REMARK    4  A    between atoms: CA_5  and  C_14
REMARK    5  A    between atoms: CB_7  and  CG_8
REMARK    6  A    between atoms: CG_8  and  CD_9
REMARK    7  A    between atoms: CD_9  and  NE_10
REMARK    8  A    between atoms: C_14  and  O_15
REMARK                            x       y       z     vdW  Elec       q    Type
REMARK                         _______ _______ _______ _____ _____    ______ ____
ROOT
ATOM      1  CB  ARG A   1      10.535  -0.544  22.842  0.00  0.00    +0.037 C 
ENDROOT
BRANCH   1   2
ATOM      2  CA  ARG A   1       9.886  -1.308  24.007  0.00  0.00    +0.182 C 
BRANCH   2   5
ATOM      3  C   UNK A   0       7.517  -4.124  23.046  0.00  0.00    +0.109 C 
ATOM      4  C   UNK A   0       8.684  -3.432  23.695  0.00  0.00    +0.211 C 
ATOM      5  N   ARG A   1       8.709  -2.059  23.523  0.00  0.00    -0.303 N 
ATOM      6  H   ARG A   1       8.183  -1.681  22.741  0.00  0.00    +0.149 HD
ATOM      7  O   UNK A   0       9.513  -4.033  24.366  0.00  0.00    -0.276 OA
ENDBRANCH   2   5
BRANCH   2   8
ATOM      8  C   ARG A   1       9.473  -0.333  25.128  0.00  0.00    +0.325 C 
ATOM      9  OXT ARG A   1       8.411  -0.391  25.733  0.00  0.00    -0.249 OA
BRANCH   8  10
ATOM     10  O   ARG A   1      10.467   0.516  25.486  0.00  0.00    -0.479 OA
ATOM     11  H   ARG A   1      10.760   0.305  26.396  0.00  0.00    +0.295 HD
ENDBRANCH   8  10
ENDBRANCH   2   8
ENDBRANCH   1   2
BRANCH   1  12
ATOM     12  CG  ARG A   1       9.611  -0.235  21.654  0.00  0.00    +0.039 C 
BRANCH  12  13
ATOM     13  CD  ARG A   1       8.975   1.153  21.722  0.00  0.00    +0.196 C 
BRANCH  13  14
ATOM     14  NE  ARG A   1       9.983   2.174  21.906  0.00  0.00    -0.276 N 
ATOM     15  HE  ARG A   1      10.849   1.977  21.412  0.00  0.00    +0.258 HD
ATOM     16  CZ  ARG A   1      10.156   2.930  23.008  0.00  0.00    +0.376 C 
ATOM     17  NH2 ARG A   1       9.409   3.016  24.045  0.00  0.00    -0.130 NA
ATOM     18  HH2 ARG A   1       8.614   2.385  23.943  0.00  0.00    +0.306 HD
ATOM     19  NH1 ARG A   1      11.260   3.692  22.919  0.00  0.00    -0.289 N 
ATOM     20 HH11 ARG A   1      11.256   4.376  23.669  0.00  0.00    +0.255 HD
ATOM     21 HH12 ARG A   1      11.350   4.150  22.021  0.00  0.00    +0.255 HD
ENDBRANCH  13  14
ENDBRANCH  12  13
ENDBRANCH   1  12
TORSDOF 7
ENDMDL
MODEL 7
REMARK VINA RESULT:      -5.0      2.101      5.617
REMARK  Name = 
REMARK  8 active torsions:
REMARK  status: ('A' for Active; 'I' for Inactive)
REMARK    1  A    between atoms: C_1  and  C_2
REMARK    2  A    between atoms: N_4  and  CA_5
REMARK    3  A    between atoms: CA_5  and  CB_7
REMARK    4  A    between atoms: CA_5  and  C_14
REMARK    5  A    between atoms: CB_7  and  CG_8
REMARK    6  A    between atoms: CG_8  and  CD_9
REMARK    7  A    between atoms: CD_9  and  NE_10
REMARK    8  A    between atoms: C_14  and  O_15
REMARK                            x       y       z     vdW  Elec       q    Type
REMARK                         _______ _______ _______ _____ _____    ______ ____
ROOT
ATOM      1  CB  ARG A   1       8.387  -0.554  24.078  0.00  0.00    +0.037 C 
ENDROOT
BRANCH   1   2
ATOM      2  CA  ARG A   1       8.812  -1.813  23.304  0.00  0.00    +0.182 C 
BRANCH   2   5
ATOM      3  C   UNK A   0       9.280  -4.979  25.358  0.00  0.00    +0.109 C 
ATOM      4  C   UNK A   0       8.758  -4.071  24.279  0.00  0.00    +0.211 C 
ATOM      5  N   ARG A   1       9.351  -2.821  24.240  0.00  0.00    -0.303 N 
ATOM      6  H   ARG A   1       9.806  -2.497  25.089  0.00  0.00    +0.149 HD
ATOM      7  O   UNK A   0       7.914  -4.431  23.469  0.00  0.00    -0.276 OA
ENDBRANCH   2   5
BRANCH   2   8
ATOM      8  C   ARG A   1       9.866  -1.457  22.236  0.00  0.00    +0.325 C 
ATOM      9  OXT ARG A   1      11.034  -1.821  22.276  0.00  0.00    -0.249 OA
BRANCH   8  10
ATOM     10  O   ARG A   1       9.341  -0.821  21.162  0.00  0.00    -0.479 OA
ATOM     11  H   ARG A   1       8.692  -0.155  21.466  0.00  0.00    +0.295 HD
ENDBRANCH   8  10
ENDBRANCH   2   8
ENDBRANCH   1   2
BRANCH   1  12
ATOM     12  CG  ARG A   1       9.432   0.012  25.051  0.00  0.00    +0.039 C 
BRANCH  12  13
ATOM     13  CD  ARG A   1      10.200   1.210  24.491  0.00  0.00    +0.196 C 
BRANCH  13  14
ATOM     14  NE  ARG A   1       9.300   2.143  23.849  0.00  0.00    -0.276 N 
ATOM     15  HE  ARG A   1       8.383   2.182  24.285  0.00  0.00    +0.258 HD
ATOM     16  CZ  ARG A   1       9.283   2.456  22.539  0.00  0.00    +0.376 C 
ATOM     17  NH2 ARG A   1      10.116   2.122  21.625  0.00  0.00    -0.130 NA
ATOM     18  HH2 ARG A   1      10.844   1.533  22.029  0.00  0.00    +0.306 HD
ATOM     19  NH1 ARG A   1       8.244   3.252  22.232  0.00  0.00    -0.289 N 
ATOM     20 HH11 ARG A   1       8.367   3.617  21.292  0.00  0.00    +0.255 HD
ATOM     21 HH12 ARG A   1       8.121   4.009  22.893  0.00  0.00    +0.255 HD
ENDBRANCH  13  14
ENDBRANCH  12  13
ENDBRANCH   1  12
TORSDOF 7
ENDMDL
MODEL 8
REMARK VINA RESULT:      -4.9      1.980      2.376
REMARK  Name = 
REMARK  8 active torsions:
REMARK  status: ('A' for Active; 'I' for Inactive)
REMARK    1  A    between atoms: C_1  and  C_2
REMARK    2  A    between atoms: N_4  and  CA_5
REMARK    3  A    between atoms: CA_5  and  CB_7
REMARK    4  A    between atoms: CA_5  and  C_14
REMARK    5  A    between atoms: CB_7  and  CG_8
REMARK    6  A    between atoms: CG_8  and  CD_9
REMARK    7  A    between atoms: CD_9  and  NE_10
REMARK    8  A    between atoms: C_14  and  O_15
REMARK                            x       y       z     vdW  Elec       q    Type
REMARK                         _______ _______ _______ _____ _____    ______ ____
ROOT
ATOM      1  CB  ARG A   1       7.869  -2.737  22.363  0.00  0.00    +0.037 C 
ENDROOT
BRANCH   1   2
ATOM      2  CA  ARG A   1       8.346  -1.524  23.177  0.00  0.00    +0.182 C 
BRANCH   2   5
ATOM      3  C   UNK A   0       8.159   1.970  21.686  0.00  0.00    +0.109 C 
ATOM      4  C   UNK A   0       8.065   0.876  22.714  0.00  0.00    +0.211 C 
ATOM      5  N   ARG A   1       8.522  -0.358  22.285  0.00  0.00    -0.303 N 
ATOM      6  H   ARG A   1       8.555  -0.517  21.283  0.00  0.00    +0.149 HD
ATOM      7  O   UNK A   0       7.668   1.079  23.854  0.00  0.00    -0.276 OA
ENDBRANCH   2   5
BRANCH   2   8
ATOM      8  C   ARG A   1       9.669  -1.847  23.900  0.00  0.00    +0.325 C 
ATOM      9  OXT ARG A   1      10.298  -2.886  23.750  0.00  0.00    -0.249 OA
BRANCH   8  10
ATOM     10  O   ARG A   1      10.154  -0.802  24.613  0.00  0.00    -0.479 OA
ATOM     11  H   ARG A   1       9.834  -0.864  25.536  0.00  0.00    +0.295 HD
ENDBRANCH   8  10
ENDBRANCH   2   8
ENDBRANCH   1   2
BRANCH   1  12
ATOM     12  CG  ARG A   1       6.952  -3.718  23.109  0.00  0.00    +0.039 C 
BRANCH  12  13
ATOM     13  CD  ARG A   1       7.612  -5.066  23.403  0.00  0.00    +0.196 C 
BRANCH  13  14
ATOM     14  NE  ARG A   1       7.631  -5.331  24.825  0.00  0.00    -0.276 N 
ATOM     15  HE  ARG A   1       6.846  -4.920  25.321  0.00  0.00    +0.258 HD
ATOM     16  CZ  ARG A   1       8.730  -5.478  25.590  0.00  0.00    +0.376 C 
ATOM     17  NH2 ARG A   1       9.956  -5.555  25.225  0.00  0.00    -0.130 NA
ATOM     18  HH2 ARG A   1      10.013  -5.471  24.210  0.00  0.00    +0.306 HD
ATOM     19  NH1 ARG A   1       8.417  -5.582  26.893  0.00  0.00    -0.289 N 
ATOM     20 HH11 ARG A   1       9.239  -5.877  27.413  0.00  0.00    +0.255 HD
ATOM     21 HH12 ARG A   1       7.644  -6.214  27.062  0.00  0.00    +0.255 HD
ENDBRANCH  13  14
ENDBRANCH  12  13
ENDBRANCH   1  12
TORSDOF 7
ENDMDL
MODEL 9
REMARK VINA RESULT:      -4.9      3.101      4.125
REMARK  Name = 
REMARK  8 active torsions:
REMARK  status: ('A' for Active; 'I' for Inactive)
REMARK    1  A    between atoms: C_1  and  C_2
REMARK    2  A    between atoms: N_4  and  CA_5
REMARK    3  A    between atoms: CA_5  and  CB_7
REMARK    4  A    between atoms: CA_5  and  C_14
REMARK    5  A    between atoms: CB_7  and  CG_8
REMARK    6  A    between atoms: CG_8  and  CD_9
REMARK    7  A    between atoms: CD_9  and  NE_10
REMARK    8  A    between atoms: C_14  and  O_15
REMARK                            x       y       z     vdW  Elec       q    Type
REMARK                         _______ _______ _______ _____ _____    ______ ____
ROOT
ATOM      1  CB  ARG A   1      10.281   1.450  24.409  0.00  0.00    +0.037 C 
ENDROOT
BRANCH   1   2
ATOM      2  CA  ARG A   1      10.540   2.211  23.100  0.00  0.00    +0.182 C 
BRANCH   2   5
ATOM      3  C   UNK A   0      10.522   5.960  23.744  0.00  0.00    +0.109 C 
ATOM      4  C   UNK A   0      11.069   4.585  23.474  0.00  0.00    +0.211 C 
ATOM      5  N   ARG A   1      10.107   3.617  23.240  0.00  0.00    -0.303 N 
ATOM      6  H   ARG A   1       9.171   3.801  23.587  0.00  0.00    +0.149 HD
ATOM      7  O   UNK A   0      12.271   4.356  23.413  0.00  0.00    -0.276 OA
ENDBRANCH   2   5
BRANCH   2   8
ATOM      8  C   ARG A   1       9.797   1.537  21.929  0.00  0.00    +0.325 C 
ATOM      9  OXT ARG A   1       9.921   0.359  21.623  0.00  0.00    -0.249 OA
BRANCH   8  10
ATOM     10  O   ARG A   1       8.869   2.342  21.356  0.00  0.00    -0.479 OA
ATOM     11  H   ARG A   1       8.337   1.821  20.721  0.00  0.00    +0.295 HD
ENDBRANCH   8  10
ENDBRANCH   2   8
ENDBRANCH   1   2
BRANCH   1  12
ATOM     12  CG  ARG A   1       8.832   1.484  24.921  0.00  0.00    +0.039 C 
BRANCH  12  13
ATOM     13  CD  ARG A   1       8.285   0.105  25.291  0.00  0.00    +0.196 C 
BRANCH  13  14
ATOM     14  NE  ARG A   1       8.449  -0.825  24.195  0.00  0.00    -0.276 N 
ATOM     15  HE  ARG A   1       9.377  -0.800  23.783  0.00  0.00    +0.258 HD
ATOM     16  CZ  ARG A   1       7.490  -1.211  23.332  0.00  0.00    +0.376 C 
ATOM     17  NH2 ARG A   1       6.233  -0.965  23.368  0.00  0.00    -0.130 NA
ATOM     18  HH2 ARG A   1       6.025  -0.385  24.181  0.00  0.00    +0.306 HD
ATOM     19  NH1 ARG A   1       7.988  -1.980  22.347  0.00  0.00    -0.289 N 
ATOM     20 HH11 ARG A   1       7.222  -2.402  21.831  0.00  0.00    +0.255 HD
ATOM     21 HH12 ARG A   1       8.622  -2.691  22.688  0.00  0.00    +0.255 HD
ENDBRANCH  13  14
ENDBRANCH  12  13
ENDBRANCH   1  12
TORSDOF 7
ENDMDL
