MODEL 1
REMARK VINA RESULT:      -6.7      0.000      0.000
REMARK  Name = 
REMARK  23 active torsions:
REMARK  status: ('A' for Active; 'I' for Inactive)
REMARK    1  A    between atoms: C_1  and  C_2
REMARK    2  A    between atoms: C_5  and  O_7
REMARK    3  A    between atoms: O_7  and  C_8
REMARK    4  A    between atoms: C_10  and  C_12
REMARK    5  A    between atoms: C_12  and  O_13
REMARK    6  A    between atoms: C_15  and  O_17
REMARK    7  A    between atoms: O_17  and  C_18
REMARK    8  A    between atoms: C_20  and  C_22
REMARK    9  A    between atoms: C_22  and  O_23
REMARK   10  A    between atoms: C_25  and  O_27
REMARK   11  A    between atoms: C_28  and  O_30
REMARK   12  A    between atoms: C_31  and  O_33
REMARK   13  A    between atoms: C_34  and  O_36
REMARK   14  A    between atoms: C_37  and  O_39
REMARK   15  A    between atoms: C_40  and  O_42
REMARK   16  A    between atoms: C_43  and  O_45
REMARK   17  A    between atoms: C_46  and  N_48
REMARK   18  A    between atoms: N_48  and  C_49
REMARK   19  A    between atoms: C_52  and  C_54
REMARK   20  A    between atoms: C_54  and  O_55
REMARK   21  A    between atoms: C_56  and  O_58
REMARK   22  A    between atoms: C_59  and  O_61
REMARK   23  A    between atoms: C_62  and  O_64
REMARK                            x       y       z     vdW  Elec       q    Type
REMARK                         _______ _______ _______ _____ _____    ______ ____
ROOT
ATOM      1  O   UNL     1       8.544  -1.923  23.945  0.00  0.00    -0.340 OA
ENDROOT
BRANCH   1   7
ATOM      2  C   UNL     1       7.382  -4.283  22.346  0.00  0.00    +0.039 C 
ATOM      3  C   UNL     1       7.765  -4.709  23.771  0.00  0.00    +0.138 C 
ATOM      4  C   UNL     1       6.686  -4.351  24.858  0.00  0.00    +0.114 C 
ATOM      5  C   UNL     1       7.183  -3.532  26.075  0.00  0.00    +0.167 C 
ATOM      6  C   UNL     1       8.672  -3.244  26.095  0.00  0.00    +0.200 C 
ATOM      7  C   UNL     1       9.182  -2.971  24.681  0.00  0.00    +0.282 C 
ATOM      8  O   UNL     1       9.091  -4.227  23.993  0.00  0.00    -0.344 OA
BRANCH   6   9
ATOM      9  O   UNL     1       9.363  -4.379  26.653  0.00  0.00    -0.384 OA
ATOM     10  H   UNL     1      10.137  -4.026  27.138  0.00  0.00    +0.210 HD
ENDBRANCH   6   9
BRANCH   5  11
ATOM     11  O   UNL     1       6.416  -2.314  26.123  0.00  0.00    -0.387 OA
ATOM     12  H   UNL     1       5.837  -2.358  26.902  0.00  0.00    +0.210 HD
ENDBRANCH   5  11
BRANCH   4  13
ATOM     13  N   UNL     1       5.975  -5.579  25.329  0.00  0.00    -0.303 NA
ATOM     14  H   UNL     1       5.579  -5.412  26.253  0.00  0.00    +0.123 HD
BRANCH  13  15
ATOM     15  C   UNL     1       4.906  -6.067  24.426  0.00  0.00    +0.086 C 
ATOM     16  C   UNL     1       3.924  -4.935  23.989  0.00  0.00    +0.162 C 
ATOM     17  C   UNL     1       2.965  -4.483  25.118  0.00  0.00    +0.173 C 
ATOM     18  C   UNL     1       2.282  -5.670  25.838  0.00  0.00    +0.151 C 
ATOM     19  C   UNL     1       3.251  -6.795  26.250  0.00  0.00    +0.047 C 
ATOM     20  C   UNL     1       4.096  -7.225  25.045  0.00  0.00    +0.029 C 
BRANCH  18  21
ATOM     21  O   UNL     1       1.287  -6.211  24.952  0.00  0.00    -0.389 OA
ATOM     22  H   UNL     1       1.731  -6.793  24.310  0.00  0.00    +0.210 HD
ENDBRANCH  18  21
BRANCH  17  23
ATOM     23  O   UNL     1       3.661  -3.604  26.006  0.00  0.00    -0.387 OA
ATOM     24  H   UNL     1       4.062  -4.126  26.724  0.00  0.00    +0.210 HD
ENDBRANCH  17  23
BRANCH  16  25
ATOM     25  O   UNL     1       3.205  -5.402  22.834  0.00  0.00    -0.388 OA
ATOM     26  H   UNL     1       3.854  -5.726  22.183  0.00  0.00    +0.210 HD
ENDBRANCH  16  25
BRANCH  19  27
ATOM     27  C   UNL     1       4.088  -6.441  27.480  0.00  0.00    +0.162 C 
BRANCH  27  28
ATOM     28  O   UNL     1       5.166  -7.366  27.612  0.00  0.00    -0.395 OA
ATOM     29  H   UNL     1       5.919  -6.868  27.972  0.00  0.00    +0.209 HD
ENDBRANCH  27  28
ENDBRANCH  19  27
ENDBRANCH  13  15
ENDBRANCH   4  13
ENDBRANCH   1   7
BRANCH   1  30
ATOM     30  C   UNL     1       8.835  -0.556  24.322  0.00  0.00    +0.183 C 
ATOM     31  C   UNL     1       9.788   0.123  23.346  0.00  0.00    +0.179 C 
ATOM     32  C   UNL     1       9.682   1.618  23.164  0.00  0.00    +0.201 C 
ATOM     33  C   UNL     1       8.398   2.333  23.570  0.00  0.00    +0.282 C 
ATOM     34  O   UNL     1       7.804   1.654  24.688  0.00  0.00    -0.341 OA
ATOM     35  C   UNL     1       7.527   0.248  24.496  0.00  0.00    +0.178 C 
BRANCH  32  36
ATOM     36  O   UNL     1      10.011   1.947  21.811  0.00  0.00    -0.384 OA
ATOM     37  H   UNL     1       9.790   2.891  21.687  0.00  0.00    +0.210 HD
ENDBRANCH  32  36
BRANCH  31  38
ATOM     38  O   UNL     1      11.152  -0.134  23.784  0.00  0.00    -0.386 OA
ATOM     39  H   UNL     1      11.124  -0.807  24.511  0.00  0.00    +0.210 HD
ENDBRANCH  31  38
BRANCH  33  40
ATOM     40  O   UNL     1       8.705   3.690  23.996  0.00  0.00    -0.340 OA
BRANCH  40  41
ATOM     41  C   UNL     1       7.750   4.787  23.997  0.00  0.00    +0.183 C 
ATOM     42  C   UNL     1       6.697   4.799  22.846  0.00  0.00    +0.179 C 
ATOM     43  C   UNL     1       5.583   5.839  22.947  0.00  0.00    +0.201 C 
ATOM     44  C   UNL     1       5.183   6.054  24.406  0.00  0.00    +0.279 C 
ATOM     45  O   UNL     1       6.306   6.406  25.198  0.00  0.00    -0.341 OA
ATOM     46  C   UNL     1       7.252   5.319  25.364  0.00  0.00    +0.178 C 
BRANCH  44  47
ATOM     47  O   UNL     1       4.225   7.106  24.476  0.00  0.00    -0.365 OA
ATOM     48  H   UNL     1       3.859   7.203  23.581  0.00  0.00    +0.213 HD
ENDBRANCH  44  47
BRANCH  43  49
ATOM     49  O   UNL     1       4.437   5.357  22.204  0.00  0.00    -0.384 OA
ATOM     50  H   UNL     1       3.645   5.536  22.744  0.00  0.00    +0.210 HD
ENDBRANCH  43  49
BRANCH  42  51
ATOM     51  O   UNL     1       7.380   4.931  21.581  0.00  0.00    -0.386 OA
ATOM     52  H   UNL     1       7.088   4.191  21.018  0.00  0.00    +0.210 HD
ENDBRANCH  42  51
BRANCH  46  53
ATOM     53  C   UNL     1       6.714   4.352  26.423  0.00  0.00    +0.190 C 
BRANCH  53  54
ATOM     54  O   UNL     1       7.792   3.524  26.885  0.00  0.00    -0.392 OA
ATOM     55  H   UNL     1       7.625   2.626  26.537  0.00  0.00    +0.210 HD
ENDBRANCH  53  54
ENDBRANCH  46  53
ENDBRANCH  40  41
ENDBRANCH  33  40
BRANCH  35  56
ATOM     56  C   UNL     1       6.460  -0.030  23.431  0.00  0.00    +0.190 C 
BRANCH  56  57
ATOM     57  O   UNL     1       5.806  -1.274  23.663  0.00  0.00    -0.392 OA
ATOM     58  H   UNL     1       6.055  -1.866  22.929  0.00  0.00    +0.210 HD
ENDBRANCH  56  57
ENDBRANCH  35  56
ENDBRANCH   1  30
TORSDOF 22
ENDMDL
MODEL 2
REMARK VINA RESULT:      -6.7      2.195      9.745
REMARK  Name = 
REMARK  23 active torsions:
REMARK  status: ('A' for Active; 'I' for Inactive)
REMARK    1  A    between atoms: C_1  and  C_2
REMARK    2  A    between atoms: C_5  and  O_7
REMARK    3  A    between atoms: O_7  and  C_8
REMARK    4  A    between atoms: C_10  and  C_12
REMARK    5  A    between atoms: C_12  and  O_13
REMARK    6  A    between atoms: C_15  and  O_17
REMARK    7  A    between atoms: O_17  and  C_18
REMARK    8  A    between atoms: C_20  and  C_22
REMARK    9  A    between atoms: C_22  and  O_23
REMARK   10  A    between atoms: C_25  and  O_27
REMARK   11  A    between atoms: C_28  and  O_30
REMARK   12  A    between atoms: C_31  and  O_33
REMARK   13  A    between atoms: C_34  and  O_36
REMARK   14  A    between atoms: C_37  and  O_39
REMARK   15  A    between atoms: C_40  and  O_42
REMARK   16  A    between atoms: C_43  and  O_45
REMARK   17  A    between atoms: C_46  and  N_48
REMARK   18  A    between atoms: N_48  and  C_49
REMARK   19  A    between atoms: C_52  and  C_54
REMARK   20  A    between atoms: C_54  and  O_55
REMARK   21  A    between atoms: C_56  and  O_58
REMARK   22  A    between atoms: C_59  and  O_61
REMARK   23  A    between atoms: C_62  and  O_64
REMARK                            x       y       z     vdW  Elec       q    Type
REMARK                         _______ _______ _______ _____ _____    ______ ____
ROOT
ATOM      1  O   UNL     1       8.490  -2.152  24.373  0.00  0.00    -0.340 OA
ENDROOT
BRANCH   1   7
ATOM      2  C   UNL     1      10.035   0.136  25.735  0.00  0.00    +0.039 C 
ATOM      3  C   UNL     1       9.942   0.351  24.217  0.00  0.00    +0.138 C 
ATOM      4  C   UNL     1       8.579   0.973  23.741  0.00  0.00    +0.114 C 
ATOM      5  C   UNL     1       7.816   0.196  22.639  0.00  0.00    +0.167 C 
ATOM      6  C   UNL     1       8.526  -1.035  22.108  0.00  0.00    +0.200 C 
ATOM      7  C   UNL     1       9.262  -1.755  23.237  0.00  0.00    +0.282 C 
ATOM      8  O   UNL     1      10.337  -0.881  23.611  0.00  0.00    -0.344 OA
BRANCH   6   9
ATOM      9  O   UNL     1       9.464  -0.633  21.090  0.00  0.00    -0.384 OA
ATOM     10  H   UNL     1       9.981   0.111  21.463  0.00  0.00    +0.210 HD
ENDBRANCH   6   9
BRANCH   5  11
ATOM     11  O   UNL     1       6.516  -0.138  23.162  0.00  0.00    -0.387 OA
ATOM     12  H   UNL     1       6.640  -0.796  23.867  0.00  0.00    +0.210 HD
ENDBRANCH   5  11
BRANCH   4  13
ATOM     13  N   UNL     1       8.759   2.398  23.324  0.00  0.00    -0.303 NA
ATOM     14  H   UNL     1       8.004   2.669  22.695  0.00  0.00    +0.123 HD
BRANCH  13  15
ATOM     15  C   UNL     1       8.834   3.371  24.439  0.00  0.00    +0.086 C 
ATOM     16  C   UNL     1       7.713   3.152  25.503  0.00  0.00    +0.162 C 
ATOM     17  C   UNL     1       6.310   3.594  25.019  0.00  0.00    +0.173 C 
ATOM     18  C   UNL     1       6.310   5.004  24.380  0.00  0.00    +0.151 C 
ATOM     19  C   UNL     1       7.430   5.222  23.345  0.00  0.00    +0.047 C 
ATOM     20  C   UNL     1       8.784   4.832  23.949  0.00  0.00    +0.029 C 
BRANCH  18  21
ATOM     21  O   UNL     1       6.455   5.968  25.438  0.00  0.00    -0.389 OA
ATOM     22  H   UNL     1       7.013   6.696  25.113  0.00  0.00    +0.210 HD
ENDBRANCH  18  21
BRANCH  17  23
ATOM     23  O   UNL     1       5.764   2.584  24.165  0.00  0.00    -0.387 OA
ATOM     24  H   UNL     1       5.907   1.710  24.571  0.00  0.00    +0.210 HD
ENDBRANCH  17  23
BRANCH  16  25
ATOM     25  O   UNL     1       8.106   3.846  26.701  0.00  0.00    -0.388 OA
ATOM     26  H   UNL     1       9.077   3.805  26.770  0.00  0.00    +0.210 HD
ENDBRANCH  16  25
BRANCH  19  27
ATOM     27  C   UNL     1       7.146   4.540  22.006  0.00  0.00    +0.162 C 
BRANCH  27  28
ATOM     28  O   UNL     1       5.749   4.272  21.890  0.00  0.00    -0.395 OA
ATOM     29  H   UNL     1       5.505   4.461  20.968  0.00  0.00    +0.209 HD
ENDBRANCH  27  28
ENDBRANCH  19  27
ENDBRANCH  13  15
ENDBRANCH   4  13
ENDBRANCH   1   7
BRANCH   1  30
ATOM     30  C   UNL     1       7.788  -3.417  24.307  0.00  0.00    +0.183 C 
ATOM     31  C   UNL     1       8.372  -4.454  25.259  0.00  0.00    +0.179 C 
ATOM     32  C   UNL     1       7.452  -5.511  25.821  0.00  0.00    +0.201 C 
ATOM     33  C   UNL     1       5.946  -5.272  25.815  0.00  0.00    +0.282 C 
ATOM     34  O   UNL     1       5.591  -4.478  24.671  0.00  0.00    -0.341 OA
ATOM     35  C   UNL     1       6.276  -3.210  24.549  0.00  0.00    +0.178 C 
BRANCH  32  36
ATOM     36  O   UNL     1       7.882  -5.845  27.144  0.00  0.00    -0.384 OA
ATOM     37  H   UNL     1       8.677  -6.406  27.050  0.00  0.00    +0.210 HD
ENDBRANCH  32  36
BRANCH  31  38
ATOM     38  O   UNL     1       9.430  -5.171  24.560  0.00  0.00    -0.386 OA
ATOM     39  H   UNL     1      10.301  -4.789  24.836  0.00  0.00    +0.210 HD
ENDBRANCH  31  38
BRANCH  33  40
ATOM     40  O   UNL     1       5.249  -6.544  25.697  0.00  0.00    -0.340 OA
BRANCH  40  41
ATOM     41  C   UNL     1       4.242  -7.018  26.634  0.00  0.00    +0.183 C 
ATOM     42  C   UNL     1       4.554  -6.830  28.150  0.00  0.00    +0.179 C 
ATOM     43  C   UNL     1       3.426  -7.156  29.127  0.00  0.00    +0.201 C 
ATOM     44  C   UNL     1       2.073  -6.771  28.531  0.00  0.00    +0.279 C 
ATOM     45  O   UNL     1       1.875  -7.391  27.270  0.00  0.00    -0.341 OA
ATOM     46  C   UNL     1       2.752  -6.877  26.235  0.00  0.00    +0.178 C 
BRANCH  44  47
ATOM     47  O   UNL     1       1.037  -7.189  29.415  0.00  0.00    -0.365 OA
ATOM     48  H   UNL     1       0.583  -6.380  29.704  0.00  0.00    +0.213 HD
ENDBRANCH  44  47
BRANCH  43  49
ATOM     49  O   UNL     1       3.642  -6.404  30.345  0.00  0.00    -0.384 OA
ATOM     50  H   UNL     1       2.817  -6.448  30.864  0.00  0.00    +0.210 HD
ENDBRANCH  43  49
BRANCH  42  51
ATOM     51  O   UNL     1       5.733  -7.591  28.489  0.00  0.00    -0.386 OA
ATOM     52  H   UNL     1       6.480  -6.967  28.515  0.00  0.00    +0.210 HD
ENDBRANCH  42  51
BRANCH  46  53
ATOM     53  C   UNL     1       2.204  -5.534  25.744  0.00  0.00    +0.190 C 
BRANCH  53  54
ATOM     54  O   UNL     1       2.767  -5.247  24.456  0.00  0.00    -0.392 OA
ATOM     55  H   UNL     1       3.738  -5.308  24.555  0.00  0.00    +0.210 HD
ENDBRANCH  53  54
ENDBRANCH  46  53
ENDBRANCH  40  41
ENDBRANCH  33  40
BRANCH  35  56
ATOM     56  C   UNL     1       5.937  -2.216  25.666  0.00  0.00    +0.190 C 
BRANCH  56  57
ATOM     57  O   UNL     1       4.871  -1.351  25.285  0.00  0.00    -0.392 OA
ATOM     58  H   UNL     1       4.074  -1.906  25.199  0.00  0.00    +0.210 HD
ENDBRANCH  56  57
ENDBRANCH  35  56
ENDBRANCH   1  30
TORSDOF 22
ENDMDL
MODEL 3
REMARK VINA RESULT:      -6.6      1.922      3.046
REMARK  Name = 
REMARK  23 active torsions:
REMARK  status: ('A' for Active; 'I' for Inactive)
REMARK    1  A    between atoms: C_1  and  C_2
REMARK    2  A    between atoms: C_5  and  O_7
REMARK    3  A    between atoms: O_7  and  C_8
REMARK    4  A    between atoms: C_10  and  C_12
REMARK    5  A    between atoms: C_12  and  O_13
REMARK    6  A    between atoms: C_15  and  O_17
REMARK    7  A    between atoms: O_17  and  C_18
REMARK    8  A    between atoms: C_20  and  C_22
REMARK    9  A    between atoms: C_22  and  O_23
REMARK   10  A    between atoms: C_25  and  O_27
REMARK   11  A    between atoms: C_28  and  O_30
REMARK   12  A    between atoms: C_31  and  O_33
REMARK   13  A    between atoms: C_34  and  O_36
REMARK   14  A    between atoms: C_37  and  O_39
REMARK   15  A    between atoms: C_40  and  O_42
REMARK   16  A    between atoms: C_43  and  O_45
REMARK   17  A    between atoms: C_46  and  N_48
REMARK   18  A    between atoms: N_48  and  C_49
REMARK   19  A    between atoms: C_52  and  C_54
REMARK   20  A    between atoms: C_54  and  O_55
REMARK   21  A    between atoms: C_56  and  O_58
REMARK   22  A    between atoms: C_59  and  O_61
REMARK   23  A    between atoms: C_62  and  O_64
REMARK                            x       y       z     vdW  Elec       q    Type
REMARK                         _______ _______ _______ _____ _____    ______ ____
ROOT
ATOM      1  O   UNL     1       8.202  -1.678  23.925  0.00  0.00    -0.340 OA
ENDROOT
BRANCH   1   7
ATOM      2  C   UNL     1       7.459  -4.246  22.398  0.00  0.00    +0.039 C 
ATOM      3  C   UNL     1       7.779  -4.544  23.870  0.00  0.00    +0.138 C 
ATOM      4  C   UNL     1       6.584  -4.265  24.854  0.00  0.00    +0.114 C 
ATOM      5  C   UNL     1       6.883  -3.327  26.050  0.00  0.00    +0.167 C 
ATOM      6  C   UNL     1       8.321  -2.856  26.157  0.00  0.00    +0.200 C 
ATOM      7  C   UNL     1       8.903  -2.598  24.768  0.00  0.00    +0.282 C 
ATOM      8  O   UNL     1       9.017  -3.890  24.155  0.00  0.00    -0.344 OA
BRANCH   6   9
ATOM      9  O   UNL     1       9.098  -3.866  26.832  0.00  0.00    -0.384 OA
ATOM     10  H   UNL     1       8.978  -4.696  26.327  0.00  0.00    +0.210 HD
ENDBRANCH   6   9
BRANCH   5  11
ATOM     11  O   UNL     1       5.975  -2.214  25.968  0.00  0.00    -0.387 OA
ATOM     12  H   UNL     1       5.288  -2.438  25.318  0.00  0.00    +0.210 HD
ENDBRANCH   5  11
BRANCH   4  13
ATOM     13  N   UNL     1       5.991  -5.546  25.349  0.00  0.00    -0.303 NA
ATOM     14  H   UNL     1       5.582  -5.400  26.272  0.00  0.00    +0.123 HD
BRANCH  13  15
ATOM     15  C   UNL     1       4.972  -6.148  24.458  0.00  0.00    +0.086 C 
ATOM     16  C   UNL     1       3.916  -5.111  23.965  0.00  0.00    +0.162 C 
ATOM     17  C   UNL     1       2.912  -4.684  25.065  0.00  0.00    +0.173 C 
ATOM     18  C   UNL     1       2.309  -5.888  25.828  0.00  0.00    +0.151 C 
ATOM     19  C   UNL     1       3.353  -6.920  26.296  0.00  0.00    +0.047 C 
ATOM     20  C   UNL     1       4.242  -7.336  25.118  0.00  0.00    +0.029 C 
BRANCH  18  21
ATOM     21  O   UNL     1       1.367  -6.537  24.957  0.00  0.00    -0.389 OA
ATOM     22  H   UNL     1       1.798  -7.318  24.567  0.00  0.00    +0.210 HD
ENDBRANCH  18  21
BRANCH  17  23
ATOM     23  O   UNL     1       3.531  -3.721  25.921  0.00  0.00    -0.387 OA
ATOM     24  H   UNL     1       3.343  -3.949  26.849  0.00  0.00    +0.210 HD
ENDBRANCH  17  23
BRANCH  16  25
ATOM     25  O   UNL     1       3.247  -5.677  22.824  0.00  0.00    -0.388 OA
ATOM     26  H   UNL     1       2.295  -5.487  22.904  0.00  0.00    +0.210 HD
ENDBRANCH  16  25
BRANCH  19  27
ATOM     27  C   UNL     1       4.146  -6.454  27.518  0.00  0.00    +0.162 C 
BRANCH  27  28
ATOM     28  O   UNL     1       5.202  -7.375  27.786  0.00  0.00    -0.395 OA
ATOM     29  H   UNL     1       6.034  -6.903  27.615  0.00  0.00    +0.209 HD
ENDBRANCH  27  28
ENDBRANCH  19  27
ENDBRANCH  13  15
ENDBRANCH   4  13
ENDBRANCH   1   7
BRANCH   1  30
ATOM     30  C   UNL     1       8.808  -0.386  23.682  0.00  0.00    +0.183 C 
ATOM     31  C   UNL     1       8.726   0.025  22.217  0.00  0.00    +0.179 C 
ATOM     32  C   UNL     1       8.664   1.498  21.888  0.00  0.00    +0.201 C 
ATOM     33  C   UNL     1       8.232   2.488  22.964  0.00  0.00    +0.282 C 
ATOM     34  O   UNL     1       8.649   2.008  24.253  0.00  0.00    -0.341 OA
ATOM     35  C   UNL     1       8.191   0.684  24.610  0.00  0.00    +0.178 C 
BRANCH  32  36
ATOM     36  O   UNL     1       7.864   1.679  20.715  0.00  0.00    -0.384 OA
ATOM     37  H   UNL     1       8.269   1.138  20.010  0.00  0.00    +0.210 HD
ENDBRANCH  32  36
BRANCH  31  38
ATOM     38  O   UNL     1       9.902  -0.492  21.531  0.00  0.00    -0.386 OA
ATOM     39  H   UNL     1      10.706  -0.078  21.935  0.00  0.00    +0.210 HD
ENDBRANCH  31  38
BRANCH  33  40
ATOM     40  O   UNL     1       8.884   3.769  22.742  0.00  0.00    -0.340 OA
BRANCH  40  41
ATOM     41  C   UNL     1       9.857   4.363  23.646  0.00  0.00    +0.183 C 
ATOM     42  C   UNL     1      11.361   4.139  23.300  0.00  0.00    +0.179 C 
ATOM     43  C   UNL     1      12.379   4.911  24.137  0.00  0.00    +0.201 C 
ATOM     44  C   UNL     1      11.835   6.291  24.503  0.00  0.00    +0.279 C 
ATOM     45  O   UNL     1      10.581   6.188  25.159  0.00  0.00    -0.341 OA
ATOM     46  C   UNL     1       9.515   5.730  24.289  0.00  0.00    +0.178 C 
BRANCH  44  47
ATOM     47  O   UNL     1      12.756   6.940  25.374  0.00  0.00    -0.365 OA
ATOM     48  H   UNL     1      12.868   7.842  25.029  0.00  0.00    +0.213 HD
ENDBRANCH  44  47
BRANCH  43  49
ATOM     49  O   UNL     1      13.590   5.067  23.358  0.00  0.00    -0.384 OA
ATOM     50  H   UNL     1      14.102   5.794  23.760  0.00  0.00    +0.210 HD
ENDBRANCH  43  49
BRANCH  42  51
ATOM     51  O   UNL     1      11.653   2.727  23.350  0.00  0.00    -0.386 OA
ATOM     52  H   UNL     1      12.606   2.637  23.536  0.00  0.00    +0.210 HD
ENDBRANCH  42  51
BRANCH  46  53
ATOM     53  C   UNL     1       9.048   6.901  23.419  0.00  0.00    +0.190 C 
BRANCH  53  54
ATOM     54  O   UNL     1       8.391   6.380  22.254  0.00  0.00    -0.392 OA
ATOM     55  H   UNL     1       8.596   5.425  22.221  0.00  0.00    +0.210 HD
ENDBRANCH  53  54
ENDBRANCH  46  53
ENDBRANCH  40  41
ENDBRANCH  33  40
BRANCH  35  56
ATOM     56  C   UNL     1       6.671   0.583  24.780  0.00  0.00    +0.190 C 
BRANCH  56  57
ATOM     57  O   UNL     1       6.068  -0.090  23.679  0.00  0.00    -0.392 OA
ATOM     58  H   UNL     1       5.440   0.536  23.274  0.00  0.00    +0.210 HD
ENDBRANCH  56  57
ENDBRANCH  35  56
ENDBRANCH   1  30
TORSDOF 22
ENDMDL
MODEL 4
REMARK VINA RESULT:      -6.6      2.272      9.874
REMARK  Name = 
REMARK  23 active torsions:
REMARK  status: ('A' for Active; 'I' for Inactive)
REMARK    1  A    between atoms: C_1  and  C_2
REMARK    2  A    between atoms: C_5  and  O_7
REMARK    3  A    between atoms: O_7  and  C_8
REMARK    4  A    between atoms: C_10  and  C_12
REMARK    5  A    between atoms: C_12  and  O_13
REMARK    6  A    between atoms: C_15  and  O_17
REMARK    7  A    between atoms: O_17  and  C_18
REMARK    8  A    between atoms: C_20  and  C_22
REMARK    9  A    between atoms: C_22  and  O_23
REMARK   10  A    between atoms: C_25  and  O_27
REMARK   11  A    between atoms: C_28  and  O_30
REMARK   12  A    between atoms: C_31  and  O_33
REMARK   13  A    between atoms: C_34  and  O_36
REMARK   14  A    between atoms: C_37  and  O_39
REMARK   15  A    between atoms: C_40  and  O_42
REMARK   16  A    between atoms: C_43  and  O_45
REMARK   17  A    between atoms: C_46  and  N_48
REMARK   18  A    between atoms: N_48  and  C_49
REMARK   19  A    between atoms: C_52  and  C_54
REMARK   20  A    between atoms: C_54  and  O_55
REMARK   21  A    between atoms: C_56  and  O_58
REMARK   22  A    between atoms: C_59  and  O_61
REMARK   23  A    between atoms: C_62  and  O_64
REMARK                            x       y       z     vdW  Elec       q    Type
REMARK                         _______ _______ _______ _____ _____    ______ ____
ROOT
ATOM      1  O   UNL     1       8.361  -1.267  24.083  0.00  0.00    -0.340 OA
ENDROOT
BRANCH   1   7
ATOM      2  C   UNL     1      10.689   0.739  24.261  0.00  0.00    +0.039 C 
ATOM      3  C   UNL     1       9.431   1.395  23.673  0.00  0.00    +0.138 C 
ATOM      4  C   UNL     1       8.383   1.852  24.753  0.00  0.00    +0.114 C 
ATOM      5  C   UNL     1       6.938   1.323  24.575  0.00  0.00    +0.167 C 
ATOM      6  C   UNL     1       6.705   0.487  23.331  0.00  0.00    +0.200 C 
ATOM      7  C   UNL     1       7.923  -0.389  23.042  0.00  0.00    +0.282 C 
ATOM      8  O   UNL     1       8.962   0.518  22.647  0.00  0.00    -0.344 OA
BRANCH   6   9
ATOM      9  O   UNL     1       6.457   1.365  22.214  0.00  0.00    -0.384 OA
ATOM     10  H   UNL     1       5.706   0.980  21.717  0.00  0.00    +0.210 HD
ENDBRANCH   6   9
BRANCH   5  11
ATOM     11  O   UNL     1       6.592   0.593  25.766  0.00  0.00    -0.387 OA
ATOM     12  H   UNL     1       6.928   1.093  26.529  0.00  0.00    +0.210 HD
ENDBRANCH   5  11
BRANCH   4  13
ATOM     13  N   UNL     1       8.366   3.342  24.882  0.00  0.00    -0.303 NA
ATOM     14  H   UNL     1       8.895   3.620  25.709  0.00  0.00    +0.123 HD
BRANCH  13  15
ATOM     15  C   UNL     1       8.886   4.077  23.706  0.00  0.00    +0.086 C 
ATOM     16  C   UNL     1       9.375   5.516  24.064  0.00  0.00    +0.162 C 
ATOM     17  C   UNL     1       8.218   6.504  24.354  0.00  0.00    +0.173 C 
ATOM     18  C   UNL     1       7.107   6.463  23.277  0.00  0.00    +0.151 C 
ATOM     19  C   UNL     1       6.641   5.041  22.912  0.00  0.00    +0.047 C 
ATOM     20  C   UNL     1       7.852   4.166  22.564  0.00  0.00    +0.029 C 
BRANCH  18  21
ATOM     21  O   UNL     1       7.613   7.108  22.095  0.00  0.00    -0.389 OA
ATOM     22  H   UNL     1       6.857   7.439  21.580  0.00  0.00    +0.210 HD
ENDBRANCH  18  21
BRANCH  17  23
ATOM     23  O   UNL     1       7.731   6.286  25.681  0.00  0.00    -0.387 OA
ATOM     24  H   UNL     1       7.647   7.143  26.136  0.00  0.00    +0.210 HD
ENDBRANCH  17  23
BRANCH  16  25
ATOM     25  O   UNL     1      10.210   5.974  22.986  0.00  0.00    -0.388 OA
ATOM     26  H   UNL     1      10.253   5.270  22.314  0.00  0.00    +0.210 HD
ENDBRANCH  16  25
BRANCH  19  27
ATOM     27  C   UNL     1       5.731   4.420  23.973  0.00  0.00    +0.162 C 
BRANCH  27  28
ATOM     28  O   UNL     1       4.975   5.444  24.617  0.00  0.00    -0.395 OA
ATOM     29  H   UNL     1       5.614   6.101  24.940  0.00  0.00    +0.209 HD
ENDBRANCH  27  28
ENDBRANCH  19  27
ENDBRANCH  13  15
ENDBRANCH   4  13
ENDBRANCH   1   7
BRANCH   1  30
ATOM     30  C   UNL     1       7.549  -2.430  24.375  0.00  0.00    +0.183 C 
ATOM     31  C   UNL     1       8.115  -3.701  23.753  0.00  0.00    +0.179 C 
ATOM     32  C   UNL     1       7.852  -5.016  24.447  0.00  0.00    +0.201 C 
ATOM     33  C   UNL     1       7.457  -5.021  25.919  0.00  0.00    +0.282 C 
ATOM     34  O   UNL     1       6.702  -3.834  26.217  0.00  0.00    -0.341 OA
ATOM     35  C   UNL     1       7.349  -2.581  25.899  0.00  0.00    +0.178 C 
BRANCH  32  36
ATOM     36  O   UNL     1       8.976  -5.880  24.247  0.00  0.00    -0.384 OA
ATOM     37  H   UNL     1       9.319  -5.694  23.351  0.00  0.00    +0.210 HD
ENDBRANCH  32  36
BRANCH  31  38
ATOM     38  O   UNL     1       7.566  -3.837  22.411  0.00  0.00    -0.386 OA
ATOM     39  H   UNL     1       7.816  -3.032  21.890  0.00  0.00    +0.210 HD
ENDBRANCH  31  38
BRANCH  33  40
ATOM     40  O   UNL     1       6.600  -6.164  26.194  0.00  0.00    -0.340 OA
BRANCH  40  41
ATOM     41  C   UNL     1       5.149  -6.148  26.086  0.00  0.00    +0.183 C 
ATOM     42  C   UNL     1       4.510  -7.181  25.108  0.00  0.00    +0.179 C 
ATOM     43  C   UNL     1       2.987  -7.293  25.129  0.00  0.00    +0.201 C 
ATOM     44  C   UNL     1       2.455  -7.092  26.547  0.00  0.00    +0.279 C 
ATOM     45  O   UNL     1       2.901  -5.860  27.091  0.00  0.00    -0.341 OA
ATOM     46  C   UNL     1       4.327  -5.836  27.360  0.00  0.00    +0.178 C 
BRANCH  44  47
ATOM     47  O   UNL     1       1.031  -7.090  26.516  0.00  0.00    -0.365 OA
ATOM     48  H   UNL     1       0.754  -8.014  26.629  0.00  0.00    +0.213 HD
ENDBRANCH  44  47
BRANCH  43  49
ATOM     49  O   UNL     1       2.616  -8.613  24.663  0.00  0.00    -0.384 OA
ATOM     50  H   UNL     1       3.276  -9.240  25.015  0.00  0.00    +0.210 HD
ENDBRANCH  43  49
BRANCH  42  51
ATOM     51  O   UNL     1       4.963  -6.906  23.765  0.00  0.00    -0.386 OA
ATOM     52  H   UNL     1       4.244  -6.431  23.310  0.00  0.00    +0.210 HD
ENDBRANCH  42  51
BRANCH  46  53
ATOM     53  C   UNL     1       4.597  -6.594  28.663  0.00  0.00    +0.190 C 
BRANCH  53  54
ATOM     54  O   UNL     1       5.639  -7.554  28.433  0.00  0.00    -0.392 OA
ATOM     55  H   UNL     1       5.222  -8.320  27.990  0.00  0.00    +0.210 HD
ENDBRANCH  53  54
ENDBRANCH  46  53
ENDBRANCH  40  41
ENDBRANCH  33  40
BRANCH  35  56
ATOM     56  C   UNL     1       8.601  -2.304  26.740  0.00  0.00    +0.190 C 
BRANCH  56  57
ATOM     57  O   UNL     1       8.801  -0.906  26.928  0.00  0.00    -0.392 OA
ATOM     58  H   UNL     1       9.663  -0.688  26.526  0.00  0.00    +0.210 HD
ENDBRANCH  56  57
ENDBRANCH  35  56
ENDBRANCH   1  30
TORSDOF 22
ENDMDL
MODEL 5
REMARK VINA RESULT:      -6.6      2.192      3.717
REMARK  Name = 
REMARK  23 active torsions:
REMARK  status: ('A' for Active; 'I' for Inactive)
REMARK    1  A    between atoms: C_1  and  C_2
REMARK    2  A    between atoms: C_5  and  O_7
REMARK    3  A    between atoms: O_7  and  C_8
REMARK    4  A    between atoms: C_10  and  C_12
REMARK    5  A    between atoms: C_12  and  O_13
REMARK    6  A    between atoms: C_15  and  O_17
REMARK    7  A    between atoms: O_17  and  C_18
REMARK    8  A    between atoms: C_20  and  C_22
REMARK    9  A    between atoms: C_22  and  O_23
REMARK   10  A    between atoms: C_25  and  O_27
REMARK   11  A    between atoms: C_28  and  O_30
REMARK   12  A    between atoms: C_31  and  O_33
REMARK   13  A    between atoms: C_34  and  O_36
REMARK   14  A    between atoms: C_37  and  O_39
REMARK   15  A    between atoms: C_40  and  O_42
REMARK   16  A    between atoms: C_43  and  O_45
REMARK   17  A    between atoms: C_46  and  N_48
REMARK   18  A    between atoms: N_48  and  C_49
REMARK   19  A    between atoms: C_52  and  C_54
REMARK   20  A    between atoms: C_54  and  O_55
REMARK   21  A    between atoms: C_56  and  O_58
REMARK   22  A    between atoms: C_59  and  O_61
REMARK   23  A    between atoms: C_62  and  O_64
REMARK                            x       y       z     vdW  Elec       q    Type
REMARK                         _______ _______ _______ _____ _____    ______ ____
ROOT
ATOM      1  O   UNL     1       8.575  -1.932  24.972  0.00  0.00    -0.340 OA
ENDROOT
BRANCH   1   7
ATOM      2  C   UNL     1       5.814  -2.329  23.670  0.00  0.00    +0.039 C 
ATOM      3  C   UNL     1       6.577  -3.657  23.777  0.00  0.00    +0.138 C 
ATOM      4  C   UNL     1       6.489  -4.335  25.193  0.00  0.00    +0.114 C 
ATOM      5  C   UNL     1       7.835  -4.694  25.869  0.00  0.00    +0.167 C 
ATOM      6  C   UNL     1       9.071  -4.409  25.036  0.00  0.00    +0.200 C 
ATOM      7  C   UNL     1       8.891  -3.118  24.238  0.00  0.00    +0.282 C 
ATOM      8  O   UNL     1       7.885  -3.413  23.257  0.00  0.00    -0.344 OA
BRANCH   6   9
ATOM      9  O   UNL     1       9.297  -5.513  24.137  0.00  0.00    -0.384 OA
ATOM     10  H   UNL     1       9.491  -6.294  24.696  0.00  0.00    +0.210 HD
ENDBRANCH   6   9
BRANCH   5  11
ATOM     11  O   UNL     1       7.887  -4.003  27.131  0.00  0.00    -0.387 OA
ATOM     12  H   UNL     1       7.058  -3.506  27.231  0.00  0.00    +0.210 HD
ENDBRANCH   5  11
BRANCH   4  13
ATOM     13  N   UNL     1       5.604  -5.540  25.153  0.00  0.00    -0.303 NA
ATOM     14  H   UNL     1       6.175  -6.382  25.084  0.00  0.00    +0.123 HD
BRANCH  13  15
ATOM     15  C   UNL     1       4.680  -5.675  26.304  0.00  0.00    +0.086 C 
ATOM     16  C   UNL     1       4.152  -7.133  26.483  0.00  0.00    +0.162 C 
ATOM     17  C   UNL     1       3.112  -7.546  25.412  0.00  0.00    +0.173 C 
ATOM     18  C   UNL     1       1.998  -6.489  25.216  0.00  0.00    +0.151 C 
ATOM     19  C   UNL     1       2.522  -5.049  25.059  0.00  0.00    +0.047 C 
ATOM     20  C   UNL     1       3.479  -4.712  26.209  0.00  0.00    +0.029 C 
BRANCH  18  21
ATOM     21  O   UNL     1       1.126  -6.548  26.357  0.00  0.00    -0.389 OA
ATOM     22  H   UNL     1       0.209  -6.625  26.039  0.00  0.00    +0.210 HD
ENDBRANCH  18  21
BRANCH  17  23
ATOM     23  O   UNL     1       3.790  -7.889  24.201  0.00  0.00    -0.387 OA
ATOM     24  H   UNL     1       4.751  -7.877  24.358  0.00  0.00    +0.210 HD
ENDBRANCH  17  23
BRANCH  16  25
ATOM     25  O   UNL     1       3.619  -7.244  27.815  0.00  0.00    -0.388 OA
ATOM     26  H   UNL     1       3.878  -8.112  28.174  0.00  0.00    +0.210 HD
ENDBRANCH  16  25
BRANCH  19  27
ATOM     27  C   UNL     1       3.119  -4.778  23.677  0.00  0.00    +0.162 C 
BRANCH  27  28
ATOM     28  O   UNL     1       2.530  -5.656  22.719  0.00  0.00    -0.395 OA
ATOM     29  H   UNL     1       3.199  -6.329  22.509  0.00  0.00    +0.209 HD
ENDBRANCH  27  28
ENDBRANCH  19  27
ENDBRANCH  13  15
ENDBRANCH   4  13
ENDBRANCH   1   7
BRANCH   1  30
ATOM     30  C   UNL     1       9.026  -0.664  24.438  0.00  0.00    +0.183 C 
ATOM     31  C   UNL     1       8.344  -0.315  23.121  0.00  0.00    +0.179 C 
ATOM     32  C   UNL     1       8.151   1.142  22.777  0.00  0.00    +0.201 C 
ATOM     33  C   UNL     1       8.205   2.187  23.887  0.00  0.00    +0.282 C 
ATOM     34  O   UNL     1       9.120   1.755  24.908  0.00  0.00    -0.341 OA
ATOM     35  C   UNL     1       8.851   0.457  25.486  0.00  0.00    +0.178 C 
BRANCH  32  36
ATOM     36  O   UNL     1       6.936   1.289  22.035  0.00  0.00    -0.384 OA
ATOM     37  H   UNL     1       6.716   2.241  22.039  0.00  0.00    +0.210 HD
ENDBRANCH  32  36
BRANCH  31  38
ATOM     38  O   UNL     1       9.128  -0.885  22.035  0.00  0.00    -0.386 OA
ATOM     39  H   UNL     1       9.334  -1.828  22.261  0.00  0.00    +0.210 HD
ENDBRANCH  31  38
BRANCH  33  40
ATOM     40  O   UNL     1       8.707   3.444  23.354  0.00  0.00    -0.340 OA
BRANCH  40  41
ATOM     41  C   UNL     1       9.807   4.200  23.932  0.00  0.00    +0.183 C 
ATOM     42  C   UNL     1      11.220   3.958  23.319  0.00  0.00    +0.179 C 
ATOM     43  C   UNL     1      12.341   4.880  23.796  0.00  0.00    +0.201 C 
ATOM     44  C   UNL     1      11.804   6.289  24.048  0.00  0.00    +0.279 C 
ATOM     45  O   UNL     1      10.716   6.265  24.959  0.00  0.00    -0.341 OA
ATOM     46  C   UNL     1       9.525   5.646  24.411  0.00  0.00    +0.178 C 
BRANCH  44  47
ATOM     47  O   UNL     1      12.844   7.093  24.596  0.00  0.00    -0.365 OA
ATOM     48  H   UNL     1      12.621   7.226  25.532  0.00  0.00    +0.213 HD
ENDBRANCH  44  47
BRANCH  43  49
ATOM     49  O   UNL     1      13.359   4.935  22.767  0.00  0.00    -0.384 OA
ATOM     50  H   UNL     1      13.499   4.023  22.449  0.00  0.00    +0.210 HD
ENDBRANCH  43  49
BRANCH  42  51
ATOM     51  O   UNL     1      11.597   2.580  23.527  0.00  0.00    -0.386 OA
ATOM     52  H   UNL     1      12.538   2.500  23.288  0.00  0.00    +0.210 HD
ENDBRANCH  42  51
BRANCH  46  53
ATOM     53  C   UNL     1       8.826   6.647  23.487  0.00  0.00    +0.190 C 
BRANCH  53  54
ATOM     54  O   UNL     1       8.541   6.002  22.236  0.00  0.00    -0.392 OA
ATOM     55  H   UNL     1       7.576   6.080  22.095  0.00  0.00    +0.210 HD
ENDBRANCH  53  54
ENDBRANCH  46  53
ENDBRANCH  40  41
ENDBRANCH  33  40
BRANCH  35  56
ATOM     56  C   UNL     1       7.538   0.395  26.276  0.00  0.00    +0.190 C 
BRANCH  56  57
ATOM     57  O   UNL     1       7.607   1.182  27.461  0.00  0.00    -0.392 OA
ATOM     58  H   UNL     1       6.702   1.493  27.647  0.00  0.00    +0.210 HD
ENDBRANCH  56  57
ENDBRANCH  35  56
ENDBRANCH   1  30
TORSDOF 22
ENDMDL
MODEL 6
REMARK VINA RESULT:      -6.3      2.193     10.006
REMARK  Name = 
REMARK  23 active torsions:
REMARK  status: ('A' for Active; 'I' for Inactive)
REMARK    1  A    between atoms: C_1  and  C_2
REMARK    2  A    between atoms: C_5  and  O_7
REMARK    3  A    between atoms: O_7  and  C_8
REMARK    4  A    between atoms: C_10  and  C_12
REMARK    5  A    between atoms: C_12  and  O_13
REMARK    6  A    between atoms: C_15  and  O_17
REMARK    7  A    between atoms: O_17  and  C_18
REMARK    8  A    between atoms: C_20  and  C_22
REMARK    9  A    between atoms: C_22  and  O_23
REMARK   10  A    between atoms: C_25  and  O_27
REMARK   11  A    between atoms: C_28  and  O_30
REMARK   12  A    between atoms: C_31  and  O_33
REMARK   13  A    between atoms: C_34  and  O_36
REMARK   14  A    between atoms: C_37  and  O_39
REMARK   15  A    between atoms: C_40  and  O_42
REMARK   16  A    between atoms: C_43  and  O_45
REMARK   17  A    between atoms: C_46  and  N_48
REMARK   18  A    between atoms: N_48  and  C_49
REMARK   19  A    between atoms: C_52  and  C_54
REMARK   20  A    between atoms: C_54  and  O_55
REMARK   21  A    between atoms: C_56  and  O_58
REMARK   22  A    between atoms: C_59  and  O_61
REMARK   23  A    between atoms: C_62  and  O_64
REMARK                            x       y       z     vdW  Elec       q    Type
REMARK                         _______ _______ _______ _____ _____    ______ ____
ROOT
ATOM      1  O   UNL     1       8.715  -1.676  23.424  0.00  0.00    -0.340 OA
ENDROOT
BRANCH   1   7
ATOM      2  C   UNL     1       6.559   0.328  24.326  0.00  0.00    +0.039 C 
ATOM      3  C   UNL     1       7.955   0.969  24.332  0.00  0.00    +0.138 C 
ATOM      4  C   UNL     1       8.439   1.462  22.920  0.00  0.00    +0.114 C 
ATOM      5  C   UNL     1       9.814   0.932  22.441  0.00  0.00    +0.167 C 
ATOM      6  C   UNL     1      10.552   0.059  23.438  0.00  0.00    +0.200 C 
ATOM      7  C   UNL     1       9.569  -0.830  24.199  0.00  0.00    +0.282 C 
ATOM      8  O   UNL     1       8.812   0.063  25.029  0.00  0.00    -0.344 OA
BRANCH   6   9
ATOM      9  O   UNL     1      11.267   0.902  24.363  0.00  0.00    -0.384 OA
ATOM     10  H   UNL     1      11.167   0.494  25.248  0.00  0.00    +0.210 HD
ENDBRANCH   6   9
BRANCH   5  11
ATOM     11  O   UNL     1       9.604   0.240  21.197  0.00  0.00    -0.387 OA
ATOM     12  H   UNL     1       8.668  -0.019  21.155  0.00  0.00    +0.210 HD
ENDBRANCH   5  11
BRANCH   4  13
ATOM     13  N   UNL     1       8.415   2.955  22.839  0.00  0.00    -0.303 NA
ATOM     14  H   UNL     1       7.982   3.243  21.962  0.00  0.00    +0.123 HD
BRANCH  13  15
ATOM     15  C   UNL     1       7.726   3.631  23.963  0.00  0.00    +0.086 C 
ATOM     16  C   UNL     1       6.755   4.755  23.485  0.00  0.00    +0.162 C 
ATOM     17  C   UNL     1       7.484   6.023  22.978  0.00  0.00    +0.173 C 
ATOM     18  C   UNL     1       8.587   6.511  23.947  0.00  0.00    +0.151 C 
ATOM     19  C   UNL     1       9.533   5.395  24.433  0.00  0.00    +0.047 C 
ATOM     20  C   UNL     1       8.716   4.223  24.988  0.00  0.00    +0.029 C 
BRANCH  18  21
ATOM     21  O   UNL     1       7.944   7.108  25.087  0.00  0.00    -0.389 OA
ATOM     22  H   UNL     1       7.856   6.430  25.779  0.00  0.00    +0.210 HD
ENDBRANCH  18  21
BRANCH  17  23
ATOM     23  O   UNL     1       7.956   5.798  21.647  0.00  0.00    -0.387 OA
ATOM     24  H   UNL     1       7.351   6.226  21.016  0.00  0.00    +0.210 HD
ENDBRANCH  17  23
BRANCH  16  25
ATOM     25  O   UNL     1       5.861   5.052  24.573  0.00  0.00    -0.388 OA
ATOM     26  H   UNL     1       6.373   5.024  25.402  0.00  0.00    +0.210 HD
ENDBRANCH  16  25
BRANCH  19  27
ATOM     27  C   UNL     1      10.552   4.975  23.373  0.00  0.00    +0.162 C 
BRANCH  27  28
ATOM     28  O   UNL     1      11.186   3.760  23.771  0.00  0.00    -0.395 OA
ATOM     29  H   UNL     1      10.555   3.044  23.592  0.00  0.00    +0.209 HD
ENDBRANCH  27  28
ENDBRANCH  19  27
ENDBRANCH  13  15
ENDBRANCH   4  13
ENDBRANCH   1   7
BRANCH   1  30
ATOM     30  C   UNL     1       8.280  -2.924  24.015  0.00  0.00    +0.183 C 
ATOM     31  C   UNL     1       7.607  -2.721  25.366  0.00  0.00    +0.179 C 
ATOM     32  C   UNL     1       6.547  -3.708  25.795  0.00  0.00    +0.201 C 
ATOM     33  C   UNL     1       5.859  -4.571  24.743  0.00  0.00    +0.282 C 
ATOM     34  O   UNL     1       6.780  -4.852  23.676  0.00  0.00    -0.341 OA
ATOM     35  C   UNL     1       7.370  -3.698  23.035  0.00  0.00    +0.178 C 
BRANCH  32  36
ATOM     36  O   UNL     1       5.563  -3.023  26.576  0.00  0.00    -0.384 OA
ATOM     37  H   UNL     1       5.219  -2.295  26.023  0.00  0.00    +0.210 HD
ENDBRANCH  32  36
BRANCH  31  38
ATOM     38  O   UNL     1       8.633  -2.759  26.398  0.00  0.00    -0.386 OA
ATOM     39  H   UNL     1       8.200  -2.986  27.260  0.00  0.00    +0.210 HD
ENDBRANCH  31  38
BRANCH  33  40
ATOM     40  O   UNL     1       5.471  -5.844  25.331  0.00  0.00    -0.340 OA
BRANCH  40  41
ATOM     41  C   UNL     1       4.098  -6.233  25.616  0.00  0.00    +0.183 C 
ATOM     42  C   UNL     1       3.603  -7.568  24.980  0.00  0.00    +0.179 C 
ATOM     43  C   UNL     1       2.231  -8.070  25.423  0.00  0.00    +0.201 C 
ATOM     44  C   UNL     1       1.991  -7.744  26.896  0.00  0.00    +0.279 C 
ATOM     45  O   UNL     1       2.150  -6.356  27.144  0.00  0.00    -0.341 OA
ATOM     46  C   UNL     1       3.522  -5.905  27.016  0.00  0.00    +0.178 C 
BRANCH  44  47
ATOM     47  O   UNL     1       0.663  -8.123  27.248  0.00  0.00    -0.365 OA
ATOM     48  H   UNL     1       0.244  -7.331  27.624  0.00  0.00    +0.213 HD
ENDBRANCH  44  47
BRANCH  43  49
ATOM     49  O   UNL     1       2.186  -9.506  25.239  0.00  0.00    -0.384 OA
ATOM     50  H   UNL     1       2.745  -9.905  25.933  0.00  0.00    +0.210 HD
ENDBRANCH  43  49
BRANCH  42  51
ATOM     51  O   UNL     1       3.643  -7.451  23.542  0.00  0.00    -0.386 OA
ATOM     52  H   UNL     1       2.720  -7.398  23.232  0.00  0.00    +0.210 HD
ENDBRANCH  42  51
BRANCH  46  53
ATOM     53  C   UNL     1       4.292  -6.296  28.281  0.00  0.00    +0.190 C 
BRANCH  53  54
ATOM     54  O   UNL     1       5.258  -7.303  27.944  0.00  0.00    -0.392 OA
ATOM     55  H   UNL     1       4.757  -8.123  27.766  0.00  0.00    +0.210 HD
ENDBRANCH  53  54
ENDBRANCH  46  53
ENDBRANCH  40  41
ENDBRANCH  33  40
BRANCH  35  56
ATOM     56  C   UNL     1       6.359  -2.829  22.278  0.00  0.00    +0.190 C 
BRANCH  56  57
ATOM     57  O   UNL     1       5.641  -3.590  21.311  0.00  0.00    -0.392 OA
ATOM     58  H   UNL     1       4.694  -3.406  21.454  0.00  0.00    +0.210 HD
ENDBRANCH  56  57
ENDBRANCH  35  56
ENDBRANCH   1  30
TORSDOF 22
ENDMDL
MODEL 7
REMARK VINA RESULT:      -6.3      2.231     10.007
REMARK  Name = 
REMARK  23 active torsions:
REMARK  status: ('A' for Active; 'I' for Inactive)
REMARK    1  A    between atoms: C_1  and  C_2
REMARK    2  A    between atoms: C_5  and  O_7
REMARK    3  A    between atoms: O_7  and  C_8
REMARK    4  A    between atoms: C_10  and  C_12
REMARK    5  A    between atoms: C_12  and  O_13
REMARK    6  A    between atoms: C_15  and  O_17
REMARK    7  A    between atoms: O_17  and  C_18
REMARK    8  A    between atoms: C_20  and  C_22
REMARK    9  A    between atoms: C_22  and  O_23
REMARK   10  A    between atoms: C_25  and  O_27
REMARK   11  A    between atoms: C_28  and  O_30
REMARK   12  A    between atoms: C_31  and  O_33
REMARK   13  A    between atoms: C_34  and  O_36
REMARK   14  A    between atoms: C_37  and  O_39
REMARK   15  A    between atoms: C_40  and  O_42
REMARK   16  A    between atoms: C_43  and  O_45
REMARK   17  A    between atoms: C_46  and  N_48
REMARK   18  A    between atoms: N_48  and  C_49
REMARK   19  A    between atoms: C_52  and  C_54
REMARK   20  A    between atoms: C_54  and  O_55
REMARK   21  A    between atoms: C_56  and  O_58
REMARK   22  A    between atoms: C_59  and  O_61
REMARK   23  A    between atoms: C_62  and  O_64
REMARK                            x       y       z     vdW  Elec       q    Type
REMARK                         _______ _______ _______ _____ _____    ______ ____
ROOT
ATOM      1  O   UNL     1       8.218  -1.840  24.178  0.00  0.00    -0.340 OA
ENDROOT
BRANCH   1   7
ATOM      2  C   UNL     1       6.049   0.287  24.677  0.00  0.00    +0.039 C 
ATOM      3  C   UNL     1       7.458   0.884  24.811  0.00  0.00    +0.138 C 
ATOM      4  C   UNL     1       8.126   1.262  23.439  0.00  0.00    +0.114 C 
ATOM      5  C   UNL     1       9.527   0.658  23.167  0.00  0.00    +0.167 C 
ATOM      6  C   UNL     1      10.106  -0.165  24.302  0.00  0.00    +0.200 C 
ATOM      7  C   UNL     1       9.005  -0.968  24.994  0.00  0.00    +0.282 C 
ATOM      8  O   UNL     1       8.189   0.003  25.666  0.00  0.00    -0.344 OA
BRANCH   6   9
ATOM      9  O   UNL     1      10.737   0.719  25.250  0.00  0.00    -0.384 OA
ATOM     10  H   UNL     1      11.073   0.156  25.977  0.00  0.00    +0.210 HD
ENDBRANCH   6   9
BRANCH   5  11
ATOM     11  O   UNL     1       9.441  -0.113  21.955  0.00  0.00    -0.387 OA
ATOM     12  H   UNL     1       8.736   0.271  21.407  0.00  0.00    +0.210 HD
ENDBRANCH   5  11
BRANCH   4  13
ATOM     13  N   UNL     1       8.170   2.745  23.257  0.00  0.00    -0.303 NA
ATOM     14  H   UNL     1       7.812   2.988  22.333  0.00  0.00    +0.123 HD
BRANCH  13  15
ATOM     15  C   UNL     1       7.432   3.522  24.281  0.00  0.00    +0.086 C 
ATOM     16  C   UNL     1       6.502   4.609  23.657  0.00  0.00    +0.162 C 
ATOM     17  C   UNL     1       7.273   5.823  23.082  0.00  0.00    +0.173 C 
ATOM     18  C   UNL     1       8.331   6.383  24.063  0.00  0.00    +0.151 C 
ATOM     19  C   UNL     1       9.235   5.305  24.692  0.00  0.00    +0.047 C 
ATOM     20  C   UNL     1       8.375   4.192  25.302  0.00  0.00    +0.029 C 
BRANCH  18  21
ATOM     21  O   UNL     1       7.637   7.082  25.111  0.00  0.00    -0.389 OA
ATOM     22  H   UNL     1       7.127   7.807  24.709  0.00  0.00    +0.210 HD
ENDBRANCH  18  21
BRANCH  17  23
ATOM     23  O   UNL     1       7.811   5.478  21.802  0.00  0.00    -0.387 OA
ATOM     24  H   UNL     1       7.708   4.521  21.659  0.00  0.00    +0.210 HD
ENDBRANCH  17  23
BRANCH  16  25
ATOM     25  O   UNL     1       5.557   5.007  24.666  0.00  0.00    -0.388 OA
ATOM     26  H   UNL     1       5.520   5.981  24.680  0.00  0.00    +0.210 HD
ENDBRANCH  16  25
BRANCH  19  27
ATOM     27  C   UNL     1      10.303   4.785  23.728  0.00  0.00    +0.162 C 
BRANCH  27  28
ATOM     28  O   UNL     1      10.755   5.849  22.892  0.00  0.00    -0.395 OA
ATOM     29  H   UNL     1       9.974   6.386  22.678  0.00  0.00    +0.209 HD
ENDBRANCH  27  28
ENDBRANCH  19  27
ENDBRANCH  13  15
ENDBRANCH   4  13
ENDBRANCH   1   7
BRANCH   1  30
ATOM     30  C   UNL     1       7.354  -2.793  24.842  0.00  0.00    +0.183 C 
ATOM     31  C   UNL     1       6.428  -3.512  23.869  0.00  0.00    +0.179 C 
ATOM     32  C   UNL     1       5.984  -4.915  24.205  0.00  0.00    +0.201 C 
ATOM     33  C   UNL     1       6.786  -5.734  25.210  0.00  0.00    +0.282 C 
ATOM     34  O   UNL     1       7.361  -4.857  26.193  0.00  0.00    -0.341 OA
ATOM     35  C   UNL     1       8.190  -3.790  25.676  0.00  0.00    +0.178 C 
BRANCH  32  36
ATOM     36  O   UNL     1       5.830  -5.657  22.991  0.00  0.00    -0.384 OA
ATOM     37  H   UNL     1       6.723  -5.952  22.724  0.00  0.00    +0.210 HD
ENDBRANCH  32  36
BRANCH  31  38
ATOM     38  O   UNL     1       5.211  -2.725  23.732  0.00  0.00    -0.386 OA
ATOM     39  H   UNL     1       4.589  -3.214  23.134  0.00  0.00    +0.210 HD
ENDBRANCH  31  38
BRANCH  33  40
ATOM     40  O   UNL     1       5.902  -6.654  25.909  0.00  0.00    -0.340 OA
BRANCH  40  41
ATOM     41  C   UNL     1       4.469  -6.458  26.065  0.00  0.00    +0.183 C 
ATOM     42  C   UNL     1       3.542  -7.518  25.396  0.00  0.00    +0.179 C 
ATOM     43  C   UNL     1       2.051  -7.420  25.710  0.00  0.00    +0.201 C 
ATOM     44  C   UNL     1       1.837  -6.960  27.151  0.00  0.00    +0.279 C 
ATOM     45  O   UNL     1       2.510  -5.737  27.403  0.00  0.00    -0.341 OA
ATOM     46  C   UNL     1       3.955  -5.869  27.402  0.00  0.00    +0.178 C 
BRANCH  44  47
ATOM     47  O   UNL     1       0.443  -6.770  27.379  0.00  0.00    -0.365 OA
ATOM     48  H   UNL     1       0.363  -5.976  27.933  0.00  0.00    +0.213 HD
ENDBRANCH  44  47
BRANCH  43  49
ATOM     49  O   UNL     1       1.457  -8.730  25.535  0.00  0.00    -0.384 OA
ATOM     50  H   UNL     1       1.432  -9.157  26.412  0.00  0.00    +0.210 HD
ENDBRANCH  43  49
BRANCH  42  51
ATOM     51  O   UNL     1       3.745  -7.491  23.967  0.00  0.00    -0.386 OA
ATOM     52  H   UNL     1       2.958  -7.893  23.557  0.00  0.00    +0.210 HD
ENDBRANCH  42  51
BRANCH  46  53
ATOM     53  C   UNL     1       4.398  -6.473  28.737  0.00  0.00    +0.190 C 
BRANCH  53  54
ATOM     54  O   UNL     1       5.302  -7.557  28.478  0.00  0.00    -0.392 OA
ATOM     55  H   UNL     1       4.854  -8.151  27.843  0.00  0.00    +0.210 HD
ENDBRANCH  53  54
ENDBRANCH  46  53
ENDBRANCH  40  41
ENDBRANCH  33  40
BRANCH  35  56
ATOM     56  C   UNL     1       9.470  -4.282  24.991  0.00  0.00    +0.190 C 
BRANCH  56  57
ATOM     57  O   UNL     1      10.145  -5.252  25.785  0.00  0.00    -0.392 OA
ATOM     58  H   UNL     1       9.460  -5.831  26.167  0.00  0.00    +0.210 HD
ENDBRANCH  56  57
ENDBRANCH  35  56
ENDBRANCH   1  30
TORSDOF 22
ENDMDL
MODEL 8
REMARK VINA RESULT:      -6.2      2.381      9.471
REMARK  Name = 
REMARK  23 active torsions:
REMARK  status: ('A' for Active; 'I' for Inactive)
REMARK    1  A    between atoms: C_1  and  C_2
REMARK    2  A    between atoms: C_5  and  O_7
REMARK    3  A    between atoms: O_7  and  C_8
REMARK    4  A    between atoms: C_10  and  C_12
REMARK    5  A    between atoms: C_12  and  O_13
REMARK    6  A    between atoms: C_15  and  O_17
REMARK    7  A    between atoms: O_17  and  C_18
REMARK    8  A    between atoms: C_20  and  C_22
REMARK    9  A    between atoms: C_22  and  O_23
REMARK   10  A    between atoms: C_25  and  O_27
REMARK   11  A    between atoms: C_28  and  O_30
REMARK   12  A    between atoms: C_31  and  O_33
REMARK   13  A    between atoms: C_34  and  O_36
REMARK   14  A    between atoms: C_37  and  O_39
REMARK   15  A    between atoms: C_40  and  O_42
REMARK   16  A    between atoms: C_43  and  O_45
REMARK   17  A    between atoms: C_46  and  N_48
REMARK   18  A    between atoms: N_48  and  C_49
REMARK   19  A    between atoms: C_52  and  C_54
REMARK   20  A    between atoms: C_54  and  O_55
REMARK   21  A    between atoms: C_56  and  O_58
REMARK   22  A    between atoms: C_59  and  O_61
REMARK   23  A    between atoms: C_62  and  O_64
REMARK                            x       y       z     vdW  Elec       q    Type
REMARK                         _______ _______ _______ _____ _____    ______ ____
ROOT
ATOM      1  O   UNL     1       8.707  -1.317  24.370  0.00  0.00    -0.340 OA
ENDROOT
BRANCH   1   7
ATOM      2  C   UNL     1      10.695   1.032  24.409  0.00  0.00    +0.039 C 
ATOM      3  C   UNL     1       9.380   1.426  23.721  0.00  0.00    +0.138 C 
ATOM      4  C   UNL     1       8.228   1.818  24.717  0.00  0.00    +0.114 C 
ATOM      5  C   UNL     1       6.889   1.057  24.552  0.00  0.00    +0.167 C 
ATOM      6  C   UNL     1       6.840   0.079  23.394  0.00  0.00    +0.200 C 
ATOM      7  C   UNL     1       8.188  -0.623  23.232  0.00  0.00    +0.282 C 
ATOM      8  O   UNL     1       9.095   0.392  22.777  0.00  0.00    -0.344 OA
BRANCH   6   9
ATOM      9  O   UNL     1       6.513   0.795  22.187  0.00  0.00    -0.384 OA
ATOM     10  H   UNL     1       5.626   0.486  21.909  0.00  0.00    +0.210 HD
ENDBRANCH   6   9
BRANCH   5  11
ATOM     11  O   UNL     1       6.604   0.401  25.802  0.00  0.00    -0.387 OA
ATOM     12  H   UNL     1       7.446   0.285  26.274  0.00  0.00    +0.210 HD
ENDBRANCH   5  11
BRANCH   4  13
ATOM     13  N   UNL     1       7.981   3.292  24.693  0.00  0.00    -0.303 NA
ATOM     14  H   UNL     1       8.314   3.710  25.561  0.00  0.00    +0.123 HD
BRANCH  13  15
ATOM     15  C   UNL     1       8.589   4.009  23.547  0.00  0.00    +0.086 C 
ATOM     16  C   UNL     1       8.873   5.511  23.860  0.00  0.00    +0.162 C 
ATOM     17  C   UNL     1       7.593   6.382  23.914  0.00  0.00    +0.173 C 
ATOM     18  C   UNL     1       6.660   6.154  22.701  0.00  0.00    +0.151 C 
ATOM     19  C   UNL     1       6.397   4.670  22.382  0.00  0.00    +0.047 C 
ATOM     20  C   UNL     1       7.727   3.915  22.271  0.00  0.00    +0.029 C 
BRANCH  18  21
ATOM     21  O   UNL     1       7.263   6.779  21.555  0.00  0.00    -0.389 OA
ATOM     22  H   UNL     1       6.606   6.802  20.837  0.00  0.00    +0.210 HD
ENDBRANCH  18  21
BRANCH  17  23
ATOM     23  O   UNL     1       6.944   6.191  25.174  0.00  0.00    -0.387 OA
ATOM     24  H   UNL     1       7.238   5.348  25.561  0.00  0.00    +0.210 HD
ENDBRANCH  17  23
BRANCH  16  25
ATOM     25  O   UNL     1       9.805   5.994  22.876  0.00  0.00    -0.388 OA
ATOM     26  H   UNL     1       9.589   6.925  22.684  0.00  0.00    +0.210 HD
ENDBRANCH  16  25
BRANCH  19  27
ATOM     27  C   UNL     1       5.410   4.017  23.352  0.00  0.00    +0.162 C 
BRANCH  27  28
ATOM     28  O   UNL     1       4.684   2.989  22.680  0.00  0.00    -0.395 OA
ATOM     29  H   UNL     1       4.314   3.389  21.876  0.00  0.00    +0.209 HD
ENDBRANCH  27  28
ENDBRANCH  19  27
ENDBRANCH  13  15
ENDBRANCH   4  13
ENDBRANCH   1   7
BRANCH   1  30
ATOM     30  C   UNL     1       8.027  -2.523  24.796  0.00  0.00    +0.183 C 
ATOM     31  C   UNL     1       8.777  -3.784  24.387  0.00  0.00    +0.179 C 
ATOM     32  C   UNL     1       8.638  -5.014  25.254  0.00  0.00    +0.201 C 
ATOM     33  C   UNL     1       8.163  -4.864  26.695  0.00  0.00    +0.282 C 
ATOM     34  O   UNL     1       7.254  -3.755  26.788  0.00  0.00    -0.341 OA
ATOM     35  C   UNL     1       7.761  -2.485  26.317  0.00  0.00    +0.178 C 
BRANCH  32  36
ATOM     36  O   UNL     1       9.867  -5.745  25.224  0.00  0.00    -0.384 OA
ATOM     37  H   UNL     1       9.856  -6.348  25.993  0.00  0.00    +0.210 HD
ENDBRANCH  32  36
BRANCH  31  38
ATOM     38  O   UNL     1       8.326  -4.174  23.059  0.00  0.00    -0.386 OA
ATOM     39  H   UNL     1       7.537  -4.766  23.159  0.00  0.00    +0.210 HD
ENDBRANCH  31  38
BRANCH  33  40
ATOM     40  O   UNL     1       7.437  -6.059  27.099  0.00  0.00    -0.340 OA
BRANCH  40  41
ATOM     41  C   UNL     1       6.041  -6.073  27.508  0.00  0.00    +0.183 C 
ATOM     42  C   UNL     1       5.658  -5.168  28.719  0.00  0.00    +0.179 C 
ATOM     43  C   UNL     1       4.169  -5.038  29.033  0.00  0.00    +0.201 C 
ATOM     44  C   UNL     1       3.347  -5.049  27.745  0.00  0.00    +0.279 C 
ATOM     45  O   UNL     1       3.624  -6.205  26.971  0.00  0.00    -0.341 OA
ATOM     46  C   UNL     1       4.960  -6.209  26.407  0.00  0.00    +0.178 C 
BRANCH  44  47
ATOM     47  O   UNL     1       1.961  -5.040  28.076  0.00  0.00    -0.365 OA
ATOM     48  H   UNL     1       1.678  -4.111  28.037  0.00  0.00    +0.213 HD
ENDBRANCH  44  47
BRANCH  43  49
ATOM     49  O   UNL     1       3.954  -3.785  29.726  0.00  0.00    -0.384 OA
ATOM     50  H   UNL     1       3.565  -3.998  30.595  0.00  0.00    +0.210 HD
ENDBRANCH  43  49
BRANCH  42  51
ATOM     51  O   UNL     1       6.370  -5.618  29.890  0.00  0.00    -0.386 OA
ATOM     52  H   UNL     1       7.248  -5.195  29.873  0.00  0.00    +0.210 HD
ENDBRANCH  42  51
BRANCH  46  53
ATOM     53  C   UNL     1       4.982  -5.292  25.180  0.00  0.00    +0.190 C 
BRANCH  53  54
ATOM     54  O   UNL     1       5.830  -5.876  24.180  0.00  0.00    -0.392 OA
ATOM     55  H   UNL     1       6.625  -6.206  24.644  0.00  0.00    +0.210 HD
ENDBRANCH  53  54
ENDBRANCH  46  53
ENDBRANCH  40  41
ENDBRANCH  33  40
BRANCH  35  56
ATOM     56  C   UNL     1       8.920  -1.936  27.156  0.00  0.00    +0.190 C 
BRANCH  56  57
ATOM     57  O   UNL     1       8.914  -0.511  27.182  0.00  0.00    -0.392 OA
ATOM     58  H   UNL     1       8.260  -0.220  26.520  0.00  0.00    +0.210 HD
ENDBRANCH  56  57
ENDBRANCH  35  56
ENDBRANCH   1  30
TORSDOF 22
ENDMDL
MODEL 9
REMARK VINA RESULT:      -6.2      2.320      9.550
REMARK  Name = 
REMARK  23 active torsions:
REMARK  status: ('A' for Active; 'I' for Inactive)
REMARK    1  A    between atoms: C_1  and  C_2
REMARK    2  A    between atoms: C_5  and  O_7
REMARK    3  A    between atoms: O_7  and  C_8
REMARK    4  A    between atoms: C_10  and  C_12
REMARK    5  A    between atoms: C_12  and  O_13
REMARK    6  A    between atoms: C_15  and  O_17
REMARK    7  A    between atoms: O_17  and  C_18
REMARK    8  A    between atoms: C_20  and  C_22
REMARK    9  A    between atoms: C_22  and  O_23
REMARK   10  A    between atoms: C_25  and  O_27
REMARK   11  A    between atoms: C_28  and  O_30
REMARK   12  A    between atoms: C_31  and  O_33
REMARK   13  A    between atoms: C_34  and  O_36
REMARK   14  A    between atoms: C_37  and  O_39
REMARK   15  A    between atoms: C_40  and  O_42
REMARK   16  A    between atoms: C_43  and  O_45
REMARK   17  A    between atoms: C_46  and  N_48
REMARK   18  A    between atoms: N_48  and  C_49
REMARK   19  A    between atoms: C_52  and  C_54
REMARK   20  A    between atoms: C_54  and  O_55
REMARK   21  A    between atoms: C_56  and  O_58
REMARK   22  A    between atoms: C_59  and  O_61
REMARK   23  A    between atoms: C_62  and  O_64
REMARK                            x       y       z     vdW  Elec       q    Type
REMARK                         _______ _______ _______ _____ _____    ______ ____
ROOT
ATOM      1  O   UNL     1       8.929  -0.703  23.594  0.00  0.00    -0.340 OA
ENDROOT
BRANCH   1   7
ATOM      2  C   UNL     1      10.834   1.565  24.433  0.00  0.00    +0.039 C 
ATOM      3  C   UNL     1      10.098   1.908  23.129  0.00  0.00    +0.138 C 
ATOM      4  C   UNL     1       8.643   2.464  23.344  0.00  0.00    +0.114 C 
ATOM      5  C   UNL     1       7.508   1.733  22.583  0.00  0.00    +0.167 C 
ATOM      6  C   UNL     1       7.963   0.613  21.666  0.00  0.00    +0.200 C 
ATOM      7  C   UNL     1       9.132  -0.147  22.292  0.00  0.00    +0.282 C 
ATOM      8  O   UNL     1      10.236   0.770  22.277  0.00  0.00    -0.344 OA
BRANCH   6   9
ATOM      9  O   UNL     1       8.366   1.176  20.402  0.00  0.00    -0.384 OA
ATOM     10  H   UNL     1       7.876   0.687  19.709  0.00  0.00    +0.210 HD
ENDBRANCH   6   9
BRANCH   5  11
ATOM     11  O   UNL     1       6.566   1.255  23.561  0.00  0.00    -0.387 OA
ATOM     12  H   UNL     1       7.032   1.180  24.411  0.00  0.00    +0.210 HD
ENDBRANCH   5  11
BRANCH   4  13
ATOM     13  N   UNL     1       8.584   3.930  23.055  0.00  0.00    -0.303 NA
ATOM     14  H   UNL     1       7.687   4.160  22.628  0.00  0.00    +0.123 HD
BRANCH  13  15
ATOM     15  C   UNL     1       8.800   4.808  24.229  0.00  0.00    +0.086 C 
ATOM     16  C   UNL     1       7.912   4.408  25.449  0.00  0.00    +0.162 C 
ATOM     17  C   UNL     1       6.418   4.773  25.268  0.00  0.00    +0.173 C 
ATOM     18  C   UNL     1       6.208   6.228  24.782  0.00  0.00    +0.151 C 
ATOM     19  C   UNL     1       7.100   6.625  23.590  0.00  0.00    +0.047 C 
ATOM     20  C   UNL     1       8.565   6.297  23.901  0.00  0.00    +0.029 C 
BRANCH  18  21
ATOM     21  O   UNL     1       6.483   7.107  25.886  0.00  0.00    -0.389 OA
ATOM     22  H   UNL     1       5.657   7.558  26.132  0.00  0.00    +0.210 HD
ENDBRANCH  18  21
BRANCH  17  23
ATOM     23  O   UNL     1       5.791   3.798  24.431  0.00  0.00    -0.387 OA
ATOM     24  H   UNL     1       6.414   3.526  23.735  0.00  0.00    +0.210 HD
ENDBRANCH  17  23
BRANCH  16  25
ATOM     25  O   UNL     1       8.474   5.028  26.620  0.00  0.00    -0.388 OA
ATOM     26  H   UNL     1       7.741   5.300  27.201  0.00  0.00    +0.210 HD
ENDBRANCH  16  25
BRANCH  19  27
ATOM     27  C   UNL     1       6.618   6.038  22.263  0.00  0.00    +0.162 C 
BRANCH  27  28
ATOM     28  O   UNL     1       7.601   6.260  21.253  0.00  0.00    -0.395 OA
ATOM     29  H   UNL     1       7.147   6.173  20.398  0.00  0.00    +0.209 HD
ENDBRANCH  27  28
ENDBRANCH  19  27
ENDBRANCH  13  15
ENDBRANCH   4  13
ENDBRANCH   1   7
BRANCH   1  30
ATOM     30  C   UNL     1       7.833  -1.631  23.772  0.00  0.00    +0.183 C 
ATOM     31  C   UNL     1       8.144  -3.010  23.203  0.00  0.00    +0.179 C 
ATOM     32  C   UNL     1       7.492  -4.213  23.842  0.00  0.00    +0.201 C 
ATOM     33  C   UNL     1       6.936  -4.100  25.257  0.00  0.00    +0.282 C 
ATOM     34  O   UNL     1       6.460  -2.763  25.480  0.00  0.00    -0.341 OA
ATOM     35  C   UNL     1       7.423  -1.707  25.259  0.00  0.00    +0.178 C 
BRANCH  32  36
ATOM     36  O   UNL     1       8.390  -5.325  23.764  0.00  0.00    -0.384 OA
ATOM     37  H   UNL     1       7.852  -6.132  23.885  0.00  0.00    +0.210 HD
ENDBRANCH  32  36
BRANCH  31  38
ATOM     38  O   UNL     1       7.742  -3.030  21.804  0.00  0.00    -0.386 OA
ATOM     39  H   UNL     1       7.198  -3.843  21.647  0.00  0.00    +0.210 HD
ENDBRANCH  31  38
BRANCH  33  40
ATOM     40  O   UNL     1       5.803  -4.999  25.412  0.00  0.00    -0.340 OA
BRANCH  40  41
ATOM     41  C   UNL     1       4.768  -5.196  24.409  0.00  0.00    +0.183 C 
ATOM     42  C   UNL     1       4.337  -6.669  24.129  0.00  0.00    +0.179 C 
ATOM     43  C   UNL     1       3.128  -6.867  23.216  0.00  0.00    +0.201 C 
ATOM     44  C   UNL     1       2.102  -5.757  23.438  0.00  0.00    +0.279 C 
ATOM     45  O   UNL     1       2.689  -4.477  23.266  0.00  0.00    -0.341 OA
ATOM     46  C   UNL     1       3.641  -4.139  24.307  0.00  0.00    +0.178 C 
BRANCH  44  47
ATOM     47  O   UNL     1       1.043  -5.906  22.497  0.00  0.00    -0.365 OA
ATOM     48  H   UNL     1       1.374  -6.504  21.806  0.00  0.00    +0.213 HD
ENDBRANCH  44  47
BRANCH  43  49
ATOM     49  O   UNL     1       2.523  -8.145  23.528  0.00  0.00    -0.384 OA
ATOM     50  H   UNL     1       1.958  -8.015  24.312  0.00  0.00    +0.210 HD
ENDBRANCH  43  49
BRANCH  42  51
ATOM     51  O   UNL     1       5.467  -7.403  23.614  0.00  0.00    -0.386 OA
ATOM     52  H   UNL     1       6.244  -7.143  24.142  0.00  0.00    +0.210 HD
ENDBRANCH  42  51
BRANCH  46  53
ATOM     53  C   UNL     1       2.872  -3.701  25.557  0.00  0.00    +0.190 C 
BRANCH  53  54
ATOM     54  O   UNL     1       3.809  -3.216  26.531  0.00  0.00    -0.392 OA
ATOM     55  H   UNL     1       3.654  -3.729  27.348  0.00  0.00    +0.210 HD
ENDBRANCH  53  54
ENDBRANCH  46  53
ENDBRANCH  40  41
ENDBRANCH  33  40
BRANCH  35  56
ATOM     56  C   UNL     1       8.597  -1.728  26.246  0.00  0.00    +0.190 C 
BRANCH  56  57
ATOM     57  O   UNL     1       8.965  -0.411  26.643  0.00  0.00    -0.392 OA
ATOM     58  H   UNL     1       8.630   0.196  25.957  0.00  0.00    +0.210 HD
ENDBRANCH  56  57
ENDBRANCH  35  56
ENDBRANCH   1  30
TORSDOF 22
ENDMDL
