MODEL 1
REMARK VINA RESULT:      -8.2      0.000      0.000
REMARK  Name = 
REMARK  7 active torsions:
REMARK  status: ('A' for Active; 'I' for Inactive)
REMARK    1  A    between atoms: C_1  and  C_2
REMARK    2  A    between atoms: C_5  and  C_7
REMARK    3  A    between atoms: C_10  and  C_11
REMARK    4  A    between atoms: C_12  and  C_14
REMARK    5  A    between atoms: C_17  and  C_20
REMARK    6  A    between atoms: N_22  and  C_23
REMARK    7  A    between atoms: C_25  and  C_29
REMARK                            x       y       z     vdW  Elec       q    Type
REMARK                         _______ _______ _______ _____ _____    ______ ____
ROOT
ATOM      1  C   UNL     1       7.424  -2.671  24.181  0.00  0.00    -0.018 A 
ATOM      2  C   UNL     1       6.825  -1.439  23.832  0.00  0.00    +0.009 A 
ATOM      3  C   UNL     1       7.547  -0.233  23.803  0.00  0.00    +0.013 A 
ATOM      4  C   UNL     1       8.894  -0.232  24.156  0.00  0.00    +0.037 A 
ATOM      5  C   UNL     1       9.525  -1.446  24.432  0.00  0.00    +0.013 A 
ATOM      6  C   UNL     1       8.809  -2.643  24.401  0.00  0.00    +0.009 A 
ENDROOT
BRANCH   1   9
ATOM      7  C   UNL     1       5.678  -5.621  25.887  0.00  0.00    +0.039 A 
ATOM      8  C   UNL     1       6.320  -4.394  25.645  0.00  0.00    +0.022 A 
ATOM      9  C   UNL     1       6.615  -3.920  24.340  0.00  0.00    -0.014 A 
ATOM     10  C   UNL     1       6.183  -4.732  23.253  0.00  0.00    -0.043 A 
ATOM     11  C   UNL     1       6.461  -4.433  21.800  0.00  0.00    +0.044 C 
ATOM     12  C   UNL     1       5.467  -5.919  23.501  0.00  0.00    +0.005 A 
ATOM     13  C   UNL     1       5.234  -6.366  24.796  0.00  0.00    +0.013 A 
BRANCH   7  17
ATOM     14  C   UNL     1       3.286  -7.190  29.743  0.00  0.00    +0.111 C 
ATOM     15  C   UNL     1       4.474  -6.841  28.946  0.00  0.00    +0.215 A 
ATOM     16  O   UNL     1       4.253  -6.342  27.695  0.00  0.00    -0.421 OA
ATOM     17  C   UNL     1       5.531  -6.121  27.248  0.00  0.00    +0.248 A 
ATOM     18  N   UNL     1       6.439  -6.460  28.141  0.00  0.00    -0.107 NA
ATOM     19  N   UNL     1       5.752  -6.928  29.245  0.00  0.00    -0.112 NA
ENDBRANCH   7  17
ENDBRANCH   1   9
BRANCH   4  20
ATOM     20  C   UNL     1       9.728   0.991  24.215  0.00  0.00    +0.248 C 
ATOM     21  N   UNL     1       9.206   2.136  23.628  0.00  0.00    -0.281 N 
ATOM     22  H   UNL     1       8.250   2.100  23.296  0.00  0.00    +0.155 HD
ATOM     23  O   UNL     1      10.769   0.921  24.857  0.00  0.00    -0.270 OA
BRANCH  21  24
ATOM     24  C   UNL     1       9.802   3.418  23.712  0.00  0.00    +0.035 A 
ATOM     25  C   UNL     1       9.108   4.436  24.374  0.00  0.00    +0.023 A 
ATOM     26  C   UNL     1       9.709   5.684  24.582  0.00  0.00    +0.003 A 
ATOM     27  C   UNL     1      11.001   5.928  24.115  0.00  0.00    +0.019 A 
ATOM     28  C   UNL     1      11.679   4.937  23.411  0.00  0.00    +0.054 A 
ATOM     29  C   UNL     1      11.073   3.696  23.197  0.00  0.00    +0.042 A 
BRANCH  28  30
ATOM     30  C   UNL     1      13.005   5.178  22.922  0.00  0.00    +0.099 C 
ATOM     31  N   UNL     1      14.079   5.374  22.518  0.00  0.00    -0.191 NA
ENDBRANCH  28  30
ENDBRANCH  21  24
ENDBRANCH   4  20
TORSDOF 5
ENDMDL
MODEL 2
REMARK VINA RESULT:      -8.0      2.520      3.236
REMARK  Name = 
REMARK  7 active torsions:
REMARK  status: ('A' for Active; 'I' for Inactive)
REMARK    1  A    between atoms: C_1  and  C_2
REMARK    2  A    between atoms: C_5  and  C_7
REMARK    3  A    between atoms: C_10  and  C_11
REMARK    4  A    between atoms: C_12  and  C_14
REMARK    5  A    between atoms: C_17  and  C_20
REMARK    6  A    between atoms: N_22  and  C_23
REMARK    7  A    between atoms: C_25  and  C_29
REMARK                            x       y       z     vdW  Elec       q    Type
REMARK                         _______ _______ _______ _____ _____    ______ ____
ROOT
ATOM      1  C   UNL     1       7.349  -2.696  24.276  0.00  0.00    -0.018 A 
ATOM      2  C   UNL     1       8.083  -2.578  23.073  0.00  0.00    +0.009 A 
ATOM      3  C   UNL     1       8.599  -1.349  22.625  0.00  0.00    +0.013 A 
ATOM      4  C   UNL     1       8.362  -0.196  23.366  0.00  0.00    +0.037 A 
ATOM      5  C   UNL     1       7.705  -0.298  24.594  0.00  0.00    +0.013 A 
ATOM      6  C   UNL     1       7.248  -1.533  25.054  0.00  0.00    +0.009 A 
ENDROOT
BRANCH   1   9
ATOM      7  C   UNL     1       4.781  -5.535  24.352  0.00  0.00    +0.039 A 
ATOM      8  C   UNL     1       5.535  -4.412  23.969  0.00  0.00    +0.022 A 
ATOM      9  C   UNL     1       6.690  -3.981  24.671  0.00  0.00    -0.014 A 
ATOM     10  C   UNL     1       7.098  -4.776  25.779  0.00  0.00    -0.043 A 
ATOM     11  C   UNL     1       8.257  -4.446  26.688  0.00  0.00    +0.044 C 
ATOM     12  C   UNL     1       6.386  -5.946  26.107  0.00  0.00    +0.005 A 
ATOM     13  C   UNL     1       5.236  -6.311  25.417  0.00  0.00    +0.013 A 
BRANCH   7  17
ATOM     14  C   UNL     1       1.108  -8.313  22.995  0.00  0.00    +0.111 C 
ATOM     15  C   UNL     1       1.884  -7.067  23.102  0.00  0.00    +0.215 A 
ATOM     16  O   UNL     1       3.070  -7.136  23.775  0.00  0.00    -0.421 OA
ATOM     17  C   UNL     1       3.525  -5.845  23.681  0.00  0.00    +0.248 A 
ATOM     18  N   UNL     1       2.691  -5.068  23.019  0.00  0.00    -0.107 NA
ATOM     19  N   UNL     1       1.625  -5.863  22.642  0.00  0.00    -0.112 NA
ENDBRANCH   7  17
ENDBRANCH   1   9
BRANCH   4  20
ATOM     20  C   UNL     1       8.811   1.155  22.952  0.00  0.00    +0.248 C 
ATOM     21  N   UNL     1       9.026   2.082  23.962  0.00  0.00    -0.281 N 
ATOM     22  H   UNL     1       8.974   1.756  24.919  0.00  0.00    +0.155 HD
ATOM     23  O   UNL     1       9.046   1.319  21.760  0.00  0.00    -0.270 OA
BRANCH  21  24
ATOM     24  C   UNL     1       9.585   3.368  23.758  0.00  0.00    +0.035 A 
ATOM     25  C   UNL     1       8.753   4.485  23.882  0.00  0.00    +0.023 A 
ATOM     26  C   UNL     1       9.286   5.778  23.804  0.00  0.00    +0.003 A 
ATOM     27  C   UNL     1      10.652   5.963  23.586  0.00  0.00    +0.019 A 
ATOM     28  C   UNL     1      11.478   4.857  23.411  0.00  0.00    +0.054 A 
ATOM     29  C   UNL     1      10.941   3.568  23.480  0.00  0.00    +0.042 A 
BRANCH  28  30
ATOM     30  C   UNL     1      12.882   5.034  23.180  0.00  0.00    +0.099 C 
ATOM     31  N   UNL     1      14.020   5.182  22.989  0.00  0.00    -0.191 NA
ENDBRANCH  28  30
ENDBRANCH  21  24
ENDBRANCH   4  20
TORSDOF 5
ENDMDL
MODEL 3
REMARK VINA RESULT:      -7.7      1.238      1.605
REMARK  Name = 
REMARK  7 active torsions:
REMARK  status: ('A' for Active; 'I' for Inactive)
REMARK    1  A    between atoms: C_1  and  C_2
REMARK    2  A    between atoms: C_5  and  C_7
REMARK    3  A    between atoms: C_10  and  C_11
REMARK    4  A    between atoms: C_12  and  C_14
REMARK    5  A    between atoms: C_17  and  C_20
REMARK    6  A    between atoms: N_22  and  C_23
REMARK    7  A    between atoms: C_25  and  C_29
REMARK                            x       y       z     vdW  Elec       q    Type
REMARK                         _______ _______ _______ _____ _____    ______ ____
ROOT
ATOM      1  C   UNL     1       6.911  -2.454  23.811  0.00  0.00    -0.018 A 
ATOM      2  C   UNL     1       8.281  -2.307  23.493  0.00  0.00    +0.009 A 
ATOM      3  C   UNL     1       8.851  -1.061  23.181  0.00  0.00    +0.013 A 
ATOM      4  C   UNL     1       8.045   0.073  23.152  0.00  0.00    +0.037 A 
ATOM      5  C   UNL     1       6.707  -0.033  23.533  0.00  0.00    +0.013 A 
ATOM      6  C   UNL     1       6.167  -1.268  23.896  0.00  0.00    +0.009 A 
ENDROOT
BRANCH   1   9
ATOM      7  C   UNL     1       5.640  -5.594  25.597  0.00  0.00    +0.039 A 
ATOM      8  C   UNL     1       6.096  -4.292  25.323  0.00  0.00    +0.022 A 
ATOM      9  C   UNL     1       6.291  -3.803  24.006  0.00  0.00    -0.014 A 
ATOM     10  C   UNL     1       5.954  -4.685  22.940  0.00  0.00    -0.043 A 
ATOM     11  C   UNL     1       6.153  -4.373  21.477  0.00  0.00    +0.044 C 
ATOM     12  C   UNL     1       5.420  -5.957  23.221  0.00  0.00    +0.005 A 
ATOM     13  C   UNL     1       5.282  -6.412  24.527  0.00  0.00    +0.013 A 
BRANCH   7  17
ATOM     14  C   UNL     1       3.549  -7.192  29.612  0.00  0.00    +0.111 C 
ATOM     15  C   UNL     1       4.673  -6.821  28.737  0.00  0.00    +0.215 A 
ATOM     16  O   UNL     1       4.356  -6.335  27.500  0.00  0.00    -0.421 OA
ATOM     17  C   UNL     1       5.596  -6.087  26.967  0.00  0.00    +0.248 A 
ATOM     18  N   UNL     1       6.570  -6.399  27.799  0.00  0.00    -0.107 NA
ATOM     19  N   UNL     1       5.969  -6.875  28.950  0.00  0.00    -0.112 NA
ENDBRANCH   7  17
ENDBRANCH   1   9
BRANCH   4  20
ATOM     20  C   UNL     1       8.535   1.421  22.778  0.00  0.00    +0.248 C 
ATOM     21  N   UNL     1       8.087   2.487  23.546  0.00  0.00    -0.281 N 
ATOM     22  H   UNL     1       7.547   2.275  24.376  0.00  0.00    +0.155 HD
ATOM     23  O   UNL     1       9.369   1.478  21.881  0.00  0.00    -0.270 OA
BRANCH  21  24
ATOM     24  C   UNL     1       8.558   3.817  23.417  0.00  0.00    +0.035 A 
ATOM     25  C   UNL     1       7.682   4.792  22.931  0.00  0.00    +0.023 A 
ATOM     26  C   UNL     1       8.069   6.138  22.897  0.00  0.00    +0.003 A 
ATOM     27  C   UNL     1       9.339   6.516  23.334  0.00  0.00    +0.019 A 
ATOM     28  C   UNL     1      10.234   5.544  23.771  0.00  0.00    +0.054 A 
ATOM     29  C   UNL     1       9.849   4.201  23.795  0.00  0.00    +0.042 A 
BRANCH  28  30
ATOM     30  C   UNL     1      11.545   5.919  24.217  0.00  0.00    +0.099 C 
ATOM     31  N   UNL     1      12.609   6.227  24.573  0.00  0.00    -0.191 NA
ENDBRANCH  28  30
ENDBRANCH  21  24
ENDBRANCH   4  20
TORSDOF 5
ENDMDL
MODEL 4
REMARK VINA RESULT:      -7.0      3.205     10.739
REMARK  Name = 
REMARK  7 active torsions:
REMARK  status: ('A' for Active; 'I' for Inactive)
REMARK    1  A    between atoms: C_1  and  C_2
REMARK    2  A    between atoms: C_5  and  C_7
REMARK    3  A    between atoms: C_10  and  C_11
REMARK    4  A    between atoms: C_12  and  C_14
REMARK    5  A    between atoms: C_17  and  C_20
REMARK    6  A    between atoms: N_22  and  C_23
REMARK    7  A    between atoms: C_25  and  C_29
REMARK                            x       y       z     vdW  Elec       q    Type
REMARK                         _______ _______ _______ _____ _____    ______ ____
ROOT
ATOM      1  C   UNL     1       7.768  -1.267  23.698  0.00  0.00    -0.018 A 
ATOM      2  C   UNL     1       8.141  -2.213  24.680  0.00  0.00    +0.009 A 
ATOM      3  C   UNL     1       7.354  -3.340  24.977  0.00  0.00    +0.013 A 
ATOM      4  C   UNL     1       6.149  -3.529  24.307  0.00  0.00    +0.037 A 
ATOM      5  C   UNL     1       5.795  -2.651  23.282  0.00  0.00    +0.013 A 
ATOM      6  C   UNL     1       6.614  -1.568  22.959  0.00  0.00    +0.009 A 
ENDROOT
BRANCH   1   9
ATOM      7  C   UNL     1       8.943   2.343  24.193  0.00  0.00    +0.039 A 
ATOM      8  C   UNL     1       8.355   1.080  24.385  0.00  0.00    +0.022 A 
ATOM      9  C   UNL     1       8.543  -0.004  23.490  0.00  0.00    -0.014 A 
ATOM     10  C   UNL     1       9.411   0.224  22.384  0.00  0.00    -0.043 A 
ATOM     11  C   UNL     1       9.684  -0.780  21.291  0.00  0.00    +0.044 C 
ATOM     12  C   UNL     1      10.062   1.465  22.243  0.00  0.00    +0.005 A 
ATOM     13  C   UNL     1       9.819   2.513  23.122  0.00  0.00    +0.013 A 
BRANCH   7  17
ATOM     14  C   UNL     1       9.011   6.894  25.720  0.00  0.00    +0.111 C 
ATOM     15  C   UNL     1       8.607   5.479  25.727  0.00  0.00    +0.215 A 
ATOM     16  O   UNL     1       9.167   4.673  24.777  0.00  0.00    -0.421 OA
ATOM     17  C   UNL     1       8.599   3.458  25.066  0.00  0.00    +0.248 A 
ATOM     18  N   UNL     1       7.771   3.523  26.090  0.00  0.00    -0.107 NA
ATOM     19  N   UNL     1       7.777   4.837  26.520  0.00  0.00    -0.112 NA
ENDBRANCH   7  17
ENDBRANCH   1   9
BRANCH   4  20
ATOM     20  C   UNL     1       5.220  -4.650  24.586  0.00  0.00    +0.248 C 
ATOM     21  N   UNL     1       3.907  -4.496  24.166  0.00  0.00    -0.281 N 
ATOM     22  H   UNL     1       3.685  -3.685  23.601  0.00  0.00    +0.155 HD
ATOM     23  O   UNL     1       5.706  -5.661  25.080  0.00  0.00    -0.270 OA
BRANCH  21  24
ATOM     24  C   UNL     1       2.925  -5.516  24.227  0.00  0.00    +0.035 A 
ATOM     25  C   UNL     1       2.213  -5.687  25.418  0.00  0.00    +0.023 A 
ATOM     26  C   UNL     1       1.155  -6.603  25.486  0.00  0.00    +0.003 A 
ATOM     27  C   UNL     1       0.813  -7.365  24.368  0.00  0.00    +0.019 A 
ATOM     28  C   UNL     1       1.549  -7.236  23.194  0.00  0.00    +0.054 A 
ATOM     29  C   UNL     1       2.611  -6.328  23.133  0.00  0.00    +0.042 A 
BRANCH  28  30
ATOM     30  C   UNL     1       1.212  -8.018  22.041  0.00  0.00    +0.099 C 
ATOM     31  N   UNL     1       0.932  -8.654  21.107  0.00  0.00    -0.191 NA
ENDBRANCH  28  30
ENDBRANCH  21  24
ENDBRANCH   4  20
TORSDOF 5
ENDMDL
MODEL 5
REMARK VINA RESULT:      -7.0      3.199     11.138
REMARK  Name = 
REMARK  7 active torsions:
REMARK  status: ('A' for Active; 'I' for Inactive)
REMARK    1  A    between atoms: C_1  and  C_2
REMARK    2  A    between atoms: C_5  and  C_7
REMARK    3  A    between atoms: C_10  and  C_11
REMARK    4  A    between atoms: C_12  and  C_14
REMARK    5  A    between atoms: C_17  and  C_20
REMARK    6  A    between atoms: N_22  and  C_23
REMARK    7  A    between atoms: C_25  and  C_29
REMARK                            x       y       z     vdW  Elec       q    Type
REMARK                         _______ _______ _______ _____ _____    ______ ____
ROOT
ATOM      1  C   UNL     1       7.183  -1.819  23.746  0.00  0.00    -0.018 A 
ATOM      2  C   UNL     1       6.567  -1.993  22.486  0.00  0.00    +0.009 A 
ATOM      3  C   UNL     1       5.680  -3.051  22.222  0.00  0.00    +0.013 A 
ATOM      4  C   UNL     1       5.411  -3.984  23.218  0.00  0.00    +0.037 A 
ATOM      5  C   UNL     1       5.948  -3.793  24.492  0.00  0.00    +0.013 A 
ATOM      6  C   UNL     1       6.782  -2.706  24.756  0.00  0.00    +0.009 A 
ENDROOT
BRANCH   1   9
ATOM      7  C   UNL     1       8.748   1.644  24.221  0.00  0.00    +0.039 A 
ATOM      8  C   UNL     1       7.830   0.581  24.133  0.00  0.00    +0.022 A 
ATOM      9  C   UNL     1       8.228  -0.771  23.971  0.00  0.00    -0.014 A 
ATOM     10  C   UNL     1       9.629  -1.026  23.948  0.00  0.00    -0.043 A 
ATOM     11  C   UNL     1      10.246  -2.385  23.718  0.00  0.00    +0.044 C 
ATOM     12  C   UNL     1      10.541   0.032  24.119  0.00  0.00    +0.005 A 
ATOM     13  C   UNL     1      10.109   1.348  24.236  0.00  0.00    +0.013 A 
BRANCH   7  17
ATOM     14  C   UNL     1       9.094   6.397  23.646  0.00  0.00    +0.111 C 
ATOM     15  C   UNL     1       8.423   5.126  23.962  0.00  0.00    +0.215 A 
ATOM     16  O   UNL     1       9.182   3.993  23.888  0.00  0.00    -0.421 OA
ATOM     17  C   UNL     1       8.278   3.023  24.242  0.00  0.00    +0.248 A 
ATOM     18  N   UNL     1       7.085   3.521  24.500  0.00  0.00    -0.107 NA
ATOM     19  N   UNL     1       7.179   4.888  24.318  0.00  0.00    -0.112 NA
ENDBRANCH   7  17
ENDBRANCH   1   9
BRANCH   4  20
ATOM     20  C   UNL     1       4.539  -5.167  23.025  0.00  0.00    +0.248 C 
ATOM     21  N   UNL     1       3.374  -5.218  23.778  0.00  0.00    -0.281 N 
ATOM     22  H   UNL     1       3.133  -4.403  24.327  0.00  0.00    +0.155 HD
ATOM     23  O   UNL     1       4.866  -5.959  22.148  0.00  0.00    -0.270 OA
BRANCH  21  24
ATOM     24  C   UNL     1       2.365  -6.199  23.620  0.00  0.00    +0.035 A 
ATOM     25  C   UNL     1       1.389  -6.002  22.637  0.00  0.00    +0.023 A 
ATOM     26  C   UNL     1       0.443  -6.999  22.368  0.00  0.00    +0.003 A 
ATOM     27  C   UNL     1       0.455  -8.193  23.090  0.00  0.00    +0.019 A 
ATOM     28  C   UNL     1       1.391  -8.376  24.104  0.00  0.00    +0.054 A 
ATOM     29  C   UNL     1       2.328  -7.375  24.377  0.00  0.00    +0.042 A 
BRANCH  28  30
ATOM     30  C   UNL     1       1.410  -9.596  24.857  0.00  0.00    +0.099 C 
ATOM     31  N   UNL     1       1.424 -10.589  25.464  0.00  0.00    -0.191 NA
ENDBRANCH  28  30
ENDBRANCH  21  24
ENDBRANCH   4  20
TORSDOF 5
ENDMDL
MODEL 6
REMARK VINA RESULT:      -6.8      2.453     10.911
REMARK  Name = 
REMARK  7 active torsions:
REMARK  status: ('A' for Active; 'I' for Inactive)
REMARK    1  A    between atoms: C_1  and  C_2
REMARK    2  A    between atoms: C_5  and  C_7
REMARK    3  A    between atoms: C_10  and  C_11
REMARK    4  A    between atoms: C_12  and  C_14
REMARK    5  A    between atoms: C_17  and  C_20
REMARK    6  A    between atoms: N_22  and  C_23
REMARK    7  A    between atoms: C_25  and  C_29
REMARK                            x       y       z     vdW  Elec       q    Type
REMARK                         _______ _______ _______ _____ _____    ______ ____
ROOT
ATOM      1  C   UNL     1       7.222   1.727  23.344  0.00  0.00    -0.018 A 
ATOM      2  C   UNL     1       7.873   0.723  22.590  0.00  0.00    +0.009 A 
ATOM      3  C   UNL     1       7.692  -0.647  22.846  0.00  0.00    +0.013 A 
ATOM      4  C   UNL     1       6.868  -1.044  23.895  0.00  0.00    +0.037 A 
ATOM      5  C   UNL     1       6.157  -0.076  24.606  0.00  0.00    +0.013 A 
ATOM      6  C   UNL     1       6.302   1.278  24.304  0.00  0.00    +0.009 A 
ENDROOT
BRANCH   1   9
ATOM      7  C   UNL     1       9.185   5.014  23.378  0.00  0.00    +0.039 A 
ATOM      8  C   UNL     1       8.841   3.651  23.411  0.00  0.00    +0.022 A 
ATOM      9  C   UNL     1       7.529   3.179  23.149  0.00  0.00    -0.014 A 
ATOM     10  C   UNL     1       6.557   4.157  22.796  0.00  0.00    -0.043 A 
ATOM     11  C   UNL     1       5.098   3.861  22.547  0.00  0.00    +0.044 C 
ATOM     12  C   UNL     1       6.927   5.511  22.684  0.00  0.00    +0.005 A 
ATOM     13  C   UNL     1       8.215   5.936  22.987  0.00  0.00    +0.013 A 
BRANCH   7  17
ATOM     14  C   UNL     1      12.400   7.108  26.264  0.00  0.00    +0.111 C 
ATOM     15  C   UNL     1      11.939   6.354  25.086  0.00  0.00    +0.215 A 
ATOM     16  O   UNL     1      10.593   6.155  24.970  0.00  0.00    -0.421 OA
ATOM     17  C   UNL     1      10.511   5.451  23.796  0.00  0.00    +0.248 A 
ATOM     18  N   UNL     1      11.694   5.239  23.255  0.00  0.00    -0.107 NA
ATOM     19  N   UNL     1      12.623   5.827  24.094  0.00  0.00    -0.112 NA
ENDBRANCH   7  17
ENDBRANCH   1   9
BRANCH   4  20
ATOM     20  C   UNL     1       6.658  -2.459  24.285  0.00  0.00    +0.248 C 
ATOM     21  N   UNL     1       5.374  -2.818  24.673  0.00  0.00    -0.281 N 
ATOM     22  H   UNL     1       4.639  -2.131  24.561  0.00  0.00    +0.155 HD
ATOM     23  O   UNL     1       7.609  -3.219  24.146  0.00  0.00    -0.270 OA
BRANCH  21  24
ATOM     24  C   UNL     1       4.966  -4.148  24.943  0.00  0.00    +0.035 A 
ATOM     25  C   UNL     1       4.294  -4.857  23.942  0.00  0.00    +0.023 A 
ATOM     26  C   UNL     1       3.976  -6.209  24.123  0.00  0.00    +0.003 A 
ATOM     27  C   UNL     1       4.314  -6.857  25.311  0.00  0.00    +0.019 A 
ATOM     28  C   UNL     1       4.938  -6.145  26.332  0.00  0.00    +0.054 A 
ATOM     29  C   UNL     1       5.245  -4.794  26.152  0.00  0.00    +0.042 A 
BRANCH  28  30
ATOM     30  C   UNL     1       5.284  -6.799  27.560  0.00  0.00    +0.099 C 
ATOM     31  N   UNL     1       5.562  -7.326  28.560  0.00  0.00    -0.191 NA
ENDBRANCH  28  30
ENDBRANCH  21  24
ENDBRANCH   4  20
TORSDOF 5
ENDMDL
MODEL 7
REMARK VINA RESULT:      -6.7      2.631     10.912
REMARK  Name = 
REMARK  7 active torsions:
REMARK  status: ('A' for Active; 'I' for Inactive)
REMARK    1  A    between atoms: C_1  and  C_2
REMARK    2  A    between atoms: C_5  and  C_7
REMARK    3  A    between atoms: C_10  and  C_11
REMARK    4  A    between atoms: C_12  and  C_14
REMARK    5  A    between atoms: C_17  and  C_20
REMARK    6  A    between atoms: N_22  and  C_23
REMARK    7  A    between atoms: C_25  and  C_29
REMARK                            x       y       z     vdW  Elec       q    Type
REMARK                         _______ _______ _______ _____ _____    ______ ____
ROOT
ATOM      1  C   UNL     1       7.029   1.357  23.520  0.00  0.00    -0.018 A 
ATOM      2  C   UNL     1       7.584   0.362  22.683  0.00  0.00    +0.009 A 
ATOM      3  C   UNL     1       7.507  -1.008  22.989  0.00  0.00    +0.013 A 
ATOM      4  C   UNL     1       6.892  -1.412  24.171  0.00  0.00    +0.037 A 
ATOM      5  C   UNL     1       6.273  -0.455  24.977  0.00  0.00    +0.013 A 
ATOM      6  C   UNL     1       6.307   0.896  24.631  0.00  0.00    +0.009 A 
ENDROOT
BRANCH   1   9
ATOM      7  C   UNL     1       8.769   4.765  23.372  0.00  0.00    +0.039 A 
ATOM      8  C   UNL     1       8.517   3.385  23.476  0.00  0.00    +0.022 A 
ATOM      9  C   UNL     1       7.238   2.815  23.251  0.00  0.00    -0.014 A 
ATOM     10  C   UNL     1       6.199   3.708  22.860  0.00  0.00    -0.043 A 
ATOM     11  C   UNL     1       4.762   3.303  22.642  0.00  0.00    +0.044 C 
ATOM     12  C   UNL     1       6.478   5.076  22.678  0.00  0.00    +0.005 A 
ATOM     13  C   UNL     1       7.737   5.600  22.947  0.00  0.00    +0.013 A 
BRANCH   7  17
ATOM     14  C   UNL     1      13.532   5.312  23.130  0.00  0.00    +0.111 C 
ATOM     15  C   UNL     1      12.172   5.572  23.630  0.00  0.00    +0.215 A 
ATOM     16  O   UNL     1      11.162   4.838  23.077  0.00  0.00    -0.421 OA
ATOM     17  C   UNL     1      10.066   5.309  23.754  0.00  0.00    +0.248 A 
ATOM     18  N   UNL     1      10.381   6.243  24.629  0.00  0.00    -0.107 NA
ATOM     19  N   UNL     1      11.751   6.413  24.548  0.00  0.00    -0.112 NA
ENDBRANCH   7  17
ENDBRANCH   1   9
BRANCH   4  20
ATOM     20  C   UNL     1       6.811  -2.824  24.615  0.00  0.00    +0.248 C 
ATOM     21  N   UNL     1       5.999  -3.092  25.708  0.00  0.00    -0.281 N 
ATOM     22  H   UNL     1       5.428  -2.337  26.067  0.00  0.00    +0.155 HD
ATOM     23  O   UNL     1       7.391  -3.655  23.926  0.00  0.00    -0.270 OA
BRANCH  21  24
ATOM     24  C   UNL     1       5.699  -4.394  26.178  0.00  0.00    +0.035 A 
ATOM     25  C   UNL     1       6.171  -4.775  27.438  0.00  0.00    +0.023 A 
ATOM     26  C   UNL     1       5.800  -6.008  27.990  0.00  0.00    +0.003 A 
ATOM     27  C   UNL     1       4.969  -6.875  27.280  0.00  0.00    +0.019 A 
ATOM     28  C   UNL     1       4.537  -6.525  26.004  0.00  0.00    +0.054 A 
ATOM     29  C   UNL     1       4.916  -5.298  25.452  0.00  0.00    +0.042 A 
BRANCH  28  30
ATOM     30  C   UNL     1       3.687  -7.410  25.261  0.00  0.00    +0.099 C 
ATOM     31  N   UNL     1       3.003  -8.131  24.657  0.00  0.00    -0.191 NA
ENDBRANCH  28  30
ENDBRANCH  21  24
ENDBRANCH   4  20
TORSDOF 5
ENDMDL
MODEL 8
REMARK VINA RESULT:      -6.6      2.401     10.933
REMARK  Name = 
REMARK  7 active torsions:
REMARK  status: ('A' for Active; 'I' for Inactive)
REMARK    1  A    between atoms: C_1  and  C_2
REMARK    2  A    between atoms: C_5  and  C_7
REMARK    3  A    between atoms: C_10  and  C_11
REMARK    4  A    between atoms: C_12  and  C_14
REMARK    5  A    between atoms: C_17  and  C_20
REMARK    6  A    between atoms: N_22  and  C_23
REMARK    7  A    between atoms: C_25  and  C_29
REMARK                            x       y       z     vdW  Elec       q    Type
REMARK                         _______ _______ _______ _____ _____    ______ ____
ROOT
ATOM      1  C   UNL     1       7.568  -0.720  24.769  0.00  0.00    -0.018 A 
ATOM      2  C   UNL     1       6.166  -0.694  24.587  0.00  0.00    +0.009 A 
ATOM      3  C   UNL     1       5.289  -1.447  25.387  0.00  0.00    +0.013 A 
ATOM      4  C   UNL     1       5.807  -2.274  26.379  0.00  0.00    +0.037 A 
ATOM      5  C   UNL     1       7.181  -2.260  26.628  0.00  0.00    +0.013 A 
ATOM      6  C   UNL     1       8.034  -1.464  25.863  0.00  0.00    +0.009 A 
ENDROOT
BRANCH   1   9
ATOM      7  C   UNL     1       9.718   2.061  23.250  0.00  0.00    +0.039 A 
ATOM      8  C   UNL     1       8.950   1.285  24.137  0.00  0.00    +0.022 A 
ATOM      9  C   UNL     1       8.496  -0.022  23.824  0.00  0.00    -0.014 A 
ATOM     10  C   UNL     1       8.895  -0.553  22.564  0.00  0.00    -0.043 A 
ATOM     11  C   UNL     1       8.458  -1.893  22.024  0.00  0.00    +0.044 C 
ATOM     12  C   UNL     1       9.732   0.198  21.716  0.00  0.00    +0.005 A 
ATOM     13  C   UNL     1      10.122   1.490  22.045  0.00  0.00    +0.013 A 
BRANCH   7  17
ATOM     14  C   UNL     1      12.518   5.944  23.613  0.00  0.00    +0.111 C 
ATOM     15  C   UNL     1      11.266   5.175  23.703  0.00  0.00    +0.215 A 
ATOM     16  O   UNL     1      11.329   3.853  23.369  0.00  0.00    -0.421 OA
ATOM     17  C   UNL     1      10.033   3.448  23.568  0.00  0.00    +0.248 A 
ATOM     18  N   UNL     1       9.259   4.433  23.978  0.00  0.00    -0.107 NA
ATOM     19  N   UNL     1      10.061   5.555  24.067  0.00  0.00    -0.112 NA
ENDBRANCH   7  17
ENDBRANCH   1   9
BRANCH   4  20
ATOM     20  C   UNL     1       4.975  -3.151  27.237  0.00  0.00    +0.248 C 
ATOM     21  N   UNL     1       5.402  -4.462  27.396  0.00  0.00    -0.281 N 
ATOM     22  H   UNL     1       6.306  -4.711  27.014  0.00  0.00    +0.155 HD
ATOM     23  O   UNL     1       4.028  -2.626  27.812  0.00  0.00    -0.270 OA
BRANCH  21  24
ATOM     24  C   UNL     1       4.808  -5.392  28.284  0.00  0.00    +0.035 A 
ATOM     25  C   UNL     1       5.406  -5.600  29.531  0.00  0.00    +0.023 A 
ATOM     26  C   UNL     1       4.790  -6.421  30.484  0.00  0.00    +0.003 A 
ATOM     27  C   UNL     1       3.580  -7.052  30.191  0.00  0.00    +0.019 A 
ATOM     28  C   UNL     1       3.005  -6.890  28.935  0.00  0.00    +0.054 A 
ATOM     29  C   UNL     1       3.627  -6.077  27.982  0.00  0.00    +0.042 A 
BRANCH  28  30
ATOM     30  C   UNL     1       1.765  -7.537  28.619  0.00  0.00    +0.099 C 
ATOM     31  N   UNL     1       0.758  -8.065  28.369  0.00  0.00    -0.191 NA
ENDBRANCH  28  30
ENDBRANCH  21  24
ENDBRANCH   4  20
TORSDOF 5
ENDMDL
MODEL 9
REMARK VINA RESULT:      -6.6      2.722     10.792
REMARK  Name = 
REMARK  7 active torsions:
REMARK  status: ('A' for Active; 'I' for Inactive)
REMARK    1  A    between atoms: C_1  and  C_2
REMARK    2  A    between atoms: C_5  and  C_7
REMARK    3  A    between atoms: C_10  and  C_11
REMARK    4  A    between atoms: C_12  and  C_14
REMARK    5  A    between atoms: C_17  and  C_20
REMARK    6  A    between atoms: N_22  and  C_23
REMARK    7  A    between atoms: C_25  and  C_29
REMARK                            x       y       z     vdW  Elec       q    Type
REMARK                         _______ _______ _______ _____ _____    ______ ____
ROOT
ATOM      1  C   UNL     1       8.008  -1.255  23.924  0.00  0.00    -0.018 A 
ATOM      2  C   UNL     1       8.631  -2.299  24.646  0.00  0.00    +0.009 A 
ATOM      3  C   UNL     1       7.936  -3.452  25.053  0.00  0.00    +0.013 A 
ATOM      4  C   UNL     1       6.579  -3.569  24.767  0.00  0.00    +0.037 A 
ATOM      5  C   UNL     1       5.959  -2.587  23.993  0.00  0.00    +0.013 A 
ATOM      6  C   UNL     1       6.675  -1.477  23.547  0.00  0.00    +0.009 A 
ENDROOT
BRANCH   1   9
ATOM      7  C   UNL     1       9.053   2.421  24.174  0.00  0.00    +0.039 A 
ATOM      8  C   UNL     1       8.523   1.149  24.458  0.00  0.00    +0.022 A 
ATOM      9  C   UNL     1       8.724   0.024  23.618  0.00  0.00    -0.014 A 
ATOM     10  C   UNL     1       9.543   0.221  22.470  0.00  0.00    -0.043 A 
ATOM     11  C   UNL     1       9.818  -0.833  21.424  0.00  0.00    +0.044 C 
ATOM     12  C   UNL     1      10.137   1.476  22.236  0.00  0.00    +0.005 A 
ATOM     13  C   UNL     1       9.883   2.563  23.064  0.00  0.00    +0.013 A 
BRANCH   7  17
ATOM     14  C   UNL     1       9.056   7.038  25.489  0.00  0.00    +0.111 C 
ATOM     15  C   UNL     1       8.673   5.618  25.563  0.00  0.00    +0.215 A 
ATOM     16  O   UNL     1       9.243   4.778  24.649  0.00  0.00    -0.421 OA
ATOM     17  C   UNL     1       8.694   3.569  24.996  0.00  0.00    +0.248 A 
ATOM     18  N   UNL     1       7.867   3.669  26.018  0.00  0.00    -0.107 NA
ATOM     19  N   UNL     1       7.855   5.002  26.387  0.00  0.00    -0.112 NA
ENDBRANCH   7  17
ENDBRANCH   1   9
BRANCH   4  20
ATOM     20  C   UNL     1       5.743  -4.714  25.202  0.00  0.00    +0.248 C 
ATOM     21  N   UNL     1       4.408  -4.695  24.824  0.00  0.00    -0.281 N 
ATOM     22  H   UNL     1       4.110  -3.968  24.186  0.00  0.00    +0.155 HD
ATOM     23  O   UNL     1       6.317  -5.630  25.780  0.00  0.00    -0.270 OA
BRANCH  21  24
ATOM     24  C   UNL     1       3.505  -5.766  25.033  0.00  0.00    +0.035 A 
ATOM     25  C   UNL     1       3.254  -6.645  23.974  0.00  0.00    +0.023 A 
ATOM     26  C   UNL     1       2.460  -7.782  24.171  0.00  0.00    +0.003 A 
ATOM     27  C   UNL     1       1.900  -8.041  25.422  0.00  0.00    +0.019 A 
ATOM     28  C   UNL     1       2.104  -7.145  26.468  0.00  0.00    +0.054 A 
ATOM     29  C   UNL     1       2.889  -6.005  26.266  0.00  0.00    +0.042 A 
BRANCH  28  30
ATOM     30  C   UNL     1       1.528  -7.396  27.757  0.00  0.00    +0.099 C 
ATOM     31  N   UNL     1       1.066  -7.604  28.804  0.00  0.00    -0.191 NA
ENDBRANCH  28  30
ENDBRANCH  21  24
ENDBRANCH   4  20
TORSDOF 5
ENDMDL
