REMARK  Name = 
REMARK  4 active torsions:
REMARK  status: ('A' for Active; 'I' for Inactive)
REMARK    1  A    between atoms: C3*_2  and  O3*_20
REMARK    2  A    between atoms: C4*_4  and  C5*_18
REMARK    3  A    between atoms: C1*_7  and  N_9
REMARK    4  A    between atoms: C5*_18  and  O5*_19
REMARK                            x       y       z     vdW  Elec       q    Type
REMARK                         _______ _______ _______ _____ _____    ______ ____
ROOT
ATOM      1  C2* UNL     1      -0.781  -1.035  -0.187  0.00  0.00    +0.088 C 
ATOM      2  C1* UNL     1       0.709  -1.001   0.148  0.00  0.00    +0.226 C 
ATOM      3  O4* UNL     1       1.117   0.382   0.176  0.00  0.00    -0.348 OA
ATOM      4  C4* UNL     1      -0.021   1.190  -0.164  0.00  0.00    +0.175 C 
ATOM      5  C3* UNL     1      -1.238   0.350   0.207  0.00  0.00    +0.150 C 
ENDROOT
BRANCH   2   6
ATOM      6  N   UNL     1       1.037  -1.644   1.421  0.00  0.00    -0.273 N 
ATOM      7  C   UNL     1       1.306  -3.006   1.387  0.00  0.00    +0.331 A 
ATOM      8  O   UNL     1       1.254  -3.692   0.369  0.00  0.00    -0.246 OA
ATOM      9  N   UNL     1       1.644  -3.573   2.587  0.00  0.00    -0.274 N 
ATOM     10  H   UNL     1       1.884  -4.553   2.573  0.00  0.00    +0.173 HD
ATOM     11  C   UNL     1       1.742  -2.933   3.793  0.00  0.00    +0.267 A 
ATOM     12  O   UNL     1       2.114  -3.532   4.797  0.00  0.00    -0.267 OA
ATOM     13  C   UNL     1       1.372  -1.492   3.786  0.00  0.00    +0.094 A 
ATOM     14  I   UNL     1       1.383  -0.424   5.529  0.00  0.00    -0.037 I 
ATOM     15  C   UNL     1       1.048  -0.936   2.609  0.00  0.00    +0.113 A 
ENDBRANCH   2   6
BRANCH   5  16
ATOM     16  O3* UNL     1      -2.426   0.755  -0.446  0.00  0.00    -0.389 OA
ATOM     17  H3* UNL     1      -2.288   0.717  -1.411  0.00  0.00    +0.210 HD
ENDBRANCH   5  16
BRANCH   4  18
ATOM     18  C5* UNL     1       0.033   2.534   0.559  0.00  0.00    +0.190 C 
BRANCH  18  19
ATOM     19  O5* UNL     1      -1.060   3.372   0.213  0.00  0.00    -0.392 OA
ATOM     20  H5* UNL     1      -1.886   2.895   0.419  0.00  0.00    +0.210 HD
ENDBRANCH  18  19
ENDBRANCH   4  18
TORSDOF 4
