REMARK  Name = 
REMARK  4 active torsions:
REMARK  status: ('A' for Active; 'I' for Inactive)
REMARK    1  A    between atoms: C3*_2  and  O3*_20
REMARK    2  A    between atoms: C4*_4  and  C5*_18
REMARK    3  A    between atoms: C1*_7  and  N_9
REMARK    4  A    between atoms: C5*_18  and  O5*_19
REMARK                            x       y       z     vdW  Elec       q    Type
REMARK                         _______ _______ _______ _____ _____    ______ ____
ROOT
ATOM      1  C2* UNL     1      -0.786  -1.085  -0.264  0.00  0.00    +0.088 C 
ATOM      2  C1* UNL     1       0.699  -1.080   0.106  0.00  0.00    +0.226 C 
ATOM      3  O4* UNL     1       1.128   0.300   0.088  0.00  0.00    -0.348 OA
ATOM      4  C4* UNL     1      -0.004   1.123  -0.232  0.00  0.00    +0.175 C 
ATOM      5  C3* UNL     1      -1.228   0.298   0.138  0.00  0.00    +0.150 C 
ENDROOT
BRANCH   2   6
ATOM      6  N   UNL     1       0.995  -1.701   1.400  0.00  0.00    -0.273 N 
ATOM      7  C   UNL     1       0.782  -3.072   1.496  0.00  0.00    +0.331 A 
ATOM      8  O   UNL     1       0.341  -3.763   0.581  0.00  0.00    -0.246 OA
ATOM      9  N   UNL     1       1.101  -3.642   2.698  0.00  0.00    -0.274 N 
ATOM     10  H   UNL     1       0.955  -4.636   2.781  0.00  0.00    +0.173 HD
ATOM     11  C   UNL     1       1.698  -3.021   3.762  0.00  0.00    +0.267 A 
ATOM     12  O   UNL     1       2.009  -3.651   4.768  0.00  0.00    -0.267 OA
ATOM     13  C   UNL     1       1.940  -1.561   3.598  0.00  0.00    +0.094 A 
ATOM     14  I   UNL     1       2.830  -0.502   5.104  0.00  0.00    -0.037 I 
ATOM     15  C   UNL     1       1.577  -0.992   2.439  0.00  0.00    +0.113 A 
ENDBRANCH   2   6
BRANCH   5  16
ATOM     16  O3* UNL     1      -2.409   0.724  -0.519  0.00  0.00    -0.389 OA
ATOM     17  H3* UNL     1      -2.278   0.654  -1.483  0.00  0.00    +0.210 HD
ENDBRANCH   5  16
BRANCH   4  18
ATOM     18  C5* UNL     1       0.047   2.462   0.502  0.00  0.00    +0.190 C 
BRANCH  18  19
ATOM     19  O5* UNL     1      -1.042   3.305   0.144  0.00  0.00    -0.392 OA
ATOM     20  H5* UNL     1      -1.871   2.808   0.285  0.00  0.00    +0.210 HD
ENDBRANCH  18  19
ENDBRANCH   4  18
TORSDOF 4
