REMARK  Name = 
REMARK  4 active torsions:
REMARK  status: ('A' for Active; 'I' for Inactive)
REMARK    1  A    between atoms: C_1  and  N_2
REMARK    2  A    between atoms: C_5  and  C_8
REMARK    3  A    between atoms: N_10  and  C_11
REMARK    4  A    between atoms: C_11  and  C_12
REMARK                            x       y       z     vdW  Elec       q    Type
REMARK                         _______ _______ _______ _____ _____    ______ ____
ROOT
ATOM      1  C   UNL     1       6.728   0.050  -0.567  0.00  0.00    +0.245 C 
ATOM      2  N   UNL     1       7.466  -1.093  -0.715  0.00  0.00    -0.307 N 
ATOM      3  H   UNL     1       7.002  -2.006  -0.750  0.00  0.00    +0.149 HD
ATOM      4  O   UNL     1       7.296   1.133  -0.534  0.00  0.00    -0.270 OA
ENDROOT
BRANCH   1   9
ATOM      5  C   UNL     1       0.960   0.045  -0.466  0.00  0.00    +0.438 C 
ATOM      6  N   UNL     1       2.425   0.055  -0.447  0.00  0.00    -0.206 N 
ATOM      7  C   UNL     1       3.089  -1.135  -0.485  0.00  0.00    +0.309 A 
ATOM      8  C   UNL     1       4.484  -1.173  -0.503  0.00  0.00    +0.083 A 
ATOM      9  C   UNL     1       5.228   0.024  -0.485  0.00  0.00    +0.048 A 
ATOM     10  C   UNL     1       4.514   1.236  -0.422  0.00  0.00    +0.083 A 
ATOM     11  C   UNL     1       3.115   1.231  -0.405  0.00  0.00    +0.309 A 
ENDBRANCH   1   9
BRANCH   2  12
ATOM     12  C   UNL     1       8.908  -1.108  -0.902  0.00  0.00    +0.139 C 
BRANCH  12  13
ATOM     13  C   UNL     1       9.587  -1.930   0.166  0.00  0.00    -0.030 A 
ATOM     14  C   UNL     1      10.583  -1.359   0.977  0.00  0.00    +0.005 A 
ATOM     15  C   UNL     1      11.224  -2.128   1.954  0.00  0.00    +0.000 A 
ATOM     16  C   UNL     1      10.873  -3.468   2.133  0.00  0.00    +0.000 A 
ATOM     17  C   UNL     1       9.885  -4.045   1.332  0.00  0.00    +0.000 A 
ATOM     18  C   UNL     1       9.246  -3.283   0.350  0.00  0.00    +0.005 A 
ENDBRANCH  12  13
ENDBRANCH   2  12
TORSDOF 3
REMARK  Name = 
REMARK  4 active torsions:
REMARK  status: ('A' for Active; 'I' for Inactive)
REMARK    1  A    between atoms: C_1  and  N_2
REMARK    2  A    between atoms: C_5  and  C_8
REMARK    3  A    between atoms: N_10  and  C_11
REMARK    4  A    between atoms: C_11  and  C_12
REMARK                            x       y       z     vdW  Elec       q    Type
REMARK                         _______ _______ _______ _____ _____    ______ ____
ROOT
ATOM      1  I   UNL     1       1.730   0.425   3.238  0.00  0.00    +0.000 I 
ENDROOT
TORSDOF 0
