REMARK  Name = 
REMARK  4 active torsions:
REMARK  status: ('A' for Active; 'I' for Inactive)
REMARK    1  A    between atoms: C_1  and  N_2
REMARK    2  A    between atoms: C_5  and  C_8
REMARK    3  A    between atoms: N_10  and  C_11
REMARK    4  A    between atoms: C_11  and  C_12
REMARK                            x       y       z     vdW  Elec       q    Type
REMARK                         _______ _______ _______ _____ _____    ______ ____
ROOT
ATOM      1  C   UNL     1       6.759  -0.025  -0.424  0.00  0.00    +0.245 C 
ATOM      2  N   UNL     1       7.509  -1.153  -0.596  0.00  0.00    -0.307 N 
ATOM      3  H   UNL     1       7.063  -2.075  -0.584  0.00  0.00    +0.149 HD
ATOM      4  O   UNL     1       7.303   1.070  -0.447  0.00  0.00    -0.270 OA
ENDROOT
BRANCH   1   9
ATOM      5  C   UNL     1       1.039  -0.217   0.313  0.00  0.00    +0.438 C 
ATOM      6  N   UNL     1       2.492  -0.154   0.146  0.00  0.00    -0.206 N 
ATOM      7  C   UNL     1       3.184  -1.318   0.011  0.00  0.00    +0.309 A 
ATOM      8  C   UNL     1       4.565  -1.311  -0.166  0.00  0.00    +0.083 A 
ATOM      9  C   UNL     1       5.272  -0.091  -0.213  0.00  0.00    +0.048 A 
ATOM     10  C   UNL     1       4.532   1.098  -0.066  0.00  0.00    +0.083 A 
ATOM     11  C   UNL     1       3.147   1.047   0.115  0.00  0.00    +0.309 A 
ENDBRANCH   1   9
BRANCH   2  12
ATOM     12  C   UNL     1       8.945  -1.161  -0.831  0.00  0.00    +0.139 C 
BRANCH  12  13
ATOM     13  C   UNL     1       9.646  -1.955   0.245  0.00  0.00    -0.030 A 
ATOM     14  C   UNL     1      10.663  -1.370   1.020  0.00  0.00    +0.005 A 
ATOM     15  C   UNL     1      11.310  -2.115   2.013  0.00  0.00    +0.000 A 
ATOM     16  C   UNL     1      10.946  -3.443   2.245  0.00  0.00    +0.000 A 
ATOM     17  C   UNL     1       9.938  -4.034   1.479  0.00  0.00    +0.000 A 
ATOM     18  C   UNL     1       9.295  -3.298   0.481  0.00  0.00    +0.005 A 
ENDBRANCH  12  13
ENDBRANCH   2  12
TORSDOF 3
REMARK  Name = 
REMARK  4 active torsions:
REMARK  status: ('A' for Active; 'I' for Inactive)
REMARK    1  A    between atoms: C_1  and  N_2
REMARK    2  A    between atoms: C_5  and  C_8
REMARK    3  A    between atoms: N_10  and  C_11
REMARK    4  A    between atoms: C_11  and  C_12
REMARK                            x       y       z     vdW  Elec       q    Type
REMARK                         _______ _______ _______ _____ _____    ______ ____
ROOT
ATOM      1  I   UNL     1       0.496   3.455  -1.487  0.00  0.00    +0.000 I 
ENDROOT
TORSDOF 0
