REMARK  Name = 
REMARK  3 active torsions:
REMARK  status: ('A' for Active; 'I' for Inactive)
REMARK    1  A    between atoms: C_3  and  N_9
REMARK    2  A    between atoms: C_5  and  C_7
REMARK    3  A    between atoms: C_7  and  O_8
REMARK                            x       y       z     vdW  Elec       q    Type
REMARK                         _______ _______ _______ _____ _____    ______ ____
ROOT
ATOM      1  N   UNL     1      -0.169   1.502  -1.795  0.00  0.00    -0.273 N 
ATOM      2  C   UNL     1      -1.200   2.393  -2.121  0.00  0.00    +0.352 A 
ATOM      3  O   UNL     1      -1.935   2.856  -1.250  0.00  0.00    -0.244 OA
ATOM      4  N   UNL     1      -1.374   2.745  -3.440  0.00  0.00    -0.178 NA
ATOM      5  C   UNL     1      -0.541   2.322  -4.338  0.00  0.00    +0.123 A 
ATOM      6  N   UNL     1      -0.757   2.702  -5.633  0.00  0.00    -0.343 N 
ATOM      7  H   UNL     1      -1.410   3.480  -5.706  0.00  0.00    +0.144 HD
ATOM      8  H   UNL     1       0.051   2.792  -6.234  0.00  0.00    +0.144 HD
ATOM      9  C   UNL     1       0.621   1.475  -4.024  0.00  0.00    +0.061 A 
ATOM     10  C   UNL     1       0.745   1.114  -2.751  0.00  0.00    +0.096 A 
ENDROOT
BRANCH   1  14
ATOM     11  C   UNL     1      -0.778  -1.060   0.004  0.00  0.00    +0.038 C 
ATOM     12  C   UNL     1       0.737  -1.035   0.065  0.00  0.00    +0.146 C 
ATOM     13  O   UNL     1       1.164   0.317  -0.210  0.00  0.00    -0.351 OA
ATOM     14  C   UNL     1       0.002   1.158  -0.382  0.00  0.00    +0.224 C 
ATOM     15  C   UNL     1      -1.156   0.379   0.237  0.00  0.00    +0.057 C 
BRANCH  12  16
ATOM     16  C   UNL     1       1.367  -1.990  -0.953  0.00  0.00    +0.187 C 
BRANCH  16  17
ATOM     17  O   UNL     1       2.788  -1.887  -0.924  0.00  0.00    -0.392 OA
ATOM     18  H   UNL     1       2.990  -0.932  -0.923  0.00  0.00    +0.210 HD
ENDBRANCH  16  17
ENDBRANCH  12  16
ENDBRANCH   1  14
TORSDOF 3
