REMARK  Name = 
REMARK  8 active torsions:
REMARK  status: ('A' for Active; 'I' for Inactive)
REMARK    1  A    between atoms: C_1  and  C_2
REMARK    2  A    between atoms: C_2  and  C_3
REMARK    3  A    between atoms: C_2  and  N_4
REMARK    4  A    between atoms: N_13  and  C1*_14
REMARK    5  A    between atoms: C2*_16  and  O2*_26
REMARK    6  A    between atoms: C3*_18  and  O3*_25
REMARK    7  A    between atoms: C4*_20  and  C5*_23
REMARK    8  A    between atoms: C5*_23  and  O5*_24
REMARK                            x       y       z     vdW  Elec       q    Type
REMARK                         _______ _______ _______ _____ _____    ______ ____
ROOT
ATOM      1  N   UNL     1       3.006   0.628  -1.344  0.00  0.00    -0.312 N 
ATOM      2  H   UNL     1       2.666   0.364  -2.279  0.00  0.00    +0.149 HD
ATOM      3  C   UNL     1       4.338   0.888  -1.427  0.00  0.00    +0.199 A 
ATOM      4  N   UNL     1       5.273  -0.120  -1.511  0.00  0.00    -0.283 N 
ATOM      5  C   UNL     1       6.521   0.488  -1.616  0.00  0.00    +0.074 A 
ATOM      6  C   UNL     1       6.240   1.848  -1.648  0.00  0.00    +0.092 A 
ATOM      7  C   UNL     1       7.283   2.767  -1.845  0.00  0.00    +0.051 A 
ATOM      8  C   UNL     1       8.594   2.288  -1.978  0.00  0.00    +0.061 A 
ATOM      9 CL   UNL     1       9.843   3.454  -2.256  0.00  0.00    -0.082 Cl
ATOM     10  C   UNL     1       8.864   0.917  -1.895  0.00  0.00    +0.061 A 
ATOM     11 CL   UNL     1      10.470   0.283  -2.019  0.00  0.00    -0.082 Cl
ATOM     12  C   UNL     1       7.828  -0.011  -1.716  0.00  0.00    +0.049 A 
ATOM     13  N   UNL     1       4.901   2.071  -1.484  0.00  0.00    -0.214 NA
ENDROOT
BRANCH   4  14
ATOM     14  C1* UNL     1       5.099  -1.554  -1.555  0.00  0.00    +0.254 C 
ATOM     15  O4* UNL     1       5.082  -1.983  -2.933  0.00  0.00    -0.346 OA
ATOM     16  C4* UNL     1       4.601  -3.346  -2.946  0.00  0.00    +0.177 C 
ATOM     17  C3* UNL     1       4.116  -3.674  -1.519  0.00  0.00    +0.178 C 
ATOM     18  C2* UNL     1       3.938  -2.297  -0.880  0.00  0.00    +0.195 C 
BRANCH  17  19
ATOM     19  O3* UNL     1       2.915  -4.440  -1.471  0.00  0.00    -0.386 OA
ATOM     20  H3* UNL     1       2.195  -3.773  -1.395  0.00  0.00    +0.210 HD
ENDBRANCH  17  19
BRANCH  18  21
ATOM     21  O2* UNL     1       2.608  -1.891  -1.224  0.00  0.00    -0.385 OA
ATOM     22  H2* UNL     1       2.530  -0.968  -0.894  0.00  0.00    +0.210 HD
ENDBRANCH  18  21
BRANCH  16  23
ATOM     23  C5* UNL     1       3.569  -3.524  -4.061  0.00  0.00    +0.190 C 
BRANCH  23  24
ATOM     24  O5* UNL     1       3.112  -4.868  -4.153  0.00  0.00    -0.392 OA
ATOM     25  H5* UNL     1       2.754  -5.101  -3.270  0.00  0.00    +0.210 HD
ENDBRANCH  23  24
ENDBRANCH  16  23
ENDBRANCH   4  14
BRANCH   1  27
ATOM     26  C   UNL     1       0.674   1.163  -0.929  0.00  0.00    +0.027 C 
ATOM     27  C   UNL     1       2.111   1.693  -0.842  0.00  0.00    +0.067 C 
ATOM     28  C   UNL     1       2.420   2.053   0.613  0.00  0.00    +0.027 C 
ENDBRANCH   1  27
TORSDOF 6
