REMARK  Name = 
REMARK  3 active torsions:
REMARK  status: ('A' for Active; 'I' for Inactive)
REMARK    1  A    between atoms: C_3  and  N_9
REMARK    2  A    between atoms: C_5  and  C_7
REMARK    3  A    between atoms: C_7  and  O_8
REMARK                            x       y       z     vdW  Elec       q    Type
REMARK                         _______ _______ _______ _____ _____    ______ ____
ROOT
ATOM      1  N   UNL     1      -0.157   1.496  -1.791  0.00  0.00    -0.273 N 
ATOM      2  C   UNL     1      -1.192   2.380  -2.127  0.00  0.00    +0.352 A 
ATOM      3  O   UNL     1      -1.933   2.845  -1.263  0.00  0.00    -0.244 OA
ATOM      4  N   UNL     1      -1.363   2.719  -3.451  0.00  0.00    -0.178 NA
ATOM      5  C   UNL     1      -0.528   2.291  -4.341  0.00  0.00    +0.123 A 
ATOM      6  N   UNL     1      -0.744   2.662  -5.640  0.00  0.00    -0.343 N 
ATOM      7  H   UNL     1      -1.391   3.438  -5.721  0.00  0.00    +0.144 HD
ATOM      8  H   UNL     1       0.065   2.741  -6.245  0.00  0.00    +0.144 HD
ATOM      9  C   UNL     1       0.638   1.453  -4.019  0.00  0.00    +0.061 A 
ATOM     10  C   UNL     1       0.762   1.105  -2.740  0.00  0.00    +0.096 A 
ENDROOT
BRANCH   1  14
ATOM     11  C   UNL     1      -0.778  -1.063  -0.000  0.00  0.00    +0.038 C 
ATOM     12  C   UNL     1       0.737  -1.040   0.068  0.00  0.00    +0.146 C 
ATOM     13  O   UNL     1       1.166   0.314  -0.197  0.00  0.00    -0.351 OA
ATOM     14  C   UNL     1       0.006   1.155  -0.377  0.00  0.00    +0.224 C 
ATOM     15  C   UNL     1      -1.155   0.376   0.237  0.00  0.00    +0.057 C 
BRANCH  12  16
ATOM     16  C   UNL     1       1.371  -1.989  -0.952  0.00  0.00    +0.187 C 
BRANCH  16  17
ATOM     17  O   UNL     1       2.792  -1.888  -0.913  0.00  0.00    -0.392 OA
ATOM     18  H   UNL     1       2.995  -0.933  -0.895  0.00  0.00    +0.210 HD
ENDBRANCH  16  17
ENDBRANCH  12  16
ENDBRANCH   1  14
TORSDOF 3
