REMARK  Name = 
REMARK  8 active torsions:
REMARK  status: ('A' for Active; 'I' for Inactive)
REMARK    1  A    between atoms: C_1  and  C_2
REMARK    2  A    between atoms: C_2  and  C_3
REMARK    3  A    between atoms: C_2  and  N_4
REMARK    4  A    between atoms: N_13  and  C1*_14
REMARK    5  A    between atoms: C2*_16  and  O2*_26
REMARK    6  A    between atoms: C3*_18  and  O3*_25
REMARK    7  A    between atoms: C4*_20  and  C5*_23
REMARK    8  A    between atoms: C5*_23  and  O5*_24
REMARK                            x       y       z     vdW  Elec       q    Type
REMARK                         _______ _______ _______ _____ _____    ______ ____
ROOT
ATOM      1  N   UNL     1       3.035  -0.636   1.526  0.00  0.00    -0.312 N 
ATOM      2  H   UNL     1       2.536  -1.463   1.827  0.00  0.00    +0.149 HD
ATOM      3  C   UNL     1       4.384  -0.585   1.629  0.00  0.00    +0.199 A 
ATOM      4  N   UNL     1       5.147  -1.728   1.822  0.00  0.00    -0.283 N 
ATOM      5  C   UNL     1       6.449  -1.327   2.050  0.00  0.00    +0.074 A 
ATOM      6  C   UNL     1       6.412   0.057   1.893  0.00  0.00    +0.092 A 
ATOM      7  C   UNL     1       7.581   0.816   2.062  0.00  0.00    +0.051 A 
ATOM      8  C   UNL     1       8.772   0.164   2.404  0.00  0.00    +0.061 A 
ATOM      9 CL   UNL     1      10.182   1.144   2.621  0.00  0.00    -0.082 Cl
ATOM     10  C   UNL     1       8.796  -1.225   2.571  0.00  0.00    +0.061 A 
ATOM     11 CL   UNL     1      10.241  -2.073   3.013  0.00  0.00    -0.082 Cl
ATOM     12  C   UNL     1       7.635  -1.994   2.393  0.00  0.00    +0.049 A 
ATOM     13  N   UNL     1       5.146   0.485   1.607  0.00  0.00    -0.214 NA
ENDROOT
BRANCH   4  14
ATOM     14  C1* UNL     1       4.570  -3.058   1.912  0.00  0.00    +0.254 C 
ATOM     15  O4* UNL     1       5.519  -4.043   2.362  0.00  0.00    -0.346 OA
ATOM     16  C4* UNL     1       5.103  -5.323   1.846  0.00  0.00    +0.177 C 
ATOM     17  C3* UNL     1       3.846  -5.087   0.994  0.00  0.00    +0.178 C 
ATOM     18  C2* UNL     1       3.944  -3.614   0.625  0.00  0.00    +0.195 C 
BRANCH  17  19
ATOM     19  O3* UNL     1       3.746  -5.917  -0.158  0.00  0.00    -0.386 OA
ATOM     20  H3* UNL     1       4.227  -5.436  -0.867  0.00  0.00    +0.210 HD
ENDBRANCH  17  19
BRANCH  18  21
ATOM     21  O2* UNL     1       4.773  -3.525  -0.543  0.00  0.00    -0.385 OA
ATOM     22  H2* UNL     1       4.458  -2.762  -1.067  0.00  0.00    +0.210 HD
ENDBRANCH  18  21
BRANCH  16  23
ATOM     23  C5* UNL     1       6.268  -5.990   1.114  0.00  0.00    +0.190 C 
BRANCH  23  24
ATOM     24  O5* UNL     1       5.936  -7.309   0.695  0.00  0.00    -0.392 OA
ATOM     25  H5* UNL     1       5.095  -7.246   0.196  0.00  0.00    +0.210 HD
ENDBRANCH  23  24
ENDBRANCH  16  23
ENDBRANCH   4  14
BRANCH   1  27
ATOM     26  C   UNL     1       0.818   0.330   1.430  0.00  0.00    +0.027 C 
ATOM     27  C   UNL     1       2.271   0.573   1.849  0.00  0.00    +0.067 C 
ATOM     28  C   UNL     1       2.336   0.844   3.354  0.00  0.00    +0.027 C 
ENDBRANCH   1  27
TORSDOF 6
