REMARK  Name = 
REMARK  6 active torsions:
REMARK  status: ('A' for Active; 'I' for Inactive)
REMARK    1  A    between atoms: C6_3  and  N6_22
REMARK    2  A    between atoms: N9_7  and  C1*_10
REMARK    3  A    between atoms: C2*_11  and  O2*_21
REMARK    4  A    between atoms: C3*_13  and  O3*_20
REMARK    5  A    between atoms: C4*_15  and  C5*_18
REMARK    6  A    between atoms: C5*_18  and  O5*_19
REMARK                            x       y       z     vdW  Elec       q    Type
REMARK                         _______ _______ _______ _____ _____    ______ ____
ROOT
ATOM      1  C2    A A   1      -1.708   0.562  -1.417  0.00  0.00    +0.225 A 
ATOM      2  N3    A A   1      -0.707   1.392  -1.041  0.00  0.00    -0.216 NA
ATOM      3  C4    A A   1       0.284   0.709  -0.440  0.00  0.00    +0.167 A 
ATOM      4  N9    A A   1       1.445   1.192   0.100  0.00  0.00    -0.286 N 
ATOM      5  C8    A A   1       2.138   0.112   0.601  0.00  0.00    +0.203 A 
ATOM      6  N7    A A   1       1.496  -1.021   0.419  0.00  0.00    -0.231 NA
ATOM      7  C5    A A   1       0.338  -0.662  -0.230  0.00  0.00    +0.147 A 
ATOM      8  C6    A A   1      -0.754  -1.420  -0.689  0.00  0.00    +0.147 A 
ATOM      9  N1    A A   1      -1.788  -0.776  -1.275  0.00  0.00    -0.219 NA
ENDROOT
BRANCH   4  10
ATOM     10  C1*   A A   1       1.982   2.532   0.099  0.00  0.00    +0.253 C 
ATOM     11  O4*   A A   1       2.275   2.911   1.462  0.00  0.00    -0.346 OA
ATOM     12  C4*   A A   1       2.456   4.351   1.460  0.00  0.00    +0.177 C 
ATOM     13  C3*   A A   1       1.974   4.873   0.094  0.00  0.00    +0.178 C 
ATOM     14  C2*   A A   1       1.178   3.704  -0.477  0.00  0.00    +0.195 C 
BRANCH  13  15
ATOM     15  O3*   A A   1       3.119   5.104  -0.742  0.00  0.00    -0.386 OA
ATOM     16  H3*   A A   1       2.823   5.654  -1.491  0.00  0.00    +0.210 HD
ENDBRANCH  13  15
BRANCH  14  17
ATOM     17  O2*   A A   1      -0.159   3.802   0.010  0.00  0.00    -0.385 OA
ATOM     18  H2*   A A   1      -0.653   3.042  -0.364  0.00  0.00    +0.210 HD
ENDBRANCH  14  17
BRANCH  12  19
ATOM     19  C5*   A A   1       1.732   4.946   2.672  0.00  0.00    +0.190 C 
BRANCH  19  20
ATOM     20  O5*   A A   1       0.331   4.707   2.661  0.00  0.00    -0.392 OA
ATOM     21  H5*   A A   1       0.200   3.769   2.430  0.00  0.00    +0.210 HD
ENDBRANCH  19  20
ENDBRANCH  12  19
ENDBRANCH   4  10
BRANCH   8  22
ATOM     22  N6    A A   1      -0.828  -2.799  -0.552  0.00  0.00    -0.341 N 
ATOM     23  H61   A A   1      -0.214  -3.161   0.169  0.00  0.00    +0.144 HD
ATOM     24  H62   A A   1      -1.783  -3.134  -0.567  0.00  0.00    +0.144 HD
ENDBRANCH   8  22
TORSDOF 6
