REMARK  Name = 
REMARK  6 active torsions:
REMARK  status: ('A' for Active; 'I' for Inactive)
REMARK    1  A    between atoms: C6_3  and  N6_22
REMARK    2  A    between atoms: N9_7  and  C1*_10
REMARK    3  A    between atoms: C2*_11  and  O2*_21
REMARK    4  A    between atoms: C3*_13  and  O3*_20
REMARK    5  A    between atoms: C4*_15  and  C5*_18
REMARK    6  A    between atoms: C5*_18  and  O5*_19
REMARK                            x       y       z     vdW  Elec       q    Type
REMARK                         _______ _______ _______ _____ _____    ______ ____
ROOT
ATOM      1  C2    A A   1      -1.689   0.522  -1.398  0.00  0.00    +0.225 A 
ATOM      2  N3    A A   1      -0.677   1.350  -1.050  0.00  0.00    -0.216 NA
ATOM      3  C4    A A   1       0.325   0.669  -0.463  0.00  0.00    +0.167 A 
ATOM      4  N9    A A   1       1.495   1.152   0.056  0.00  0.00    -0.286 N 
ATOM      5  C8    A A   1       2.189   0.074   0.557  0.00  0.00    +0.203 A 
ATOM      6  N7    A A   1       1.543  -1.058   0.390  0.00  0.00    -0.231 NA
ATOM      7  C5    A A   1       0.373  -0.698  -0.245  0.00  0.00    +0.147 A 
ATOM      8  C6    A A   1      -0.726  -1.458  -0.678  0.00  0.00    +0.147 A 
ATOM      9  N1    A A   1      -1.771  -0.815  -1.244  0.00  0.00    -0.219 NA
ENDROOT
BRANCH   4  10
ATOM     10  C1*   A A   1       2.033   2.492   0.042  0.00  0.00    +0.253 C 
ATOM     11  O4*   A A   1       2.338   2.873   1.401  0.00  0.00    -0.346 OA
ATOM     12  C4*   A A   1       2.446   4.320   1.426  0.00  0.00    +0.177 C 
ATOM     13  C3*   A A   1       2.003   4.834   0.046  0.00  0.00    +0.178 C 
ATOM     14  C2*   A A   1       1.216   3.660  -0.525  0.00  0.00    +0.195 C 
BRANCH  13  15
ATOM     15  O3*   A A   1       3.165   5.053  -0.767  0.00  0.00    -0.386 OA
ATOM     16  H3*   A A   1       2.898   5.625  -1.510  0.00  0.00    +0.210 HD
ENDBRANCH  13  15
BRANCH  14  17
ATOM     17  O2*   A A   1      -0.115   3.741  -0.015  0.00  0.00    -0.385 OA
ATOM     18  H2*   A A   1      -0.617   3.003  -0.426  0.00  0.00    +0.210 HD
ENDBRANCH  14  17
BRANCH  12  19
ATOM     19  C5*   A A   1       1.627   4.857   2.608  0.00  0.00    +0.190 C 
BRANCH  19  20
ATOM     20  O5*   A A   1       0.230   4.612   2.516  0.00  0.00    -0.392 OA
ATOM     21  H5*   A A   1       0.088   3.841   1.932  0.00  0.00    +0.210 HD
ENDBRANCH  19  20
ENDBRANCH  12  19
ENDBRANCH   4  10
BRANCH   8  22
ATOM     22  N6    A A   1      -0.798  -2.839  -0.534  0.00  0.00    -0.341 N 
ATOM     23  H61   A A   1      -0.170  -3.197   0.177  0.00  0.00    +0.144 HD
ATOM     24  H62   A A   1      -1.754  -3.170  -0.526  0.00  0.00    +0.144 HD
ENDBRANCH   8  22
TORSDOF 6
