REMARK  Name = 
REMARK  18 active torsions:
REMARK  status: ('A' for Active; 'I' for Inactive)
REMARK    1  A    between atoms: C_1  and  C_2
REMARK    2  A    between atoms: N_5  and  C_24
REMARK    3  A    between atoms: N_8  and  C_9
REMARK    4  A    between atoms: C_9  and  C_11
REMARK    5  A    between atoms: C_9  and  C_14
REMARK    6  A    between atoms: C_11  and  O_12
REMARK    7  A    between atoms: O_12  and  C_13
REMARK    8  A    between atoms: C_17  and  C_20
REMARK    9  A    between atoms: C_24  and  C_40
REMARK   10  A    between atoms: C_30  and  C_32
REMARK   11  A    between atoms: C_33  and  C_39
REMARK   12  A    between atoms: C_37  and  C_38
REMARK   13  A    between atoms: C_41  and  C_42
REMARK   14  A    between atoms: C_41  and  C_47
REMARK   15  A    between atoms: C_42  and  C_43
REMARK   16  A    between atoms: C_42  and  O_46
REMARK   17  A    between atoms: C_43  and  O_45
REMARK   18  A    between atoms: C_47  and  O_49
REMARK                            x       y       z     vdW  Elec       q    Type
REMARK                         _______ _______ _______ _____ _____    ______ ____
ROOT
ATOM      1  C   UNL     1       0.602   0.203  -1.305  0.00  0.00    +0.025 C 
ATOM      2  C   UNL     1       2.107   0.175  -0.941  0.00  0.00    +0.068 C 
ATOM      3  N   UNL     1       2.921   1.115  -1.760  0.00  0.00    -0.288 NA
ATOM      4  C   UNL     1       2.777   0.617  -3.154  0.00  0.00    +0.101 C 
ATOM      5  C   UNL     1       3.158  -0.879  -3.369  0.00  0.00    +0.100 C 
ATOM      6  N   UNL     1       2.662  -1.872  -2.381  0.00  0.00    -0.294 NA
ATOM      7  C   UNL     1       2.596  -1.293  -1.013  0.00  0.00    +0.103 C 
ENDROOT
BRANCH   6   8
ATOM      8  C   UNL     1       3.379  -3.195  -2.416  0.00  0.00    +0.022 C 
ATOM      9  C   UNL     1       4.869  -3.047  -1.978  0.00  0.00    +0.028 C 
ATOM     10  C   UNL     1       3.413  -3.833  -3.842  0.00  0.00    +0.041 C 
ATOM     11  C   UNL     1       2.110  -4.483  -4.317  0.00  0.00    +0.110 C 
ATOM     12  N   UNL     1       1.563  -5.396  -3.317  0.00  0.00    -0.297 N 
ATOM     13  C   UNL     1       0.974  -6.642  -3.580  0.00  0.00    +0.250 C 
ATOM     14  O   UNL     1       0.181  -7.171  -2.803  0.00  0.00    -0.270 OA
ATOM     15  C   UNL     1       1.377  -4.790  -2.000  0.00  0.00    +0.110 C 
ATOM     16  C   UNL     1       2.706  -4.243  -1.472  0.00  0.00    +0.041 C 
BRANCH  13  17
ATOM     17  C   UNL     1       1.361  -7.421  -4.786  0.00  0.00    +0.079 A 
ATOM     18  C   UNL     1       0.410  -8.039  -5.601  0.00  0.00    +0.054 A 
ATOM     19  C   UNL     1      -1.069  -7.973  -5.348  0.00  0.00    +0.066 C 
ATOM     20  N   UNL     1       0.752  -8.780  -6.690  0.00  0.00    -0.240 NA
ATOM     21  C   UNL     1       2.057  -8.936  -6.930  0.00  0.00    +0.221 A 
ATOM     22  N   UNL     1       3.047  -8.444  -6.182  0.00  0.00    -0.240 NA
ATOM     23  C   UNL     1       2.689  -7.716  -5.091  0.00  0.00    +0.054 A 
ATOM     24  C   UNL     1       3.861  -7.310  -4.251  0.00  0.00    +0.066 C 
ENDBRANCH  13  17
ENDBRANCH   6   8
BRANCH   3  25
ATOM     25  C   UNL     1       4.380   1.169  -1.345  0.00  0.00    +0.113 C 
BRANCH  25  26
ATOM     26  C   UNL     1       4.660   1.547   0.129  0.00  0.00    -0.028 A 
ATOM     27  C   UNL     1       4.247   2.754   0.703  0.00  0.00    +0.006 A 
ATOM     28  C   UNL     1       4.657   3.115   2.003  0.00  0.00    +0.013 A 
ATOM     29  C   UNL     1       5.478   2.269   2.770  0.00  0.00    +0.055 A 
ATOM     30  C   UNL     1       5.885   1.064   2.206  0.00  0.00    +0.013 A 
ATOM     31  C   UNL     1       5.490   0.710   0.906  0.00  0.00    +0.006 A 
BRANCH  29  32
ATOM     32  C   UNL     1       5.882   2.654   4.175  0.00  0.00    +0.417 C 
ATOM     33  F   UNL     1       4.812   2.843   5.001  0.00  0.00    -0.166 F 
ATOM     34  F   UNL     1       6.580   3.827   4.215  0.00  0.00    -0.166 F 
ATOM     35  F   UNL     1       6.676   1.739   4.801  0.00  0.00    -0.166 F 
ENDBRANCH  29  32
ENDBRANCH  25  26
BRANCH  25  36
ATOM     36  C   UNL     1       5.203   2.156  -2.234  0.00  0.00    +0.183 C 
BRANCH  36  37
ATOM     37  O   UNL     1       6.614   2.030  -2.006  0.00  0.00    -0.381 OA
ATOM     38  C   UNL     1       7.339   2.983  -2.775  0.00  0.00    +0.194 C 
ENDBRANCH  36  37
ENDBRANCH  25  36
ENDBRANCH   3  25
TORSDOF 7
REMARK  Name = 
REMARK  18 active torsions:
REMARK  status: ('A' for Active; 'I' for Inactive)
REMARK    1  A    between atoms: C_1  and  C_2
REMARK    2  A    between atoms: N_5  and  C_24
REMARK    3  A    between atoms: N_8  and  C_9
REMARK    4  A    between atoms: C_9  and  C_11
REMARK    5  A    between atoms: C_9  and  C_14
REMARK    6  A    between atoms: C_11  and  O_12
REMARK    7  A    between atoms: O_12  and  C_13
REMARK    8  A    between atoms: C_17  and  C_20
REMARK    9  A    between atoms: C_24  and  C_40
REMARK   10  A    between atoms: C_30  and  C_32
REMARK   11  A    between atoms: C_33  and  C_39
REMARK   12  A    between atoms: C_37  and  C_38
REMARK   13  A    between atoms: C_41  and  C_42
REMARK   14  A    between atoms: C_41  and  C_47
REMARK   15  A    between atoms: C_42  and  C_43
REMARK   16  A    between atoms: C_42  and  O_46
REMARK   17  A    between atoms: C_43  and  O_45
REMARK   18  A    between atoms: C_47  and  O_49
REMARK                            x       y       z     vdW  Elec       q    Type
REMARK                         _______ _______ _______ _____ _____    ______ ____
ROOT
ATOM      1  C   UNL     1       0.353   1.481   2.199  0.00  0.00    +0.233 C 
ENDROOT
BRANCH   1   2
ATOM      2  O   UNL     1       0.560   2.152   3.457  0.00  0.00    -0.380 OA
ATOM      3  H   UNL     1      -0.286   2.619   3.644  0.00  0.00    +0.211 HD
ENDBRANCH   1   2
BRANCH   1   4
ATOM      4  C   UNL     1      -1.113   1.534   1.760  0.00  0.00    +0.334 C 
ATOM      5  O   UNL     1      -1.656   0.907   0.868  0.00  0.00    -0.248 OA
BRANCH   4   6
ATOM      6  O   UNL     1      -1.820   2.420   2.507  0.00  0.00    -0.479 OA
ATOM      7  H   UNL     1      -2.727   2.375   2.130  0.00  0.00    +0.295 HD
ENDBRANCH   4   6
ENDBRANCH   1   4
BRANCH   1   8
ATOM      8  C   UNL     1       0.794   0.040   2.389  0.00  0.00    +0.163 C 
BRANCH   8   9
ATOM      9  C   UNL     1       2.275  -0.090   2.638  0.00  0.00    +0.308 C 
ATOM     10  O   UNL     1       2.954  -0.976   2.138  0.00  0.00    -0.251 OA
BRANCH   9  11
ATOM     11  O   UNL     1       2.766   0.781   3.542  0.00  0.00    -0.481 OA
ATOM     12  H   UNL     1       2.098   1.452   3.825  0.00  0.00    +0.295 HD
ENDBRANCH   9  11
ENDBRANCH   8   9
ENDBRANCH   1   8
TORSDOF 6
