REMARK  Name = 
REMARK  18 active torsions:
REMARK  status: ('A' for Active; 'I' for Inactive)
REMARK    1  A    between atoms: C_1  and  C_2
REMARK    2  A    between atoms: N_5  and  C_24
REMARK    3  A    between atoms: N_8  and  C_9
REMARK    4  A    between atoms: C_9  and  C_11
REMARK    5  A    between atoms: C_9  and  C_14
REMARK    6  A    between atoms: C_11  and  O_12
REMARK    7  A    between atoms: O_12  and  C_13
REMARK    8  A    between atoms: C_17  and  C_20
REMARK    9  A    between atoms: C_24  and  C_40
REMARK   10  A    between atoms: C_30  and  C_32
REMARK   11  A    between atoms: C_33  and  C_39
REMARK   12  A    between atoms: C_37  and  C_38
REMARK   13  A    between atoms: C_41  and  C_42
REMARK   14  A    between atoms: C_41  and  C_47
REMARK   15  A    between atoms: C_42  and  C_43
REMARK   16  A    between atoms: C_42  and  O_46
REMARK   17  A    between atoms: C_43  and  O_45
REMARK   18  A    between atoms: C_47  and  O_49
REMARK                            x       y       z     vdW  Elec       q    Type
REMARK                         _______ _______ _______ _____ _____    ______ ____
ROOT
ATOM      1  C   UNL     1       1.991   0.200   1.263  0.00  0.00    +0.025 C 
ATOM      2  C   UNL     1       3.172   0.081   0.261  0.00  0.00    +0.068 C 
ATOM      3  N   UNL     1       3.563   1.139  -0.753  0.00  0.00    -0.288 NA
ATOM      4  C   UNL     1       3.117   0.757  -2.128  0.00  0.00    +0.101 C 
ATOM      5  C   UNL     1       3.311  -0.713  -2.556  0.00  0.00    +0.100 C 
ATOM      6  N   UNL     1       2.858  -1.780  -1.627  0.00  0.00    -0.294 NA
ATOM      7  C   UNL     1       3.265  -1.359  -0.273  0.00  0.00    +0.103 C 
ENDROOT
BRANCH   6   8
ATOM      8  C   UNL     1       3.438  -3.143  -2.012  0.00  0.00    +0.022 C 
ATOM      9  C   UNL     1       3.550  -3.276  -3.570  0.00  0.00    +0.028 C 
ATOM     10  C   UNL     1       2.530  -4.353  -1.641  0.00  0.00    +0.041 C 
ATOM     11  C   UNL     1       2.477  -4.736  -0.174  0.00  0.00    +0.110 C 
ATOM     12  N   UNL     1       3.804  -4.833   0.442  0.00  0.00    -0.297 N 
ATOM     13  C   UNL     1       3.976  -5.455   1.686  0.00  0.00    +0.250 C 
ATOM     14  O   UNL     1       4.675  -4.988   2.573  0.00  0.00    -0.270 OA
ATOM     15  C   UNL     1       4.782  -3.808   0.131  0.00  0.00    +0.110 C 
ATOM     16  C   UNL     1       4.830  -3.448  -1.367  0.00  0.00    +0.041 C 
BRANCH  13  17
ATOM     17  C   UNL     1       3.368  -6.770   1.866  0.00  0.00    +0.079 A 
ATOM     18  C   UNL     1       2.691  -7.114   3.034  0.00  0.00    +0.054 A 
ATOM     19  C   UNL     1       2.505  -6.158   4.182  0.00  0.00    +0.066 C 
ATOM     20  N   UNL     1       2.132  -8.340   3.208  0.00  0.00    -0.240 NA
ATOM     21  C   UNL     1       2.284  -9.217   2.208  0.00  0.00    +0.221 A 
ATOM     22  N   UNL     1       2.950  -8.995   1.055  0.00  0.00    -0.240 NA
ATOM     23  C   UNL     1       3.507  -7.790   0.907  0.00  0.00    +0.054 A 
ATOM     24  C   UNL     1       4.257  -7.614  -0.396  0.00  0.00    +0.066 C 
ENDBRANCH  13  17
ENDBRANCH   6   8
BRANCH   3  25
ATOM     25  C   UNL     1       5.064   1.320  -0.797  0.00  0.00    +0.113 C 
BRANCH  25  26
ATOM     26  C   UNL     1       5.643   1.658   0.578  0.00  0.00    -0.028 A 
ATOM     27  C   UNL     1       5.337   2.866   1.217  0.00  0.00    +0.006 A 
ATOM     28  C   UNL     1       5.851   3.139   2.481  0.00  0.00    +0.013 A 
ATOM     29  C   UNL     1       6.641   2.189   3.146  0.00  0.00    +0.055 A 
ATOM     30  C   UNL     1       6.942   0.978   2.509  0.00  0.00    +0.013 A 
ATOM     31  C   UNL     1       6.458   0.719   1.232  0.00  0.00    +0.006 A 
BRANCH  29  32
ATOM     32  C   UNL     1       7.133   2.474   4.539  0.00  0.00    +0.417 C 
ATOM     33  F   UNL     1       6.118   2.781   5.394  0.00  0.00    -0.166 F 
ATOM     34  F   UNL     1       7.992   3.529   4.584  0.00  0.00    -0.166 F 
ATOM     35  F   UNL     1       7.794   1.428   5.109  0.00  0.00    -0.166 F 
ENDBRANCH  29  32
ENDBRANCH  25  26
BRANCH  25  36
ATOM     36  C   UNL     1       5.575   2.412  -1.795  0.00  0.00    +0.183 C 
BRANCH  36  37
ATOM     37  O   UNL     1       7.008   2.383  -1.885  0.00  0.00    -0.381 OA
ATOM     38  C   UNL     1       7.486   3.451  -2.691  0.00  0.00    +0.194 C 
ENDBRANCH  36  37
ENDBRANCH  25  36
ENDBRANCH   3  25
TORSDOF 7
REMARK  Name = 
REMARK  18 active torsions:
REMARK  status: ('A' for Active; 'I' for Inactive)
REMARK    1  A    between atoms: C_1  and  C_2
REMARK    2  A    between atoms: N_5  and  C_24
REMARK    3  A    between atoms: N_8  and  C_9
REMARK    4  A    between atoms: C_9  and  C_11
REMARK    5  A    between atoms: C_9  and  C_14
REMARK    6  A    between atoms: C_11  and  O_12
REMARK    7  A    between atoms: O_12  and  C_13
REMARK    8  A    between atoms: C_17  and  C_20
REMARK    9  A    between atoms: C_24  and  C_40
REMARK   10  A    between atoms: C_30  and  C_32
REMARK   11  A    between atoms: C_33  and  C_39
REMARK   12  A    between atoms: C_37  and  C_38
REMARK   13  A    between atoms: C_41  and  C_42
REMARK   14  A    between atoms: C_41  and  C_47
REMARK   15  A    between atoms: C_42  and  C_43
REMARK   16  A    between atoms: C_42  and  O_46
REMARK   17  A    between atoms: C_43  and  O_45
REMARK   18  A    between atoms: C_47  and  O_49
REMARK                            x       y       z     vdW  Elec       q    Type
REMARK                         _______ _______ _______ _____ _____    ______ ____
ROOT
ATOM      1  C   UNL     1      -1.202  -0.876  -1.751  0.00  0.00    +0.233 C 
ENDROOT
BRANCH   1   2
ATOM      2  O   UNL     1      -0.494  -1.664  -0.778  0.00  0.00    -0.380 OA
ATOM      3  H   UNL     1       0.427  -1.294  -0.769  0.00  0.00    +0.211 HD
ENDBRANCH   1   2
BRANCH   1   4
ATOM      4  C   UNL     1      -0.433  -0.998  -3.074  0.00  0.00    +0.334 C 
ATOM      5  O   UNL     1      -0.173  -0.091  -3.847  0.00  0.00    -0.248 OA
BRANCH   4   6
ATOM      6  O   UNL     1      -0.100  -2.297  -3.312  0.00  0.00    -0.479 OA
ATOM      7  H   UNL     1      -0.290  -2.828  -2.506  0.00  0.00    +0.295 HD
ENDBRANCH   4   6
ENDBRANCH   1   4
BRANCH   1   8
ATOM      8  C   UNL     1      -1.531   0.562  -1.303  0.00  0.00    +0.163 C 
BRANCH   8   9
ATOM      9  C   UNL     1      -0.278   1.234  -0.911  0.00  0.00    +0.308 C 
ATOM     10  O   UNL     1       0.762   0.612  -0.964  0.00  0.00    -0.251 OA
BRANCH   9  11
ATOM     11  O   UNL     1      -0.350   2.489  -0.449  0.00  0.00    -0.481 OA
ATOM     12  H   UNL     1      -1.247   2.860  -0.390  0.00  0.00    +0.295 HD
ENDBRANCH   9  11
ENDBRANCH   8   9
ENDBRANCH   1   8
TORSDOF 6
