REMARK  Name = 
REMARK  6 active torsions:
REMARK  status: ('A' for Active; 'I' for Inactive)
REMARK    1  A    between atoms: C_3  and  C_18
REMARK    2  A    between atoms: N_5  and  C1*_6
REMARK    3  A    between atoms: C2*_7  and  O2*_17
REMARK    4  A    between atoms: C3*_9  and  O3*_16
REMARK    5  A    between atoms: C4*_11  and  C5*_14
REMARK    6  A    between atoms: C5*_14  and  O5*_15
REMARK                            x       y       z     vdW  Elec       q    Type
REMARK                         _______ _______ _______ _____ _____    ______ ____
ROOT
ATOM      1  C1* UNL     1      -0.866  -2.493  -0.034  0.00  0.00    +0.270 C 
ATOM      2  O4* UNL     1      -1.281  -2.902   1.292  0.00  0.00    -0.344 OA
ATOM      3  C4* UNL     1      -1.103  -4.340   1.369  0.00  0.00    +0.177 C 
ATOM      4  C3* UNL     1      -0.699  -4.815  -0.032  0.00  0.00    +0.178 C 
ATOM      5  C2* UNL     1       0.045  -3.601  -0.569  0.00  0.00    +0.196 C 
ENDROOT
BRANCH   1   7
ATOM      6  C   UNL     1      -1.017  -0.055   0.475  0.00  0.00    +0.223 A 
ATOM      7  N   UNL     1      -0.339  -1.149   0.033  0.00  0.00    -0.220 N 
ATOM      8  N   UNL     1       0.880  -0.811  -0.437  0.00  0.00    -0.142 NA
ATOM      9  C   UNL     1       0.891   0.525  -0.240  0.00  0.00    +0.236 A 
ATOM     10  N   UNL     1      -0.283   1.017   0.314  0.00  0.00    -0.211 NA
BRANCH   9  11
ATOM     11  C   UNL     1       2.017   1.417  -0.579  0.00  0.00    +0.281 C 
ATOM     12  N   UNL     1       1.770   2.744  -0.323  0.00  0.00    -0.323 N 
ATOM     13  H   UNL     1       2.490   3.425  -0.513  0.00  0.00    +0.145 HD
ATOM     14  H   UNL     1       0.883   3.021   0.075  0.00  0.00    +0.145 HD
ATOM     15  O   UNL     1       3.090   1.052  -1.051  0.00  0.00    -0.267 OA
ENDBRANCH   9  11
ENDBRANCH   1   7
BRANCH   4  16
ATOM     16  O3* UNL     1       0.120  -5.977   0.005  0.00  0.00    -0.386 OA
ATOM     17  H3* UNL     1       1.031  -5.650   0.160  0.00  0.00    +0.210 HD
ENDBRANCH   4  16
BRANCH   5  18
ATOM     18  O2* UNL     1       1.366  -3.617  -0.000  0.00  0.00    -0.385 OA
ATOM     19  H2* UNL     1       1.761  -2.740  -0.207  0.00  0.00    +0.210 HD
ENDBRANCH   5  18
BRANCH   3  20
ATOM     20  C5* UNL     1      -2.413  -4.954   1.855  0.00  0.00    +0.190 C 
BRANCH  20  21
ATOM     21  O5* UNL     1      -3.490  -4.539   1.010  0.00  0.00    -0.392 OA
ATOM     22  H5* UNL     1      -3.582  -3.580   1.151  0.00  0.00    +0.210 HD
ENDBRANCH  20  21
ENDBRANCH   3  20
TORSDOF 6
