REMARK  Name = 
REMARK  6 active torsions:
REMARK  status: ('A' for Active; 'I' for Inactive)
REMARK    1  A    between atoms: C_3  and  C_18
REMARK    2  A    between atoms: N_5  and  C1*_6
REMARK    3  A    between atoms: C2*_7  and  O2*_17
REMARK    4  A    between atoms: C3*_9  and  O3*_16
REMARK    5  A    between atoms: C4*_11  and  C5*_14
REMARK    6  A    between atoms: C5*_14  and  O5*_15
REMARK                            x       y       z     vdW  Elec       q    Type
REMARK                         _______ _______ _______ _____ _____    ______ ____
ROOT
ATOM      1  C1* UNL     1      -0.869  -2.495  -0.036  0.00  0.00    +0.270 C 
ATOM      2  O4* UNL     1      -1.284  -2.903   1.290  0.00  0.00    -0.344 OA
ATOM      3  C4* UNL     1      -1.105  -4.340   1.368  0.00  0.00    +0.177 C 
ATOM      4  C3* UNL     1      -0.701  -4.816  -0.031  0.00  0.00    +0.178 C 
ATOM      5  C2* UNL     1       0.042  -3.602  -0.570  0.00  0.00    +0.196 C 
ENDROOT
BRANCH   1   7
ATOM      6  C   UNL     1      -1.016  -0.057   0.477  0.00  0.00    +0.223 A 
ATOM      7  N   UNL     1      -0.340  -1.151   0.032  0.00  0.00    -0.220 N 
ATOM      8  N   UNL     1       0.880  -0.815  -0.437  0.00  0.00    -0.142 NA
ATOM      9  C   UNL     1       0.896   0.520  -0.233  0.00  0.00    +0.236 A 
ATOM     10  N   UNL     1      -0.279   1.014   0.320  0.00  0.00    -0.211 NA
BRANCH   9  11
ATOM     11  C   UNL     1       2.026   1.411  -0.563  0.00  0.00    +0.281 C 
ATOM     12  N   UNL     1       1.785   2.736  -0.296  0.00  0.00    -0.323 N 
ATOM     13  H   UNL     1       2.504   3.417  -0.480  0.00  0.00    +0.145 HD
ATOM     14  H   UNL     1       0.893   3.014   0.100  0.00  0.00    +0.145 HD
ATOM     15  O   UNL     1       3.099   1.046  -1.035  0.00  0.00    -0.267 OA
ENDBRANCH   9  11
ENDBRANCH   1   7
BRANCH   4  16
ATOM     16  O3* UNL     1       0.119  -5.975   0.007  0.00  0.00    -0.386 OA
ATOM     17  H3* UNL     1       1.029  -5.647   0.161  0.00  0.00    +0.210 HD
ENDBRANCH   4  16
BRANCH   5  18
ATOM     18  O2* UNL     1       1.363  -3.617  -0.001  0.00  0.00    -0.385 OA
ATOM     19  H2* UNL     1       1.759  -2.740  -0.209  0.00  0.00    +0.210 HD
ENDBRANCH   5  18
BRANCH   3  20
ATOM     20  C5* UNL     1      -2.414  -4.956   1.855  0.00  0.00    +0.190 C 
BRANCH  20  21
ATOM     21  O5* UNL     1      -3.491  -4.541   1.011  0.00  0.00    -0.392 OA
ATOM     22  H5* UNL     1      -3.584  -3.582   1.152  0.00  0.00    +0.210 HD
ENDBRANCH  20  21
ENDBRANCH   3  20
TORSDOF 6
