REMARK  Name = 
REMARK  18 active torsions:
REMARK  status: ('A' for Active; 'I' for Inactive)
REMARK    1  A    between atoms: C_1  and  C_2
REMARK    2  A    between atoms: C_2  and  C_41
REMARK    3  A    between atoms: C_7  and  C_27
REMARK    4  A    between atoms: C_11  and  C_13
REMARK    5  A    between atoms: C_13  and  C_15
REMARK    6  A    between atoms: C_13  and  N_19
REMARK    7  A    between atoms: C_15  and  C_16
REMARK    8  A    between atoms: C_15  and  C_17
REMARK    9  A    between atoms: C_15  and  C_18
REMARK   10  A    between atoms: N_22  and  C_23
REMARK   11  A    between atoms: C_23  and  C_24
REMARK   12  A    between atoms: C_23  and  C_25
REMARK   13  A    between atoms: C_23  and  C_26
REMARK   14  A    between atoms: N_29  and  C_30
REMARK   15  A    between atoms: C_30  and  C_31
REMARK   16  A    between atoms: C_30  and  C_36
REMARK   17  A    between atoms: C_31  and  C_32
REMARK   18  A    between atoms: C_36  and  C_38
REMARK                            x       y       z     vdW  Elec       q    Type
REMARK                         _______ _______ _______ _____ _____    ______ ____
ROOT
ATOM      1  C   UNL     1       5.445  -8.344   1.992  0.00  0.00    +0.011 C 
ATOM      2  C   UNL     1       5.088  -6.868   2.050  0.00  0.00    -0.025 C 
ATOM      3  C   UNL     1       3.700  -6.582   1.558  0.00  0.00    +0.011 C 
ATOM      4  C   UNL     1       5.726  -6.105   3.200  0.00  0.00    +0.030 C 
ATOM      5  C   UNL     1       5.471  -4.709   3.781  0.00  0.00    +0.166 C 
ATOM      6  N   UNL     1       6.307  -3.899   2.870  0.00  0.00    -0.288 N 
ATOM      7  C   UNL     1       6.893  -2.701   3.236  0.00  0.00    +0.237 C 
ATOM      8  O   UNL     1       6.953  -2.379   4.429  0.00  0.00    -0.274 OA
ATOM      9  C   UNL     1       6.121  -4.422   1.527  0.00  0.00    +0.113 C 
ATOM     10  C   UNL     1       6.217  -5.898   1.780  0.00  0.00    +0.018 C 
ENDROOT
BRANCH   5  11
ATOM     11  C   UNL     1       5.735  -4.743   5.311  0.00  0.00    +0.234 C 
ATOM     12  N   UNL     1       7.064  -4.848   5.675  0.00  0.00    -0.304 N 
ATOM     13  H   UNL     1       7.725  -4.479   4.995  0.00  0.00    +0.149 HD
ATOM     14  O   UNL     1       4.822  -4.868   6.126  0.00  0.00    -0.274 OA
BRANCH  12  15
ATOM     15  C   UNL     1       7.468  -4.807   7.077  0.00  0.00    +0.149 C 
BRANCH  15  16
ATOM     16  C   UNL     1       8.861  -4.201   7.156  0.00  0.00    +0.237 C 
ATOM     17  O   UNL     1       9.696  -4.237   6.256  0.00  0.00    -0.285 OA
BRANCH  16  18
ATOM     18  C   UNL     1       9.231  -3.525   8.482  0.00  0.00    +0.279 C 
ATOM     19  N   UNL     1      10.508  -3.057   8.541  0.00  0.00    -0.323 N 
ATOM     20  H   UNL     1      10.815  -2.556   9.369  0.00  0.00    +0.145 HD
ATOM     21  H   UNL     1      11.127  -3.148   7.743  0.00  0.00    +0.145 HD
ATOM     22  O   UNL     1       8.429  -3.428   9.397  0.00  0.00    -0.267 OA
ENDBRANCH  16  18
ENDBRANCH  15  16
BRANCH  15  23
ATOM     23  C   UNL     1       7.400  -6.181   7.767  0.00  0.00    +0.034 C 
BRANCH  23  24
ATOM     24  C   UNL     1       8.275  -7.245   7.097  0.00  0.00    -0.009 C 
ATOM     25  C   UNL     1       7.695  -7.897   5.822  0.00  0.00    +0.003 C 
ATOM     26  C   UNL     1       8.100  -9.272   6.357  0.00  0.00    +0.001 C 
ATOM     27  C   UNL     1       8.238  -8.649   7.754  0.00  0.00    +0.003 C 
ENDBRANCH  23  24
ENDBRANCH  15  23
ENDBRANCH  12  15
ENDBRANCH   5  11
BRANCH   7  28
ATOM     28  C   UNL     1       7.558  -1.774   2.156  0.00  0.00    +0.166 C 
BRANCH  28  29
ATOM     29  N   UNL     1       7.285  -0.394   2.590  0.00  0.00    -0.288 N 
ATOM     30  H   UNL     1       8.036   0.237   2.814  0.00  0.00    +0.151 HD
ATOM     31  C   UNL     1       6.033   0.116   2.387  0.00  0.00    +0.301 C 
ATOM     32  N   UNL     1       5.874   1.372   2.922  0.00  0.00    -0.295 N 
ATOM     33  H   UNL     1       6.434   1.548   3.743  0.00  0.00    +0.151 HD
ATOM     34  O   UNL     1       5.175  -0.508   1.791  0.00  0.00    -0.253 OA
BRANCH  32  35
ATOM     35  C   UNL     1       4.573   2.062   2.844  0.00  0.00    +0.028 C 
ATOM     36  C   UNL     1       4.186   2.299   1.373  0.00  0.00    +0.031 C 
ATOM     37  C   UNL     1       4.679   3.439   3.526  0.00  0.00    +0.031 C 
ATOM     38  C   UNL     1       3.477   1.261   3.571  0.00  0.00    +0.031 C 
ENDBRANCH  32  35
ENDBRANCH  28  29
BRANCH  28  39
ATOM     39  C   UNL     1       9.081  -1.984   1.856  0.00  0.00    -0.011 C 
ATOM     40  C   UNL     1       9.513  -0.952   0.779  0.00  0.00    +0.013 C 
ATOM     41  C   UNL     1       9.359  -3.390   1.298  0.00  0.00    +0.013 C 
ATOM     42  C   UNL     1       9.984  -1.796   3.090  0.00  0.00    +0.013 C 
ENDBRANCH  28  39
ENDBRANCH   7  28
TORSDOF 10
