REMARK  Name = 
REMARK  18 active torsions:
REMARK  status: ('A' for Active; 'I' for Inactive)
REMARK    1  A    between atoms: C_1  and  C_2
REMARK    2  A    between atoms: C_2  and  C_42
REMARK    3  A    between atoms: C_7  and  C_27
REMARK    4  A    between atoms: C_11  and  C_13
REMARK    5  A    between atoms: C_13  and  C_15
REMARK    6  A    between atoms: C_13  and  N_19
REMARK    7  A    between atoms: C_15  and  C_16
REMARK    8  A    between atoms: C_15  and  C_17
REMARK    9  A    between atoms: C_15  and  C_18
REMARK   10  A    between atoms: N_22  and  C_23
REMARK   11  A    between atoms: C_23  and  C_24
REMARK   12  A    between atoms: C_23  and  C_25
REMARK   13  A    between atoms: C_23  and  C_26
REMARK   14  A    between atoms: N_29  and  C_30
REMARK   15  A    between atoms: C_30  and  C_32
REMARK   16  A    between atoms: C_30  and  C_37
REMARK   17  A    between atoms: C_32  and  C_33
REMARK   18  A    between atoms: C_37  and  C_39
REMARK                            x       y       z     vdW  Elec       q    Type
REMARK                         _______ _______ _______ _____ _____    ______ ____
ROOT
ATOM      1  C   UNL     1       5.603  -8.303   1.886  0.00  0.00    +0.011 C 
ATOM      2  C   UNL     1       5.270  -6.823   1.932  0.00  0.00    -0.025 C 
ATOM      3  C   UNL     1       3.892  -6.514   1.433  0.00  0.00    +0.011 C 
ATOM      4  C   UNL     1       5.894  -6.065   3.085  0.00  0.00    +0.030 C 
ATOM      5  C   UNL     1       5.640  -4.660   3.653  0.00  0.00    +0.166 C 
ATOM      6  N   UNL     1       6.517  -3.867   2.771  0.00  0.00    -0.288 N 
ATOM      7  C   UNL     1       6.992  -2.609   3.125  0.00  0.00    +0.237 C 
ATOM      8  O   UNL     1       6.891  -2.209   4.291  0.00  0.00    -0.274 OA
ATOM      9  C   UNL     1       6.409  -4.406   1.421  0.00  0.00    +0.113 C 
ATOM     10  C   UNL     1       6.434  -5.880   1.684  0.00  0.00    +0.018 C 
ENDROOT
BRANCH   5  11
ATOM     11  C   UNL     1       5.891  -4.684   5.189  0.00  0.00    +0.234 C 
ATOM     12  N   UNL     1       7.217  -4.804   5.562  0.00  0.00    -0.304 N 
ATOM     13  H   UNL     1       7.903  -4.506   4.874  0.00  0.00    +0.149 HD
ATOM     14  O   UNL     1       4.972  -4.789   6.000  0.00  0.00    -0.274 OA
BRANCH  12  15
ATOM     15  C   UNL     1       7.618  -4.789   6.965  0.00  0.00    +0.149 C 
BRANCH  15  16
ATOM     16  C   UNL     1       9.018  -4.201   7.057  0.00  0.00    +0.237 C 
ATOM     17  O   UNL     1       9.847  -4.225   6.145  0.00  0.00    -0.285 OA
BRANCH  16  18
ATOM     18  C   UNL     1       9.399  -3.566   8.394  0.00  0.00    +0.279 C 
ATOM     19  N   UNL     1      10.692  -3.123   8.463  0.00  0.00    -0.323 N 
ATOM     20  H   UNL     1      11.017  -2.664   9.302  0.00  0.00    +0.145 HD
ATOM     21  H   UNL     1      11.304  -3.213   7.660  0.00  0.00    +0.145 HD
ATOM     22  O   UNL     1       8.608  -3.474   9.318  0.00  0.00    -0.267 OA
ENDBRANCH  16  18
ENDBRANCH  15  16
BRANCH  15  23
ATOM     23  C   UNL     1       7.534  -6.173   7.639  0.00  0.00    +0.034 C 
BRANCH  23  24
ATOM     24  C   UNL     1       8.398  -7.243   6.967  0.00  0.00    -0.009 C 
ATOM     25  C   UNL     1       7.813  -7.889   5.691  0.00  0.00    +0.003 C 
ATOM     26  C   UNL     1       8.199  -9.270   6.225  0.00  0.00    +0.001 C 
ATOM     27  C   UNL     1       8.345  -8.651   7.621  0.00  0.00    +0.003 C 
ENDBRANCH  23  24
ENDBRANCH  15  23
ENDBRANCH  12  15
ENDBRANCH   5  11
BRANCH   7  28
ATOM     28  C   UNL     1       7.678  -1.702   2.051  0.00  0.00    +0.166 C 
BRANCH  28  29
ATOM     29  N   UNL     1       6.915  -0.456   2.033  0.00  0.00    -0.288 N 
ATOM     30  H   UNL     1       7.382   0.431   2.148  0.00  0.00    +0.151 HD
ATOM     31  C   UNL     1       5.740  -0.456   1.337  0.00  0.00    +0.301 C 
ATOM     32  N   UNL     1       5.075   0.733   1.398  0.00  0.00    -0.295 N 
ATOM     33  H   UNL     1       5.230   1.236   2.267  0.00  0.00    +0.151 HD
ATOM     34  O   UNL     1       5.345  -1.443   0.728  0.00  0.00    -0.253 OA
BRANCH  32  35
ATOM     35  C   UNL     1       3.756   0.892   0.767  0.00  0.00    +0.028 C 
ATOM     36  C   UNL     1       3.860   0.679  -0.755  0.00  0.00    +0.031 C 
ATOM     37  C   UNL     1       3.251   2.327   1.006  0.00  0.00    +0.031 C 
ATOM     38  C   UNL     1       2.736  -0.082   1.387  0.00  0.00    +0.031 C 
ENDBRANCH  32  35
ENDBRANCH  28  29
BRANCH  28  39
ATOM     39  C   UNL     1       9.217  -1.476   2.206  0.00  0.00    -0.011 C 
ATOM     40  C   UNL     1       9.708  -0.596   1.026  0.00  0.00    +0.013 C 
ATOM     41  C   UNL     1       9.945  -2.834   2.144  0.00  0.00    +0.013 C 
ATOM     42  C   UNL     1       9.626  -0.772   3.513  0.00  0.00    +0.013 C 
ENDBRANCH  28  39
ENDBRANCH   7  28
TORSDOF 10
