REMARK  Name = 
REMARK  18 active torsions:
REMARK  status: ('A' for Active; 'I' for Inactive)
REMARK    1  A    between atoms: C_1  and  C_2
REMARK    2  A    between atoms: C_2  and  C_42
REMARK    3  A    between atoms: C_7  and  C_27
REMARK    4  A    between atoms: C_11  and  C_13
REMARK    5  A    between atoms: C_13  and  C_15
REMARK    6  A    between atoms: C_13  and  N_19
REMARK    7  A    between atoms: C_15  and  C_16
REMARK    8  A    between atoms: C_15  and  C_17
REMARK    9  A    between atoms: C_15  and  C_18
REMARK   10  A    between atoms: N_22  and  C_23
REMARK   11  A    between atoms: C_23  and  C_24
REMARK   12  A    between atoms: C_23  and  C_25
REMARK   13  A    between atoms: C_23  and  C_26
REMARK   14  A    between atoms: N_29  and  C_30
REMARK   15  A    between atoms: C_30  and  C_32
REMARK   16  A    between atoms: C_30  and  C_37
REMARK   17  A    between atoms: C_32  and  C_33
REMARK   18  A    between atoms: C_37  and  C_39
REMARK                            x       y       z     vdW  Elec       q    Type
REMARK                         _______ _______ _______ _____ _____    ______ ____
ROOT
ATOM      1  C   UNL     1       5.547  -8.377   1.866  0.00  0.00    +0.011 C 
ATOM      2  C   UNL     1       5.187  -6.903   1.922  0.00  0.00    -0.025 C 
ATOM      3  C   UNL     1       3.802  -6.621   1.430  0.00  0.00    +0.011 C 
ATOM      4  C   UNL     1       5.826  -6.135   3.071  0.00  0.00    +0.030 C 
ATOM      5  C   UNL     1       5.580  -4.738   3.651  0.00  0.00    +0.166 C 
ATOM      6  N   UNL     1       6.405  -3.926   2.732  0.00  0.00    -0.288 N 
ATOM      7  C   UNL     1       6.988  -2.724   3.092  0.00  0.00    +0.237 C 
ATOM      8  O   UNL     1       7.056  -2.395   4.283  0.00  0.00    -0.274 OA
ATOM      9  C   UNL     1       6.211  -4.464   1.399  0.00  0.00    +0.113 C 
ATOM     10  C   UNL     1       6.312  -5.931   1.651  0.00  0.00    +0.018 C 
ENDROOT
BRANCH   5  11
ATOM     11  C   UNL     1       5.866  -4.761   5.177  0.00  0.00    +0.234 C 
ATOM     12  N   UNL     1       7.200  -4.883   5.523  0.00  0.00    -0.304 N 
ATOM     13  H   UNL     1       7.866  -4.533   4.837  0.00  0.00    +0.149 HD
ATOM     14  O   UNL     1       4.966  -4.859   6.005  0.00  0.00    -0.274 OA
BRANCH  12  15
ATOM     15  C   UNL     1       7.626  -4.850   6.916  0.00  0.00    +0.149 C 
BRANCH  15  16
ATOM     16  C   UNL     1       9.027  -4.254   6.978  0.00  0.00    +0.237 C 
ATOM     17  O   UNL     1       9.850  -4.300   6.062  0.00  0.00    -0.285 OA
BRANCH  16  18
ATOM     18  C   UNL     1       9.418  -3.590   8.299  0.00  0.00    +0.279 C 
ATOM     19  N   UNL     1      10.713  -3.155   8.352  0.00  0.00    -0.323 N 
ATOM     20  H   UNL     1      11.043  -2.676   9.177  0.00  0.00    +0.145 HD
ATOM     21  H   UNL     1      11.316  -3.255   7.541  0.00  0.00    +0.145 HD
ATOM     22  O   UNL     1       8.631  -3.472   9.220  0.00  0.00    -0.267 OA
ENDBRANCH  16  18
ENDBRANCH  15  16
BRANCH  15  23
ATOM     23  C   UNL     1       7.567  -6.227   7.598  0.00  0.00    +0.034 C 
BRANCH  23  24
ATOM     24  C   UNL     1       8.436  -7.289   6.916  0.00  0.00    -0.009 C 
ATOM     25  C   UNL     1       7.837  -7.940   5.649  0.00  0.00    +0.003 C 
ATOM     26  C   UNL     1       8.250  -9.316   6.175  0.00  0.00    +0.001 C 
ATOM     27  C   UNL     1       8.417  -8.695   7.571  0.00  0.00    +0.003 C 
ENDBRANCH  23  24
ENDBRANCH  15  23
ENDBRANCH  12  15
ENDBRANCH   5  11
BRANCH   7  28
ATOM     28  C   UNL     1       7.636  -1.799   2.004  0.00  0.00    +0.166 C 
BRANCH  28  29
ATOM     29  N   UNL     1       7.352  -0.419   2.424  0.00  0.00    -0.288 N 
ATOM     30  H   UNL     1       8.082   0.179   2.774  0.00  0.00    +0.151 HD
ATOM     31  C   UNL     1       6.098   0.087   2.244  0.00  0.00    +0.301 C 
ATOM     32  N   UNL     1       5.934   1.330   2.805  0.00  0.00    -0.295 N 
ATOM     33  H   UNL     1       6.504   1.501   3.622  0.00  0.00    +0.151 HD
ATOM     34  O   UNL     1       5.235  -0.531   1.638  0.00  0.00    -0.253 OA
BRANCH  32  35
ATOM     35  C   UNL     1       4.631   2.015   2.752  0.00  0.00    +0.028 C 
ATOM     36  C   UNL     1       4.219   2.266   1.290  0.00  0.00    +0.031 C 
ATOM     37  C   UNL     1       4.743   3.385   3.446  0.00  0.00    +0.031 C 
ATOM     38  C   UNL     1       3.553   1.196   3.484  0.00  0.00    +0.031 C 
ENDBRANCH  32  35
ENDBRANCH  28  29
BRANCH  28  39
ATOM     39  C   UNL     1       9.164  -1.999   1.709  0.00  0.00    -0.011 C 
ATOM     40  C   UNL     1       9.591  -0.964   0.633  0.00  0.00    +0.013 C 
ATOM     41  C   UNL     1       9.450  -3.406   1.156  0.00  0.00    +0.013 C 
ATOM     42  C   UNL     1      10.066  -1.804   2.942  0.00  0.00    +0.013 C 
ENDBRANCH  28  39
ENDBRANCH   7  28
TORSDOF 10
