REMARK  Name = 
REMARK  18 active torsions:
REMARK  status: ('A' for Active; 'I' for Inactive)
REMARK    1  A    between atoms: C_1  and  C_2
REMARK    2  A    between atoms: C_2  and  C_41
REMARK    3  A    between atoms: C_7  and  C_27
REMARK    4  A    between atoms: C_11  and  C_13
REMARK    5  A    between atoms: C_13  and  C_15
REMARK    6  A    between atoms: C_13  and  N_19
REMARK    7  A    between atoms: C_15  and  C_16
REMARK    8  A    between atoms: C_15  and  C_17
REMARK    9  A    between atoms: C_15  and  C_18
REMARK   10  A    between atoms: N_22  and  C_23
REMARK   11  A    between atoms: C_23  and  C_24
REMARK   12  A    between atoms: C_23  and  C_25
REMARK   13  A    between atoms: C_23  and  C_26
REMARK   14  A    between atoms: N_29  and  C_30
REMARK   15  A    between atoms: C_30  and  C_31
REMARK   16  A    between atoms: C_30  and  C_36
REMARK   17  A    between atoms: C_31  and  C_32
REMARK   18  A    between atoms: C_36  and  C_38
REMARK                            x       y       z     vdW  Elec       q    Type
REMARK                         _______ _______ _______ _____ _____    ______ ____
ROOT
ATOM      1  C   UNL     1       5.475  -8.252   2.000  0.00  0.00    +0.011 C 
ATOM      2  C   UNL     1       5.116  -6.777   2.059  0.00  0.00    -0.025 C 
ATOM      3  C   UNL     1       3.726  -6.494   1.573  0.00  0.00    +0.011 C 
ATOM      4  C   UNL     1       5.761  -6.011   3.203  0.00  0.00    +0.030 C 
ATOM      5  C   UNL     1       5.501  -4.616   3.784  0.00  0.00    +0.166 C 
ATOM      6  N   UNL     1       6.331  -3.804   2.871  0.00  0.00    -0.288 N 
ATOM      7  C   UNL     1       6.921  -2.609   3.237  0.00  0.00    +0.237 C 
ATOM      8  O   UNL     1       6.999  -2.296   4.433  0.00  0.00    -0.274 OA
ATOM      9  C   UNL     1       6.140  -4.327   1.529  0.00  0.00    +0.113 C 
ATOM     10  C   UNL     1       6.241  -5.803   1.780  0.00  0.00    +0.018 C 
ENDROOT
BRANCH   5  11
ATOM     11  C   UNL     1       5.757  -4.648   5.317  0.00  0.00    +0.234 C 
ATOM     12  N   UNL     1       7.080  -4.760   5.692  0.00  0.00    -0.304 N 
ATOM     13  H   UNL     1       7.747  -4.386   5.025  0.00  0.00    +0.149 HD
ATOM     14  O   UNL     1       4.833  -4.760   6.126  0.00  0.00    -0.274 OA
BRANCH  12  15
ATOM     15  C   UNL     1       7.468  -4.723   7.100  0.00  0.00    +0.149 C 
BRANCH  15  16
ATOM     16  C   UNL     1       8.869  -4.131   7.202  0.00  0.00    +0.237 C 
ATOM     17  O   UNL     1       9.722  -4.188   6.317  0.00  0.00    -0.285 OA
BRANCH  16  18
ATOM     18  C   UNL     1       9.215  -3.452   8.530  0.00  0.00    +0.279 C 
ATOM     19  N   UNL     1      10.506  -3.016   8.622  0.00  0.00    -0.323 N 
ATOM     20  H   UNL     1      10.807  -2.517   9.447  0.00  0.00    +0.145 HD
ATOM     21  H   UNL     1      11.139  -3.130   7.833  0.00  0.00    +0.145 HD
ATOM     22  O   UNL     1       8.397  -3.319   9.423  0.00  0.00    -0.267 OA
ENDBRANCH  16  18
ENDBRANCH  15  16
BRANCH  15  23
ATOM     23  C   UNL     1       7.380  -6.097   7.789  0.00  0.00    +0.034 C 
BRANCH  23  24
ATOM     24  C   UNL     1       8.261  -7.165   7.132  0.00  0.00    -0.009 C 
ATOM     25  C   UNL     1       7.695  -7.814   5.849  0.00  0.00    +0.003 C 
ATOM     26  C   UNL     1       8.087  -9.191   6.389  0.00  0.00    +0.001 C 
ATOM     27  C   UNL     1       8.212  -8.569   7.788  0.00  0.00    +0.003 C 
ENDBRANCH  23  24
ENDBRANCH  15  23
ENDBRANCH  12  15
ENDBRANCH   5  11
BRANCH   7  28
ATOM     28  C   UNL     1       7.566  -1.672   2.155  0.00  0.00    +0.166 C 
BRANCH  28  29
ATOM     29  N   UNL     1       7.282  -0.298   2.596  0.00  0.00    -0.288 N 
ATOM     30  H   UNL     1       8.030   0.349   2.803  0.00  0.00    +0.151 HD
ATOM     31  C   UNL     1       6.034   0.210   2.402  0.00  0.00    +0.301 C 
ATOM     32  N   UNL     1       5.858   1.461   2.922  0.00  0.00    -0.295 N 
ATOM     33  H   UNL     1       6.395   1.633   3.761  0.00  0.00    +0.151 HD
ATOM     34  O   UNL     1       5.172  -0.435   1.802  0.00  0.00    -0.253 OA
BRANCH  32  35
ATOM     35  C   UNL     1       4.549   2.138   2.824  0.00  0.00    +0.028 C 
ATOM     36  C   UNL     1       4.174   2.348   1.345  0.00  0.00    +0.031 C 
ATOM     37  C   UNL     1       4.642   3.530   3.481  0.00  0.00    +0.031 C 
ATOM     38  C   UNL     1       3.456   1.345   3.556  0.00  0.00    +0.031 C 
ENDBRANCH  32  35
ENDBRANCH  28  29
BRANCH  28  39
ATOM     39  C   UNL     1       9.088  -1.868   1.839  0.00  0.00    -0.011 C 
ATOM     40  C   UNL     1       9.502  -0.828   0.762  0.00  0.00    +0.013 C 
ATOM     41  C   UNL     1       9.372  -3.270   1.271  0.00  0.00    +0.013 C 
ATOM     42  C   UNL     1      10.001  -1.679   3.064  0.00  0.00    +0.013 C 
ENDBRANCH  28  39
ENDBRANCH   7  28
TORSDOF 10
