REMARK  Name = 
REMARK  24 active torsions:
REMARK  status: ('A' for Active; 'I' for Inactive)
REMARK    1  A    between atoms: C_1  and  C_2
REMARK    2  A    between atoms: C_2  and  C_3
REMARK    3  A    between atoms: C_2  and  C_4
REMARK    4  A    between atoms: C_6  and  C_9
REMARK    5  A    between atoms: C_9  and  N_10
REMARK    6  A    between atoms: N_10  and  C_11
REMARK    7  A    between atoms: N_14  and  C_15
REMARK    8  A    between atoms: C_15  and  C_17
REMARK    9  A    between atoms: C_15  and  C_20
REMARK   10  A    between atoms: C_17  and  C_18
REMARK   11  A    between atoms: C_17  and  C_19
REMARK   12  A    between atoms: N_22  and  C_23
REMARK   13  A    between atoms: C_23  and  C_25
REMARK   14  A    between atoms: C_23  and  C_32
REMARK   15  A    between atoms: C_25  and  C_26
REMARK   16  A    between atoms: C_32  and  C_33
REMARK   17  A    between atoms: C_33  and  C_35
REMARK   18  A    between atoms: C_33  and  O_54
REMARK   19  A    between atoms: C_35  and  C_37
REMARK   20  A    between atoms: C_35  and  N_44
REMARK   21  A    between atoms: C_37  and  C_38
REMARK   22  A    between atoms: C_45  and  O_47
REMARK   23  A    between atoms: O_47  and  C_48
REMARK   24  A    between atoms: C_48  and  C_49
REMARK                            x       y       z     vdW  Elec       q    Type
REMARK                         _______ _______ _______ _____ _____    ______ ____
ROOT
ATOM      1  C   UNL     1       7.686 -14.930   3.409  0.00  0.00    +0.080 C 
ENDROOT
BRANCH   1   3
ATOM      2  C   UNL     1       7.851 -16.408   1.318  0.00  0.00    +0.234 C 
ATOM      3  N   UNL     1       8.416 -15.726   2.389  0.00  0.00    -0.311 N 
ATOM      4  H   UNL     1       9.407 -15.533   2.331  0.00  0.00    +0.149 HD
ATOM      5  O   UNL     1       6.639 -16.444   1.103  0.00  0.00    -0.274 OA
BRANCH   2   6
ATOM      6  C   UNL     1       8.799 -17.147   0.328  0.00  0.00    +0.163 C 
BRANCH   6   9
ATOM      7  N   UNL     1       7.338 -20.051  -1.495  0.00  0.00    -0.283 N 
ATOM      8  C   UNL     1       8.022 -18.872  -1.285  0.00  0.00    +0.303 C 
ATOM      9  N   UNL     1       8.181 -18.446  -0.003  0.00  0.00    -0.288 N 
ATOM     10  H   UNL     1       7.712 -18.950   0.743  0.00  0.00    +0.151 HD
ATOM     11  O   UNL     1       8.501 -18.217  -2.226  0.00  0.00    -0.253 OA
ATOM     12  C   UNL     1       7.076 -20.414  -2.881  0.00  0.00    +0.134 C 
BRANCH   7  13
ATOM     13  C   UNL     1       6.653 -20.854  -0.467  0.00  0.00    +0.164 C 
BRANCH  13  17
ATOM     14  C   UNL     1       8.660 -22.118   2.339  0.00  0.00    +0.081 A 
ATOM     15  S   UNL     1       8.752 -23.637   1.528  0.00  0.00    -0.080 S 
ATOM     16  C   UNL     1       7.964 -22.965   0.172  0.00  0.00    +0.071 A 
ATOM     17  C   UNL     1       7.573 -21.663   0.428  0.00  0.00    +0.066 A 
ATOM     18  N   UNL     1       7.981 -21.184   1.687  0.00  0.00    -0.247 NA
BRANCH  14  20
ATOM     19  C   UNL     1      10.203 -20.647   3.668  0.00  0.00    +0.014 C 
ATOM     20  C   UNL     1       9.450 -21.958   3.633  0.00  0.00    +0.038 C 
ATOM     21  C   UNL     1       8.627 -22.078   4.914  0.00  0.00    +0.014 C 
ENDBRANCH  14  20
ENDBRANCH  13  17
ENDBRANCH   7  13
ENDBRANCH   6   9
BRANCH   6  22
ATOM     22  C   UNL     1      10.278 -17.286   0.748  0.00  0.00    +0.012 C 
ATOM     23  C   UNL     1      11.121 -17.960  -0.334  0.00  0.00    +0.009 C 
ATOM     24  C   UNL     1      10.409 -18.090   2.025  0.00  0.00    +0.009 C 
ENDBRANCH   6  22
ENDBRANCH   2   6
ENDBRANCH   1   3
BRANCH   1  25
ATOM     25  C   UNL     1       8.442 -14.935   4.787  0.00  0.00    +0.055 C 
BRANCH  25  26
ATOM     26  C   UNL     1       7.759 -14.144   5.934  0.00  0.00    +0.137 C 
BRANCH  26  27
ATOM     27  O   UNL     1       7.780 -12.744   5.594  0.00  0.00    -0.390 OA
ATOM     28  H   UNL     1       7.299 -12.614   4.761  0.00  0.00    +0.210 HD
ENDBRANCH  26  27
BRANCH  26  29
ATOM     29  C   UNL     1       8.432 -14.282   7.345  0.00  0.00    +0.109 C 
BRANCH  29  30
ATOM     30  N   UNL     1       7.818 -13.326   8.290  0.00  0.00    -0.275 N 
ATOM     31  H   UNL     1       7.114 -12.700   7.928  0.00  0.00    +0.152 HD
ATOM     32  C   UNL     1       8.347 -12.960   9.493  0.00  0.00    +0.401 C 
ATOM     33  O   UNL     1       9.370 -13.401   9.986  0.00  0.00    -0.226 OA
BRANCH  32  34
ATOM     34  O   UNL     1       7.558 -12.002  10.048  0.00  0.00    -0.445 OA
BRANCH  34  35
ATOM     35  C   UNL     1       8.017 -11.428  11.282  0.00  0.00    +0.278 C 
BRANCH  35  36
ATOM     36  C   UNL     1       7.442 -12.198  12.424  0.00  0.00    +0.046 A 
ATOM     37  S   UNL     1       5.878 -11.862  13.049  0.00  0.00    -0.077 S 
ATOM     38  C   UNL     1       6.096 -13.097  14.220  0.00  0.00    +0.156 A 
ATOM     39  N   UNL     1       7.250 -13.724  14.192  0.00  0.00    -0.255 NA
ATOM     40  C   UNL     1       8.017 -13.215  13.161  0.00  0.00    +0.125 A 
ENDBRANCH  35  36
ENDBRANCH  34  35
ENDBRANCH  32  34
ENDBRANCH  29  30
BRANCH  29  41
ATOM     41  C   UNL     1       8.455 -15.735   7.897  0.00  0.00    +0.060 C 
BRANCH  41  42
ATOM     42  C   UNL     1       7.152 -16.504   8.037  0.00  0.00    -0.046 A 
ATOM     43  C   UNL     1       5.968 -15.916   8.501  0.00  0.00    +0.004 A 
ATOM     44  C   UNL     1       4.798 -16.669   8.648  0.00  0.00    +0.000 A 
ATOM     45  C   UNL     1       4.798 -18.029   8.359  0.00  0.00    +0.000 A 
ATOM     46  C   UNL     1       5.976 -18.641   7.941  0.00  0.00    +0.000 A 
ATOM     47  C   UNL     1       7.143 -17.888   7.788  0.00  0.00    +0.004 A 
ENDBRANCH  41  42
ENDBRANCH  29  41
ENDBRANCH  26  29
ENDBRANCH  25  26
ENDBRANCH   1  25
BRANCH   1  48
ATOM     48  C   UNL     1       6.172 -15.229   3.518  0.00  0.00    +0.057 C 
BRANCH  48  49
ATOM     49  C   UNL     1       5.698 -16.636   3.817  0.00  0.00    -0.046 A 
ATOM     50  C   UNL     1       4.328 -16.911   3.635  0.00  0.00    +0.004 A 
ATOM     51  C   UNL     1       3.819 -18.192   3.811  0.00  0.00    +0.000 A 
ATOM     52  C   UNL     1       4.666 -19.232   4.176  0.00  0.00    +0.000 A 
ATOM     53  C   UNL     1       6.019 -18.978   4.348  0.00  0.00    +0.000 A 
ATOM     54  C   UNL     1       6.534 -17.693   4.173  0.00  0.00    +0.004 A 
ENDBRANCH  48  49
ENDBRANCH   1  48
TORSDOF 19
