REMARK  Name = 
REMARK  24 active torsions:
REMARK  status: ('A' for Active; 'I' for Inactive)
REMARK    1  A    between atoms: C_1  and  C_2
REMARK    2  A    between atoms: C_2  and  C_3
REMARK    3  A    between atoms: C_2  and  C_4
REMARK    4  A    between atoms: C_6  and  C_9
REMARK    5  A    between atoms: C_9  and  N_10
REMARK    6  A    between atoms: N_10  and  C_11
REMARK    7  A    between atoms: N_14  and  C_15
REMARK    8  A    between atoms: C_15  and  C_17
REMARK    9  A    between atoms: C_15  and  C_20
REMARK   10  A    between atoms: C_17  and  C_18
REMARK   11  A    between atoms: C_17  and  C_19
REMARK   12  A    between atoms: N_22  and  C_23
REMARK   13  A    between atoms: C_23  and  C_25
REMARK   14  A    between atoms: C_23  and  C_32
REMARK   15  A    between atoms: C_25  and  C_26
REMARK   16  A    between atoms: C_32  and  C_33
REMARK   17  A    between atoms: C_33  and  C_35
REMARK   18  A    between atoms: C_33  and  O_54
REMARK   19  A    between atoms: C_35  and  C_37
REMARK   20  A    between atoms: C_35  and  N_44
REMARK   21  A    between atoms: C_37  and  C_38
REMARK   22  A    between atoms: C_45  and  O_47
REMARK   23  A    between atoms: O_47  and  C_48
REMARK   24  A    between atoms: C_48  and  C_49
REMARK                            x       y       z     vdW  Elec       q    Type
REMARK                         _______ _______ _______ _____ _____    ______ ____
ROOT
ATOM      1  C   UNL     1       6.969   6.187  12.161  0.00  0.00    +0.080 C 
ENDROOT
BRANCH   1   3
ATOM      2  C   UNL     1       5.549   7.229  10.334  0.00  0.00    +0.234 C 
ATOM      3  N   UNL     1       6.683   6.547  10.756  0.00  0.00    -0.311 N 
ATOM      4  H   UNL     1       7.318   6.200  10.048  0.00  0.00    +0.149 HD
ATOM      5  O   UNL     1       4.658   7.581  11.106  0.00  0.00    -0.274 OA
BRANCH   2   6
ATOM      6  C   UNL     1       5.487   7.518   8.800  0.00  0.00    +0.163 C 
BRANCH   6   9
ATOM      7  N   UNL     1       3.510  10.353   7.427  0.00  0.00    -0.283 N 
ATOM      8  C   UNL     1       4.594   9.536   7.664  0.00  0.00    +0.303 C 
ATOM      9  N   UNL     1       4.392   8.444   8.465  0.00  0.00    -0.288 N 
ATOM     10  H   UNL     1       3.584   8.416   9.067  0.00  0.00    +0.151 HD
ATOM     11  O   UNL     1       5.703   9.763   7.163  0.00  0.00    -0.253 OA
ATOM     12  C   UNL     1       2.160  10.113   7.922  0.00  0.00    +0.134 C 
BRANCH   7  13
ATOM     13  C   UNL     1       3.738  11.619   6.724  0.00  0.00    +0.164 C 
BRANCH  13  17
ATOM     14  C   UNL     1       1.538  11.901   3.847  0.00  0.00    +0.081 A 
ATOM     15  S   UNL     1       2.778  11.259   2.839  0.00  0.00    -0.080 S 
ATOM     16  C   UNL     1       3.795  11.099   4.204  0.00  0.00    +0.071 A 
ATOM     17  C   UNL     1       3.160  11.574   5.337  0.00  0.00    +0.066 A 
ATOM     18  N   UNL     1       1.869  12.053   5.114  0.00  0.00    -0.247 NA
BRANCH  14  20
ATOM     19  C   UNL     1      -0.851  11.221   3.913  0.00  0.00    +0.014 C 
ATOM     20  C   UNL     1       0.167  12.168   3.274  0.00  0.00    +0.038 C 
ATOM     21  C   UNL     1      -0.257  13.623   3.460  0.00  0.00    +0.014 C 
ENDBRANCH  14  20
ENDBRANCH  13  17
ENDBRANCH   7  13
ENDBRANCH   6   9
BRANCH   6  22
ATOM     22  C   UNL     1       5.426   6.222   7.954  0.00  0.00    +0.012 C 
ATOM     23  C   UNL     1       5.463   6.508   6.451  0.00  0.00    +0.009 C 
ATOM     24  C   UNL     1       4.203   5.364   8.270  0.00  0.00    +0.009 C 
ENDBRANCH   6  22
ENDBRANCH   2   6
ENDBRANCH   1   3
BRANCH   1  25
ATOM     25  C   UNL     1       8.473   5.804  12.314  0.00  0.00    +0.055 C 
BRANCH  25  26
ATOM     26  C   UNL     1       8.949   5.466  13.748  0.00  0.00    +0.137 C 
BRANCH  26  27
ATOM     27  O   UNL     1       8.833   6.667  14.529  0.00  0.00    -0.390 OA
ATOM     28  H   UNL     1       7.893   6.808  14.737  0.00  0.00    +0.210 HD
ENDBRANCH  26  27
BRANCH  26  29
ATOM     29  C   UNL     1      10.442   4.992  13.821  0.00  0.00    +0.109 C 
BRANCH  29  30
ATOM     30  N   UNL     1      10.933   4.952  15.210  0.00  0.00    -0.275 N 
ATOM     31  H   UNL     1      11.521   5.707  15.534  0.00  0.00    +0.152 HD
ATOM     32  C   UNL     1      10.467   4.108  16.171  0.00  0.00    +0.401 C 
ATOM     33  O   UNL     1       9.627   3.238  15.991  0.00  0.00    -0.226 OA
BRANCH  32  34
ATOM     34  O   UNL     1      11.038   4.405  17.366  0.00  0.00    -0.445 OA
BRANCH  34  35
ATOM     35  C   UNL     1      10.339   3.908  18.507  0.00  0.00    +0.278 C 
BRANCH  35  36
ATOM     36  C   UNL     1      11.155   2.871  19.204  0.00  0.00    +0.046 A 
ATOM     37  S   UNL     1      12.114   3.256  20.576  0.00  0.00    -0.077 S 
ATOM     38  C   UNL     1      12.443   1.588  20.799  0.00  0.00    +0.156 A 
ATOM     39  N   UNL     1      11.932   0.775  19.902  0.00  0.00    -0.255 NA
ATOM     40  C   UNL     1      11.202   1.506  18.985  0.00  0.00    +0.125 A 
ENDBRANCH  35  36
ENDBRANCH  34  35
ENDBRANCH  32  34
ENDBRANCH  29  30
BRANCH  29  41
ATOM     41  C   UNL     1      10.729   3.649  13.094  0.00  0.00    +0.060 C 
BRANCH  41  42
ATOM     42  C   UNL     1      12.218   3.424  12.926  0.00  0.00    -0.046 A 
ATOM     43  C   UNL     1      12.884   3.981  11.826  0.00  0.00    +0.004 A 
ATOM     44  C   UNL     1      14.271   3.880  11.714  0.00  0.00    +0.000 A 
ATOM     45  C   UNL     1      15.005   3.217  12.697  0.00  0.00    +0.000 A 
ATOM     46  C   UNL     1      14.349   2.637  13.781  0.00  0.00    +0.000 A 
ATOM     47  C   UNL     1      12.961   2.731  13.892  0.00  0.00    +0.004 A 
ENDBRANCH  41  42
ENDBRANCH  29  41
ENDBRANCH  26  29
ENDBRANCH  25  26
ENDBRANCH   1  25
BRANCH   1  48
ATOM     48  C   UNL     1       5.971   5.133  12.721  0.00  0.00    +0.057 C 
BRANCH  48  49
ATOM     49  C   UNL     1       5.920   3.804  12.000  0.00  0.00    -0.046 A 
ATOM     50  C   UNL     1       4.773   3.440  11.284  0.00  0.00    +0.004 A 
ATOM     51  C   UNL     1       4.733   2.258  10.542  0.00  0.00    +0.000 A 
ATOM     52  C   UNL     1       5.832   1.404  10.532  0.00  0.00    +0.000 A 
ATOM     53  C   UNL     1       6.952   1.716  11.295  0.00  0.00    +0.000 A 
ATOM     54  C   UNL     1       6.984   2.896  12.038  0.00  0.00    +0.004 A 
ENDBRANCH  48  49
ENDBRANCH   1  48
TORSDOF 19
