REMARK  Name = 
REMARK  16 active torsions:
REMARK  status: ('A' for Active; 'I' for Inactive)
REMARK    1  A    between atoms: C_1  and  C_2
REMARK    2  A    between atoms: C_3  and  C_9
REMARK    3  A    between atoms: C_7  and  O_8
REMARK    4  A    between atoms: N_11  and  C_12
REMARK    5  A    between atoms: C_12  and  C_14
REMARK    6  A    between atoms: C_12  and  C_22
REMARK    7  A    between atoms: C_14  and  S_15
REMARK    8  A    between atoms: S_15  and  C_16
REMARK    9  A    between atoms: C_22  and  C_24
REMARK   10  A    between atoms: C_22  and  O_45
REMARK   11  A    between atoms: C_24  and  N_25
REMARK   12  A    between atoms: C_36  and  C_38
REMARK   13  A    between atoms: N_40  and  C_41
REMARK   14  A    between atoms: C_41  and  C_42
REMARK   15  A    between atoms: C_41  and  C_43
REMARK   16  A    between atoms: C_41  and  C_44
REMARK                            x       y       z     vdW  Elec       q    Type
REMARK                         _______ _______ _______ _____ _____    ______ ____
ROOT
ATOM      1  C   UNL     1      -0.607   3.488  -1.305  0.00  0.00    +0.113 C 
ENDROOT
BRANCH   1   3
ATOM      2  C   UNL     1       0.365   5.874  -1.796  0.00  0.00    +0.245 C 
ATOM      3  N   UNL     1       0.400   4.501  -1.813  0.00  0.00    -0.305 N 
ATOM      4  H   UNL     1       1.156   4.081  -2.332  0.00  0.00    +0.149 HD
ATOM      5  O   UNL     1      -0.562   6.488  -1.272  0.00  0.00    -0.270 OA
BRANCH   2  12
ATOM      6  C   UNL     1       2.268   5.155  -4.288  0.00  0.00    +0.048 C 
ATOM      7  C   UNL     1       2.493   6.283  -3.321  0.00  0.00    +0.003 A 
ATOM      8  C   UNL     1       3.678   7.045  -3.495  0.00  0.00    +0.120 A 
ATOM      9  C   UNL     1       3.953   8.185  -2.755  0.00  0.00    +0.046 A 
ATOM     10  C   UNL     1       3.037   8.592  -1.788  0.00  0.00    +0.004 A 
ATOM     11  C   UNL     1       1.887   7.827  -1.556  0.00  0.00    +0.013 A 
ATOM     12  C   UNL     1       1.604   6.641  -2.280  0.00  0.00    +0.043 A 
BRANCH   8  13
ATOM     13  O   UNL     1       4.590   6.637  -4.439  0.00  0.00    -0.506 OA
ATOM     14  H   UNL     1       5.379   7.197  -4.381  0.00  0.00    +0.292 HD
ENDBRANCH   8  13
ENDBRANCH   2  12
ENDBRANCH   1   3
BRANCH   1  15
ATOM     15  C   UNL     1      -1.459   3.843  -0.027  0.00  0.00    +0.149 C 
BRANCH  15  16
ATOM     16  O   UNL     1      -0.748   4.750   0.825  0.00  0.00    -0.389 OA
ATOM     17  H   UNL     1      -0.622   5.565   0.295  0.00  0.00    +0.210 HD
ENDBRANCH  15  16
BRANCH  15  18
ATOM     18  C   UNL     1      -2.004   2.588   0.833  0.00  0.00    +0.118 C 
BRANCH  18  19
ATOM     19  N   UNL     1      -1.034   1.614   1.399  0.00  0.00    -0.289 NA
ATOM     20  C   UNL     1      -1.556   0.489   2.258  0.00  0.00    +0.143 C 
ATOM     21  C   UNL     1      -1.832   0.813   3.748  0.00  0.00    +0.032 C 
ATOM     22  C   UNL     1      -0.635   1.478   4.425  0.00  0.00    -0.005 C 
ATOM     23  C   UNL     1      -0.202   2.698   3.623  0.00  0.00    +0.006 C 
ATOM     24  C   UNL     1      -1.100   3.931   3.861  0.00  0.00    +0.005 C 
ATOM     25  C   UNL     1      -2.148   3.897   4.986  0.00  0.00    +0.000 C 
ATOM     26  C   UNL     1      -2.058   2.800   6.043  0.00  0.00    +0.000 C 
ATOM     27  C   UNL     1      -0.871   1.875   5.882  0.00  0.00    +0.004 C 
ATOM     28  C   UNL     1       0.063   2.273   2.150  0.00  0.00    +0.089 C 
BRANCH  20  29
ATOM     29  C   UNL     1      -2.736  -0.346   1.710  0.00  0.00    +0.231 C 
ATOM     30  N   UNL     1      -2.546  -0.885   0.455  0.00  0.00    -0.309 N 
ATOM     31  H   UNL     1      -1.725  -0.565  -0.046  0.00  0.00    +0.149 HD
ATOM     32  O   UNL     1      -3.708  -0.634   2.406  0.00  0.00    -0.274 OA
BRANCH  30  33
ATOM     33  C   UNL     1      -3.351  -1.996  -0.094  0.00  0.00    +0.026 C 
ATOM     34  C   UNL     1      -3.189  -3.278   0.750  0.00  0.00    +0.031 C 
ATOM     35  C   UNL     1      -2.843  -2.302  -1.516  0.00  0.00    +0.031 C 
ATOM     36  C   UNL     1      -4.842  -1.627  -0.180  0.00  0.00    +0.031 C 
ENDBRANCH  30  33
ENDBRANCH  20  29
ENDBRANCH  18  19
ENDBRANCH  15  18
ENDBRANCH   1  15
BRANCH   1  37
ATOM     37  C   UNL     1      -1.540   2.982  -2.441  0.00  0.00    +0.099 C 
BRANCH  37  38
ATOM     38  S   UNL     1      -0.608   2.572  -3.975  0.00  0.00    -0.123 S 
BRANCH  38  39
ATOM     39  C   UNL     1      -1.926   2.011  -5.036  0.00  0.00    +0.008 A 
ATOM     40  C   UNL     1      -2.561   0.792  -4.779  0.00  0.00    +0.015 A 
ATOM     41  C   UNL     1      -3.540   0.315  -5.645  0.00  0.00    +0.001 A 
ATOM     42  C   UNL     1      -3.888   1.044  -6.785  0.00  0.00    +0.000 A 
ATOM     43  C   UNL     1      -3.253   2.258  -7.059  0.00  0.00    +0.001 A 
ATOM     44  C   UNL     1      -2.270   2.736  -6.184  0.00  0.00    +0.015 A 
ENDBRANCH  38  39
ENDBRANCH  37  38
ENDBRANCH   1  37
TORSDOF 12
