REMARK  Name = 
REMARK  16 active torsions:
REMARK  status: ('A' for Active; 'I' for Inactive)
REMARK    1  A    between atoms: C_1  and  C_2
REMARK    2  A    between atoms: C_3  and  C_9
REMARK    3  A    between atoms: C_7  and  O_8
REMARK    4  A    between atoms: N_11  and  C_12
REMARK    5  A    between atoms: C_12  and  C_14
REMARK    6  A    between atoms: C_12  and  C_22
REMARK    7  A    between atoms: C_14  and  S_15
REMARK    8  A    between atoms: S_15  and  C_16
REMARK    9  A    between atoms: C_22  and  C_24
REMARK   10  A    between atoms: C_22  and  O_45
REMARK   11  A    between atoms: C_24  and  N_25
REMARK   12  A    between atoms: C_36  and  C_38
REMARK   13  A    between atoms: N_40  and  C_41
REMARK   14  A    between atoms: C_41  and  C_42
REMARK   15  A    between atoms: C_41  and  C_43
REMARK   16  A    between atoms: C_41  and  C_44
REMARK                            x       y       z     vdW  Elec       q    Type
REMARK                         _______ _______ _______ _____ _____    ______ ____
ROOT
ATOM      1  C   UNL     1      -0.607   3.358  -1.234  0.00  0.00    +0.113 C 
ENDROOT
BRANCH   1   3
ATOM      2  C   UNL     1       0.387   5.740  -1.712  0.00  0.00    +0.245 C 
ATOM      3  N   UNL     1       0.401   4.365  -1.743  0.00  0.00    -0.305 N 
ATOM      4  H   UNL     1       1.151   3.939  -2.270  0.00  0.00    +0.149 HD
ATOM      5  O   UNL     1      -0.540   6.359  -1.183  0.00  0.00    -0.270 OA
BRANCH   2  12
ATOM      6  C   UNL     1       2.296   5.010  -4.197  0.00  0.00    +0.048 C 
ATOM      7  C   UNL     1       2.534   6.128  -3.222  0.00  0.00    +0.003 A 
ATOM      8  C   UNL     1       3.736   6.873  -3.386  0.00  0.00    +0.120 A 
ATOM      9  C   UNL     1       4.025   7.998  -2.622  0.00  0.00    +0.046 A 
ATOM     10  C   UNL     1       3.103   8.415  -1.675  0.00  0.00    +0.004 A 
ATOM     11  C   UNL     1       1.933   7.668  -1.459  0.00  0.00    +0.013 A 
ATOM     12  C   UNL     1       1.641   6.491  -2.187  0.00  0.00    +0.043 A 
BRANCH   8  13
ATOM     13  O   UNL     1       4.645   6.454  -4.327  0.00  0.00    -0.506 OA
ATOM     14  H   UNL     1       5.435   7.021  -4.271  0.00  0.00    +0.292 HD
ENDBRANCH   8  13
ENDBRANCH   2  12
ENDBRANCH   1   3
BRANCH   1  15
ATOM     15  C   UNL     1      -1.457   3.716   0.047  0.00  0.00    +0.149 C 
BRANCH  15  16
ATOM     16  O   UNL     1      -0.743   4.623   0.897  0.00  0.00    -0.389 OA
ATOM     17  H   UNL     1      -0.614   5.437   0.366  0.00  0.00    +0.210 HD
ENDBRANCH  15  16
BRANCH  15  18
ATOM     18  C   UNL     1      -2.002   2.460   0.911  0.00  0.00    +0.118 C 
BRANCH  18  19
ATOM     19  N   UNL     1      -1.026   1.488   1.472  0.00  0.00    -0.289 NA
ATOM     20  C   UNL     1      -1.539   0.361   2.337  0.00  0.00    +0.143 C 
ATOM     21  C   UNL     1      -1.817   0.689   3.822  0.00  0.00    +0.032 C 
ATOM     22  C   UNL     1      -0.624   1.363   4.500  0.00  0.00    -0.005 C 
ATOM     23  C   UNL     1      -0.195   2.582   3.692  0.00  0.00    +0.006 C 
ATOM     24  C   UNL     1      -1.095   3.814   3.927  0.00  0.00    +0.005 C 
ATOM     25  C   UNL     1      -2.144   3.782   5.052  0.00  0.00    +0.000 C 
ATOM     26  C   UNL     1      -2.059   2.686   6.108  0.00  0.00    +0.000 C 
ATOM     27  C   UNL     1      -0.869   1.762   5.954  0.00  0.00    +0.004 C 
ATOM     28  C   UNL     1       0.070   2.150   2.220  0.00  0.00    +0.089 C 
BRANCH  20  29
ATOM     29  C   UNL     1      -2.714  -0.483   1.794  0.00  0.00    +0.231 C 
ATOM     30  N   UNL     1      -2.527  -1.019   0.538  0.00  0.00    -0.309 N 
ATOM     31  H   UNL     1      -1.735  -0.664   0.014  0.00  0.00    +0.149 HD
ATOM     32  O   UNL     1      -3.679  -0.787   2.498  0.00  0.00    -0.274 OA
BRANCH  30  33
ATOM     33  C   UNL     1      -3.343  -2.117  -0.021  0.00  0.00    +0.026 C 
ATOM     34  C   UNL     1      -3.197  -3.411   0.809  0.00  0.00    +0.031 C 
ATOM     35  C   UNL     1      -2.845  -2.419  -1.444  0.00  0.00    +0.031 C 
ATOM     36  C   UNL     1      -4.828  -1.723  -0.097  0.00  0.00    +0.031 C 
ENDBRANCH  30  33
ENDBRANCH  20  29
ENDBRANCH  18  19
ENDBRANCH  15  18
ENDBRANCH   1  15
BRANCH   1  37
ATOM     37  C   UNL     1      -1.542   2.844  -2.363  0.00  0.00    +0.099 C 
BRANCH  37  38
ATOM     38  S   UNL     1      -0.608   2.433  -3.894  0.00  0.00    -0.123 S 
BRANCH  38  39
ATOM     39  C   UNL     1      -1.923   1.880  -4.964  0.00  0.00    +0.008 A 
ATOM     40  C   UNL     1      -2.564   0.663  -4.722  0.00  0.00    +0.015 A 
ATOM     41  C   UNL     1      -3.525   0.181  -5.613  0.00  0.00    +0.001 A 
ATOM     42  C   UNL     1      -3.843   0.911  -6.756  0.00  0.00    +0.000 A 
ATOM     43  C   UNL     1      -3.205   2.125  -7.009  0.00  0.00    +0.001 A 
ATOM     44  C   UNL     1      -2.243   2.607  -6.116  0.00  0.00    +0.015 A 
ENDBRANCH  38  39
ENDBRANCH  37  38
ENDBRANCH   1  37
TORSDOF 12
