REMARK  Name = 
REMARK  17 active torsions:
REMARK  status: ('A' for Active; 'I' for Inactive)
REMARK    1  A    between atoms: C_1  and  C_2
REMARK    2  A    between atoms: C_2  and  C_3
REMARK    3  A    between atoms: C_2  and  C_4
REMARK    4  A    between atoms: C_2  and  N_5
REMARK    5  A    between atoms: C_6  and  C_8
REMARK    6  A    between atoms: N_20  and  C_21
REMARK    7  A    between atoms: C_21  and  C_22
REMARK    8  A    between atoms: C_22  and  C_24
REMARK    9  A    between atoms: C_22  and  O_59
REMARK   10  A    between atoms: C_24  and  C_26
REMARK   11  A    between atoms: C_24  and  N_33
REMARK   12  A    between atoms: C_26  and  C_27
REMARK   13  A    between atoms: C_34  and  C_36
REMARK   14  A    between atoms: C_36  and  C_38
REMARK   15  A    between atoms: C_36  and  N_42
REMARK   16  A    between atoms: C_38  and  C_39
REMARK   17  A    between atoms: C_43  and  C_45
REMARK                            x       y       z     vdW  Elec       q    Type
REMARK                         _______ _______ _______ _____ _____    ______ ____
ROOT
ATOM      1  C   UNL     1       5.361  -7.002   3.315  0.00  0.00    +0.107 C 
ENDROOT
BRANCH   1   2
ATOM      2  N   UNL     1       4.005  -6.458   3.269  0.00  0.00    -0.308 N 
ATOM      3  H   UNL     1       3.206  -7.053   3.465  0.00  0.00    +0.149 HD
ATOM      4  C   UNL     1       3.752  -5.119   3.071  0.00  0.00    +0.234 C 
ATOM      5  O   UNL     1       4.639  -4.277   2.979  0.00  0.00    -0.274 OA
BRANCH   4   6
ATOM      6  C   UNL     1       2.254  -4.812   2.914  0.00  0.00    +0.168 C 
BRANCH   6   7
ATOM      7  N   UNL     1       1.541  -5.391   4.067  0.00  0.00    -0.298 N 
ATOM      8  H   UNL     1       1.976  -5.432   4.987  0.00  0.00    +0.150 HD
ATOM      9  C   UNL     1       0.280  -5.928   3.943  0.00  0.00    +0.263 C 
ATOM     10  O   UNL     1      -0.343  -5.901   2.882  0.00  0.00    -0.269 OA
BRANCH   9  11
ATOM     11  C   UNL     1      -0.303  -6.588   5.151  0.00  0.00    +0.126 A 
ATOM     12  C   UNL     1      -1.594  -7.097   5.066  0.00  0.00    +0.033 A 
ATOM     13  C   UNL     1      -2.118  -7.745   6.172  0.00  0.00    +0.012 A 
ATOM     14  C   UNL     1      -1.351  -7.882   7.326  0.00  0.00    +0.000 A 
ATOM     15  C   UNL     1      -0.042  -7.330   7.333  0.00  0.00    +0.072 A 
ATOM     16  C   UNL     1       0.702  -7.486   8.495  0.00  0.00    +0.028 A 
ATOM     17  C   UNL     1       0.201  -8.151   9.624  0.00  0.00    +0.002 A 
ATOM     18  C   UNL     1      -1.085  -8.685   9.602  0.00  0.00    +0.001 A 
ATOM     19  C   UNL     1      -1.860  -8.544   8.455  0.00  0.00    +0.010 A 
ATOM     20  N   UNL     1       0.481  -6.693   6.265  0.00  0.00    -0.242 NA
ENDBRANCH   9  11
ENDBRANCH   6   7
BRANCH   6  21
ATOM     21  C   UNL     1       2.014  -3.313   2.757  0.00  0.00    +0.127 C 
BRANCH  21  22
ATOM     22  C   UNL     1       2.708  -2.796   1.514  0.00  0.00    +0.213 C 
ATOM     23  N   UNL     1       3.024  -1.469   1.540  0.00  0.00    -0.329 N 
ATOM     24  H   UNL     1       3.589  -1.120   0.776  0.00  0.00    +0.145 HD
ATOM     25  H   UNL     1       2.945  -0.904   2.373  0.00  0.00    +0.145 HD
ATOM     26  O   UNL     1       2.941  -3.478   0.521  0.00  0.00    -0.276 OA
ENDBRANCH  21  22
ENDBRANCH   6  21
ENDBRANCH   4   6
ENDBRANCH   1   2
BRANCH   1  27
ATOM     27  C   UNL     1       5.363  -8.554   3.274  0.00  0.00    +0.149 C 
BRANCH  27  28
ATOM     28  O   UNL     1       6.715  -9.020   3.234  0.00  0.00    -0.389 OA
ATOM     29  H   UNL     1       6.681  -9.990   3.267  0.00  0.00    +0.210 HD
ENDBRANCH  27  28
BRANCH  27  30
ATOM     30  C   UNL     1       4.580  -9.090   2.042  0.00  0.00    +0.118 C 
BRANCH  30  32
ATOM     31  C   UNL     1       5.502 -11.311   1.356  0.00  0.00    +0.143 C 
ATOM     32  N   UNL     1       4.380 -10.547   1.943  0.00  0.00    -0.289 NA
ATOM     33  C   UNL     1       3.669 -11.134   3.071  0.00  0.00    +0.089 C 
ATOM     34  C   UNL     1       3.531 -12.653   2.987  0.00  0.00    +0.006 C 
ATOM     35  C   UNL     1       4.936 -13.257   3.060  0.00  0.00    -0.005 C 
ATOM     36  C   UNL     1       4.888 -14.785   2.928  0.00  0.00    +0.004 C 
ATOM     37  C   UNL     1       4.123 -15.240   1.689  0.00  0.00    +0.000 C 
ATOM     38  C   UNL     1       2.714 -14.658   1.658  0.00  0.00    +0.000 C 
ATOM     39  C   UNL     1       2.722 -13.136   1.774  0.00  0.00    +0.005 C 
ATOM     40  C   UNL     1       5.946 -12.596   2.100  0.00  0.00    +0.032 C 
BRANCH  31  43
ATOM     41  N   UNL     1       4.322 -10.759  -0.754  0.00  0.00    -0.309 N 
ATOM     42  H   UNL     1       3.741 -10.254  -0.096  0.00  0.00    +0.149 HD
ATOM     43  C   UNL     1       5.241 -11.604  -0.154  0.00  0.00    +0.231 C 
ATOM     44  O   UNL     1       5.866 -12.464  -0.773  0.00  0.00    -0.274 OA
BRANCH  41  46
ATOM     45  C   UNL     1       3.244 -12.222  -2.430  0.00  0.00    +0.031 C 
ATOM     46  C   UNL     1       3.887 -10.854  -2.156  0.00  0.00    +0.026 C 
ATOM     47  C   UNL     1       2.834  -9.764  -2.419  0.00  0.00    +0.031 C 
ATOM     48  C   UNL     1       5.069 -10.616  -3.111  0.00  0.00    +0.031 C 
ENDBRANCH  41  46
ENDBRANCH  31  43
ENDBRANCH  30  32
ENDBRANCH  27  30
ENDBRANCH   1  27
BRANCH   1  49
ATOM     49  C   UNL     1       6.192  -6.437   4.494  0.00  0.00    +0.060 C 
BRANCH  49  50
ATOM     50  C   UNL     1       5.607  -6.616   5.877  0.00  0.00    -0.046 A 
ATOM     51  C   UNL     1       4.764  -5.642   6.432  0.00  0.00    +0.004 A 
ATOM     52  C   UNL     1       4.304  -5.760   7.744  0.00  0.00    +0.000 A 
ATOM     53  C   UNL     1       4.680  -6.860   8.514  0.00  0.00    +0.000 A 
ATOM     54  C   UNL     1       5.495  -7.849   7.966  0.00  0.00    +0.000 A 
ATOM     55  C   UNL     1       5.954  -7.729   6.653  0.00  0.00    +0.004 A 
ENDBRANCH  49  50
ENDBRANCH   1  49
TORSDOF 14
