REMARK  Name = 
REMARK  17 active torsions:
REMARK  status: ('A' for Active; 'I' for Inactive)
REMARK    1  A    between atoms: C_1  and  C_2
REMARK    2  A    between atoms: C_2  and  C_3
REMARK    3  A    between atoms: C_2  and  C_4
REMARK    4  A    between atoms: C_2  and  N_5
REMARK    5  A    between atoms: C_6  and  C_8
REMARK    6  A    between atoms: N_20  and  C_21
REMARK    7  A    between atoms: C_21  and  C_22
REMARK    8  A    between atoms: C_22  and  C_24
REMARK    9  A    between atoms: C_22  and  O_59
REMARK   10  A    between atoms: C_24  and  C_26
REMARK   11  A    between atoms: C_24  and  N_33
REMARK   12  A    between atoms: C_26  and  C_27
REMARK   13  A    between atoms: C_34  and  C_36
REMARK   14  A    between atoms: C_36  and  C_38
REMARK   15  A    between atoms: C_36  and  N_42
REMARK   16  A    between atoms: C_38  and  C_39
REMARK   17  A    between atoms: C_43  and  C_45
REMARK                            x       y       z     vdW  Elec       q    Type
REMARK                         _______ _______ _______ _____ _____    ______ ____
ROOT
ATOM      1  C   UNL     1       6.113  -1.762   8.764  0.00  0.00    +0.107 C 
ENDROOT
BRANCH   1   2
ATOM      2  N   UNL     1       4.888  -0.987   8.401  0.00  0.00    -0.308 N 
ATOM      3  H   UNL     1       4.092  -1.528   8.083  0.00  0.00    +0.149 HD
ATOM      4  C   UNL     1       4.567   0.216   9.073  0.00  0.00    +0.234 C 
ATOM      5  O   UNL     1       5.294   0.691   9.949  0.00  0.00    -0.274 OA
BRANCH   4   6
ATOM      6  C   UNL     1       3.343   1.021   8.517  0.00  0.00    +0.168 C 
BRANCH   6   7
ATOM      7  N   UNL     1       2.493   1.621   9.610  0.00  0.00    -0.298 N 
ATOM      8  H   UNL     1       1.989   0.947  10.181  0.00  0.00    +0.150 HD
ATOM      9  C   UNL     1       2.303   2.920  10.065  0.00  0.00    +0.263 C 
ATOM     10  O   UNL     1       2.805   3.913   9.576  0.00  0.00    -0.269 OA
BRANCH   9  11
ATOM     11  C   UNL     1       1.306   3.038  11.281  0.00  0.00    +0.126 A 
ATOM     12  C   UNL     1       0.764   4.237  11.681  0.00  0.00    +0.033 A 
ATOM     13  C   UNL     1      -0.094   4.274  12.807  0.00  0.00    +0.012 A 
ATOM     14  C   UNL     1      -0.351   3.110  13.534  0.00  0.00    +0.000 A 
ATOM     15  C   UNL     1       0.245   1.927  13.055  0.00  0.00    +0.072 A 
ATOM     16  C   UNL     1       0.014   0.768  13.791  0.00  0.00    +0.028 A 
ATOM     17  C   UNL     1      -0.769   0.737  14.955  0.00  0.00    +0.002 A 
ATOM     18  C   UNL     1      -1.353   1.911  15.423  0.00  0.00    +0.001 A 
ATOM     19  C   UNL     1      -1.154   3.095  14.709  0.00  0.00    +0.010 A 
ATOM     20  N   UNL     1       1.032   1.874  11.947  0.00  0.00    -0.242 NA
ENDBRANCH   9  11
ENDBRANCH   6   7
BRANCH   6  21
ATOM     21  C   UNL     1       4.052   1.880   7.455  0.00  0.00    +0.127 C 
BRANCH  21  22
ATOM     22  C   UNL     1       3.293   2.440   6.298  0.00  0.00    +0.213 C 
ATOM     23  N   UNL     1       4.114   3.050   5.376  0.00  0.00    -0.329 N 
ATOM     24  H   UNL     1       3.710   3.465   4.544  0.00  0.00    +0.145 HD
ATOM     25  H   UNL     1       5.094   3.234   5.563  0.00  0.00    +0.145 HD
ATOM     26  O   UNL     1       2.091   2.303   6.089  0.00  0.00    -0.276 OA
ENDBRANCH  21  22
ENDBRANCH   6  21
ENDBRANCH   4   6
ENDBRANCH   1   2
BRANCH   1  27
ATOM     27  C   UNL     1       6.517  -3.023   7.818  0.00  0.00    +0.149 C 
BRANCH  27  28
ATOM     28  O   UNL     1       7.819  -3.456   8.272  0.00  0.00    -0.389 OA
ATOM     29  H   UNL     1       8.147  -4.145   7.670  0.00  0.00    +0.210 HD
ENDBRANCH  27  28
BRANCH  27  30
ATOM     30  C   UNL     1       6.606  -2.758   6.243  0.00  0.00    +0.118 C 
BRANCH  30  32
ATOM     31  C   UNL     1       7.621  -3.876   4.133  0.00  0.00    +0.143 C 
ATOM     32  N   UNL     1       6.545  -3.835   5.176  0.00  0.00    -0.289 NA
ATOM     33  C   UNL     1       5.972  -5.137   5.518  0.00  0.00    +0.089 C 
ATOM     34  C   UNL     1       5.678  -6.089   4.306  0.00  0.00    +0.006 C 
ATOM     35  C   UNL     1       6.965  -6.405   3.545  0.00  0.00    -0.005 C 
ATOM     36  C   UNL     1       6.773  -7.034   2.156  0.00  0.00    +0.004 C 
ATOM     37  C   UNL     1       5.722  -6.387   1.277  0.00  0.00    +0.000 C 
ATOM     38  C   UNL     1       4.406  -6.107   1.979  0.00  0.00    +0.000 C 
ATOM     39  C   UNL     1       4.460  -5.684   3.452  0.00  0.00    +0.005 C 
ATOM     40  C   UNL     1       8.037  -5.298   3.631  0.00  0.00    +0.032 C 
BRANCH  31  43
ATOM     41  N   UNL     1       6.642  -1.788   3.103  0.00  0.00    -0.309 N 
ATOM     42  H   UNL     1       6.031  -1.847   3.910  0.00  0.00    +0.149 HD
ATOM     43  C   UNL     1       7.371  -2.944   2.877  0.00  0.00    +0.231 C 
ATOM     44  O   UNL     1       7.883  -3.172   1.792  0.00  0.00    -0.274 OA
BRANCH  41  46
ATOM     45  C   UNL     1       5.490  -1.296   0.933  0.00  0.00    +0.031 C 
ATOM     46  C   UNL     1       6.345  -0.743   2.086  0.00  0.00    +0.026 C 
ATOM     47  C   UNL     1       5.549   0.389   2.767  0.00  0.00    +0.031 C 
ATOM     48  C   UNL     1       7.620  -0.106   1.493  0.00  0.00    +0.031 C 
ENDBRANCH  41  46
ENDBRANCH  31  43
ENDBRANCH  30  32
ENDBRANCH  27  30
ENDBRANCH   1  27
BRANCH   1  49
ATOM     49  C   UNL     1       6.082  -2.156  10.289  0.00  0.00    +0.060 C 
BRANCH  49  50
ATOM     50  C   UNL     1       4.861  -2.942  10.724  0.00  0.00    -0.046 A 
ATOM     51  C   UNL     1       3.660  -2.301  11.072  0.00  0.00    +0.004 A 
ATOM     52  C   UNL     1       2.523  -3.036  11.407  0.00  0.00    +0.000 A 
ATOM     53  C   UNL     1       2.586  -4.425  11.439  0.00  0.00    +0.000 A 
ATOM     54  C   UNL     1       3.786  -5.072  11.153  0.00  0.00    +0.000 A 
ATOM     55  C   UNL     1       4.916  -4.339  10.797  0.00  0.00    +0.004 A 
ENDBRANCH  49  50
ENDBRANCH   1  49
TORSDOF 14
