REMARK  Name = 
REMARK  8 active torsions:
REMARK  status: ('A' for Active; 'I' for Inactive)
REMARK    1  A    between atoms: C_1  and  C_2
REMARK    2  A    between atoms: C_2  and  C_3
REMARK    3  A    between atoms: C_2  and  N_4
REMARK    4  A    between atoms: N_13  and  C1*_14
REMARK    5  A    between atoms: C2*_16  and  O2*_26
REMARK    6  A    between atoms: C3*_18  and  O3*_25
REMARK    7  A    between atoms: C4*_20  and  C5*_23
REMARK    8  A    between atoms: C5*_23  and  O5*_24
REMARK                            x       y       z     vdW  Elec       q    Type
REMARK                         _______ _______ _______ _____ _____    ______ ____
ROOT
ATOM      1  N   UNL     1       4.118  -5.699  -0.874  0.00  0.00    -0.312 N 
ATOM      2  H   UNL     1       3.776  -6.193  -0.038  0.00  0.00    +0.149 HD
ATOM      3  C   UNL     1       3.711  -4.427  -1.038  0.00  0.00    +0.199 A 
ATOM      4  N   UNL     1       3.839  -3.507  -0.014  0.00  0.00    -0.283 N 
ATOM      5  C   UNL     1       3.417  -2.281  -0.516  0.00  0.00    +0.074 A 
ATOM      6  C   UNL     1       3.013  -2.559  -1.823  0.00  0.00    +0.092 A 
ATOM      7  C   UNL     1       2.478  -1.530  -2.616  0.00  0.00    +0.051 A 
ATOM      8  C   UNL     1       2.407  -0.233  -2.093  0.00  0.00    +0.061 A 
ATOM      9 CL   UNL     1       1.759   1.001  -3.118  0.00  0.00    -0.082 Cl
ATOM     10  C   UNL     1       2.853   0.038  -0.795  0.00  0.00    +0.061 A 
ATOM     11 CL   UNL     1       2.836   1.635  -0.128  0.00  0.00    -0.082 Cl
ATOM     12  C   UNL     1       3.358  -0.986   0.027  0.00  0.00    +0.049 A 
ATOM     13  N   UNL     1       3.240  -3.873  -2.128  0.00  0.00    -0.214 NA
ENDROOT
BRANCH   4  14
ATOM     14  C1* UNL     1       4.396  -3.670   1.315  0.00  0.00    +0.254 C 
ATOM     15  O4* UNL     1       3.294  -3.832   2.234  0.00  0.00    -0.346 OA
ATOM     16  C4* UNL     1       3.511  -5.019   3.028  0.00  0.00    +0.177 C 
ATOM     17  C3* UNL     1       4.610  -5.850   2.359  0.00  0.00    +0.178 C 
ATOM     18  C2* UNL     1       5.426  -4.757   1.677  0.00  0.00    +0.195 C 
BRANCH  17  19
ATOM     19  O3* UNL     1       4.070  -6.821   1.458  0.00  0.00    -0.386 OA
ATOM     20  H3* UNL     1       4.791  -7.461   1.288  0.00  0.00    +0.210 HD
ENDBRANCH  17  19
BRANCH  18  21
ATOM     21  O2* UNL     1       6.338  -5.190   0.687  0.00  0.00    -0.385 OA
ATOM     22  H2* UNL     1       5.875  -5.152  -0.175  0.00  0.00    +0.210 HD
ENDBRANCH  18  21
BRANCH  16  23
ATOM     23  C5* UNL     1       2.181  -5.744   3.218  0.00  0.00    +0.190 C 
BRANCH  23  24
ATOM     24  O5* UNL     1       2.359  -6.996   3.866  0.00  0.00    -0.392 OA
ATOM     25  H5* UNL     1       2.663  -7.613   3.173  0.00  0.00    +0.210 HD
ENDBRANCH  23  24
ENDBRANCH  16  23
ENDBRANCH   4  14
BRANCH   1  27
ATOM     26  C   UNL     1       5.722  -7.275  -1.714  0.00  0.00    +0.027 C 
ATOM     27  C   UNL     1       4.380  -6.587  -1.998  0.00  0.00    +0.067 C 
ATOM     28  C   UNL     1       3.287  -7.649  -2.123  0.00  0.00    +0.027 C 
ENDBRANCH   1  27
TORSDOF 6
