REMARK  Name = 
REMARK  16 active torsions:
REMARK  status: ('A' for Active; 'I' for Inactive)
REMARK    1  A    between atoms: C_1  and  C_2
REMARK    2  A    between atoms: C_3  and  C_9
REMARK    3  A    between atoms: C_7  and  O_8
REMARK    4  A    between atoms: N_11  and  C_12
REMARK    5  A    between atoms: C_12  and  C_14
REMARK    6  A    between atoms: C_12  and  C_22
REMARK    7  A    between atoms: C_14  and  S_15
REMARK    8  A    between atoms: S_15  and  C_16
REMARK    9  A    between atoms: C_22  and  C_24
REMARK   10  A    between atoms: C_22  and  O_45
REMARK   11  A    between atoms: C_24  and  N_25
REMARK   12  A    between atoms: C_36  and  C_38
REMARK   13  A    between atoms: N_40  and  C_41
REMARK   14  A    between atoms: C_41  and  C_42
REMARK   15  A    between atoms: C_41  and  C_43
REMARK   16  A    between atoms: C_41  and  C_44
REMARK                            x       y       z     vdW  Elec       q    Type
REMARK                         _______ _______ _______ _____ _____    ______ ____
ROOT
ATOM      1  C   UNL     1      -2.801   4.115  -0.464  0.00  0.00    +0.113 C 
ENDROOT
BRANCH   1   3
ATOM      2  C   UNL     1      -4.494   4.775   1.226  0.00  0.00    +0.245 C 
ATOM      3  N   UNL     1      -3.213   4.825   0.745  0.00  0.00    -0.305 N 
ATOM      4  H   UNL     1      -2.461   5.201   1.316  0.00  0.00    +0.149 HD
ATOM      5  O   UNL     1      -5.399   4.162   0.666  0.00  0.00    -0.270 OA
BRANCH   2  12
ATOM      6  C   UNL     1      -3.385   7.566   2.066  0.00  0.00    +0.048 C 
ATOM      7  C   UNL     1      -4.220   6.666   2.936  0.00  0.00    +0.003 A 
ATOM      8  C   UNL     1      -4.547   7.125   4.225  0.00  0.00    +0.120 A 
ATOM      9  C   UNL     1      -5.360   6.389   5.092  0.00  0.00    +0.046 A 
ATOM     10  C   UNL     1      -5.870   5.163   4.683  0.00  0.00    +0.004 A 
ATOM     11  C   UNL     1      -5.560   4.680   3.415  0.00  0.00    +0.013 A 
ATOM     12  C   UNL     1      -4.734   5.416   2.542  0.00  0.00    +0.043 A 
BRANCH   8  13
ATOM     13  O   UNL     1      -4.058   8.337   4.626  0.00  0.00    -0.506 OA
ATOM     14  H   UNL     1      -4.423   8.551   5.500  0.00  0.00    +0.292 HD
ENDBRANCH   8  13
ENDBRANCH   2  12
ENDBRANCH   1   3
BRANCH   1  15
ATOM     15  C   UNL     1      -1.534   3.310  -0.141  0.00  0.00    +0.149 C 
BRANCH  15  16
ATOM     16  O   UNL     1      -0.548   4.152   0.479  0.00  0.00    -0.389 OA
ATOM     17  H   UNL     1       0.186   3.545   0.692  0.00  0.00    +0.210 HD
ENDBRANCH  15  16
BRANCH  15  18
ATOM     18  C   UNL     1      -1.846   2.121   0.783  0.00  0.00    +0.118 C 
BRANCH  18  19
ATOM     19  N   UNL     1      -0.681   1.293   1.184  0.00  0.00    -0.289 NA
ATOM     20  C   UNL     1      -0.086   0.427   0.114  0.00  0.00    +0.143 C 
ATOM     21  C   UNL     1      -1.016  -0.723  -0.290  0.00  0.00    +0.032 C 
ATOM     22  C   UNL     1      -1.425  -1.619   0.877  0.00  0.00    -0.005 C 
ATOM     23  C   UNL     1      -2.016  -0.795   2.018  0.00  0.00    +0.006 C 
ATOM     24  C   UNL     1      -3.529  -0.497   1.881  0.00  0.00    +0.005 C 
ATOM     25  C   UNL     1      -4.268  -0.975   0.621  0.00  0.00    +0.000 C 
ATOM     26  C   UNL     1      -3.671  -2.141  -0.164  0.00  0.00    +0.000 C 
ATOM     27  C   UNL     1      -2.395  -2.712   0.433  0.00  0.00    +0.004 C 
ATOM     28  C   UNL     1      -1.098   0.424   2.325  0.00  0.00    +0.089 C 
BRANCH  20  29
ATOM     29  C   UNL     1       0.288   1.159  -1.196  0.00  0.00    +0.231 C 
ATOM     30  N   UNL     1       1.406   1.964  -1.209  0.00  0.00    -0.309 N 
ATOM     31  H   UNL     1       1.904   2.078  -0.335  0.00  0.00    +0.149 HD
ATOM     32  O   UNL     1      -0.422   1.004  -2.198  0.00  0.00    -0.274 OA
BRANCH  30  33
ATOM     33  C   UNL     1       1.841   2.808  -2.363  0.00  0.00    +0.026 C 
ATOM     34  C   UNL     1       1.281   2.361  -3.732  0.00  0.00    +0.031 C 
ATOM     35  C   UNL     1       3.373   2.737  -2.465  0.00  0.00    +0.031 C 
ATOM     36  C   UNL     1       1.452   4.277  -2.135  0.00  0.00    +0.031 C 
ENDBRANCH  30  33
ENDBRANCH  20  29
ENDBRANCH  18  19
ENDBRANCH  15  18
ENDBRANCH   1  15
BRANCH   1  37
ATOM     37  C   UNL     1      -2.573   5.107  -1.616  0.00  0.00    +0.099 C 
BRANCH  37  38
ATOM     38  S   UNL     1      -2.357   4.261  -3.240  0.00  0.00    -0.123 S 
BRANCH  38  39
ATOM     39  C   UNL     1      -1.845   5.620  -4.271  0.00  0.00    +0.008 A 
ATOM     40  C   UNL     1      -2.474   6.867  -4.184  0.00  0.00    +0.015 A 
ATOM     41  C   UNL     1      -2.094   7.915  -5.020  0.00  0.00    +0.001 A 
ATOM     42  C   UNL     1      -1.091   7.724  -5.961  0.00  0.00    +0.000 A 
ATOM     43  C   UNL     1      -0.461   6.488  -6.070  0.00  0.00    +0.001 A 
ATOM     44  C   UNL     1      -0.840   5.437  -5.229  0.00  0.00    +0.015 A 
ENDBRANCH  38  39
ENDBRANCH  37  38
ENDBRANCH   1  37
TORSDOF 12
