REMARK  Name = 
REMARK  16 active torsions:
REMARK  status: ('A' for Active; 'I' for Inactive)
REMARK    1  A    between atoms: C_1  and  C_2
REMARK    2  A    between atoms: C_3  and  C_9
REMARK    3  A    between atoms: C_7  and  O_8
REMARK    4  A    between atoms: N_11  and  C_12
REMARK    5  A    between atoms: C_12  and  C_14
REMARK    6  A    between atoms: C_12  and  C_22
REMARK    7  A    between atoms: C_14  and  S_15
REMARK    8  A    between atoms: S_15  and  C_16
REMARK    9  A    between atoms: C_22  and  C_24
REMARK   10  A    between atoms: C_22  and  O_45
REMARK   11  A    between atoms: C_24  and  N_25
REMARK   12  A    between atoms: C_36  and  C_38
REMARK   13  A    between atoms: N_40  and  C_41
REMARK   14  A    between atoms: C_41  and  C_42
REMARK   15  A    between atoms: C_41  and  C_43
REMARK   16  A    between atoms: C_41  and  C_44
REMARK                            x       y       z     vdW  Elec       q    Type
REMARK                         _______ _______ _______ _____ _____    ______ ____
ROOT
ATOM      1  C   UNL     1      -2.806   4.167  -0.421  0.00  0.00    +0.113 C 
ENDROOT
BRANCH   1   3
ATOM      2  C   UNL     1      -4.497   4.836   1.266  0.00  0.00    +0.245 C 
ATOM      3  N   UNL     1      -3.215   4.885   0.785  0.00  0.00    -0.305 N 
ATOM      4  H   UNL     1      -2.462   5.257   1.358  0.00  0.00    +0.149 HD
ATOM      5  O   UNL     1      -5.399   4.216   0.706  0.00  0.00    -0.270 OA
BRANCH   2  12
ATOM      6  C   UNL     1      -3.386   7.619   2.115  0.00  0.00    +0.048 C 
ATOM      7  C   UNL     1      -4.236   6.726   2.979  0.00  0.00    +0.003 A 
ATOM      8  C   UNL     1      -4.582   7.187   4.262  0.00  0.00    +0.120 A 
ATOM      9  C   UNL     1      -5.399   6.451   5.122  0.00  0.00    +0.046 A 
ATOM     10  C   UNL     1      -5.899   5.221   4.711  0.00  0.00    +0.004 A 
ATOM     11  C   UNL     1      -5.574   4.737   3.447  0.00  0.00    +0.013 A 
ATOM     12  C   UNL     1      -4.743   5.474   2.580  0.00  0.00    +0.043 A 
BRANCH   8  13
ATOM     13  O   UNL     1      -4.109   8.407   4.665  0.00  0.00    -0.506 OA
ATOM     14  H   UNL     1      -4.515   8.635   5.517  0.00  0.00    +0.292 HD
ENDBRANCH   8  13
ENDBRANCH   2  12
ENDBRANCH   1   3
BRANCH   1  15
ATOM     15  C   UNL     1      -1.545   3.355  -0.096  0.00  0.00    +0.149 C 
BRANCH  15  16
ATOM     16  O   UNL     1      -0.546   4.195   0.505  0.00  0.00    -0.389 OA
ATOM     17  H   UNL     1       0.200   3.591   0.680  0.00  0.00    +0.210 HD
ENDBRANCH  15  16
BRANCH  15  18
ATOM     18  C   UNL     1      -1.860   2.177   0.837  0.00  0.00    +0.118 C 
BRANCH  18  19
ATOM     19  N   UNL     1      -0.700   1.339   1.232  0.00  0.00    -0.289 NA
ATOM     20  C   UNL     1      -0.113   0.470   0.161  0.00  0.00    +0.143 C 
ATOM     21  C   UNL     1      -1.057  -0.677  -0.236  0.00  0.00    +0.032 C 
ATOM     22  C   UNL     1      -1.461  -1.566   0.933  0.00  0.00    -0.005 C 
ATOM     23  C   UNL     1      -2.049  -0.737   2.072  0.00  0.00    +0.006 C 
ATOM     24  C   UNL     1      -3.560  -0.430   1.932  0.00  0.00    +0.005 C 
ATOM     25  C   UNL     1      -4.305  -0.918   0.679  0.00  0.00    +0.000 C 
ATOM     26  C   UNL     1      -3.708  -2.084  -0.106  0.00  0.00    +0.000 C 
ATOM     27  C   UNL     1      -2.435  -2.658   0.494  0.00  0.00    +0.004 C 
ATOM     28  C   UNL     1      -1.122   0.476   2.378  0.00  0.00    +0.089 C 
BRANCH  20  29
ATOM     29  C   UNL     1       0.254   1.193  -1.155  0.00  0.00    +0.231 C 
ATOM     30  N   UNL     1       1.384   1.990  -1.175  0.00  0.00    -0.309 N 
ATOM     31  H   UNL     1       1.896   2.090  -0.308  0.00  0.00    +0.149 HD
ATOM     32  O   UNL     1      -0.462   1.046  -2.145  0.00  0.00    -0.274 OA
BRANCH  30  33
ATOM     33  C   UNL     1       1.825   2.822  -2.336  0.00  0.00    +0.026 C 
ATOM     34  C   UNL     1       1.260   2.366  -3.698  0.00  0.00    +0.031 C 
ATOM     35  C   UNL     1       3.356   2.742  -2.440  0.00  0.00    +0.031 C 
ATOM     36  C   UNL     1       1.446   4.296  -2.117  0.00  0.00    +0.031 C 
ENDBRANCH  30  33
ENDBRANCH  20  29
ENDBRANCH  18  19
ENDBRANCH  15  18
ENDBRANCH   1  15
BRANCH   1  37
ATOM     37  C   UNL     1      -2.572   5.149  -1.581  0.00  0.00    +0.099 C 
BRANCH  37  38
ATOM     38  S   UNL     1      -2.350   4.291  -3.198  0.00  0.00    -0.123 S 
BRANCH  38  39
ATOM     39  C   UNL     1      -1.835   5.644  -4.237  0.00  0.00    +0.008 A 
ATOM     40  C   UNL     1      -2.453   6.894  -4.143  0.00  0.00    +0.015 A 
ATOM     41  C   UNL     1      -2.071   7.938  -4.988  0.00  0.00    +0.001 A 
ATOM     42  C   UNL     1      -1.077   7.741  -5.941  0.00  0.00    +0.000 A 
ATOM     43  C   UNL     1      -0.454   6.499  -6.047  0.00  0.00    +0.001 A 
ATOM     44  C   UNL     1      -0.835   5.447  -5.197  0.00  0.00    +0.015 A 
ENDBRANCH  38  39
ENDBRANCH  37  38
ENDBRANCH   1  37
TORSDOF 12
