REMARK  Name = 
REMARK  8 active torsions:
REMARK  status: ('A' for Active; 'I' for Inactive)
REMARK    1  A    between atoms: C_1  and  C_2
REMARK    2  A    between atoms: C_2  and  C_3
REMARK    3  A    between atoms: C_2  and  N_4
REMARK    4  A    between atoms: N_13  and  C1*_14
REMARK    5  A    between atoms: C2*_16  and  O2*_26
REMARK    6  A    between atoms: C3*_18  and  O3*_25
REMARK    7  A    between atoms: C4*_20  and  C5*_23
REMARK    8  A    between atoms: C5*_23  and  O5*_24
REMARK                            x       y       z     vdW  Elec       q    Type
REMARK                         _______ _______ _______ _____ _____    ______ ____
ROOT
ATOM      1  N   UNL     1       2.717  -6.080  -2.340  0.00  0.00    -0.312 N 
ATOM      2  H   UNL     1       3.550  -6.452  -2.796  0.00  0.00    +0.149 HD
ATOM      3  C   UNL     1       2.597  -4.746  -2.545  0.00  0.00    +0.199 A 
ATOM      4  N   UNL     1       3.329  -3.823  -1.816  0.00  0.00    -0.283 N 
ATOM      5  C   UNL     1       3.071  -2.579  -2.378  0.00  0.00    +0.074 A 
ATOM      6  C   UNL     1       2.137  -2.837  -3.378  0.00  0.00    +0.092 A 
ATOM      7  C   UNL     1       1.655  -1.794  -4.184  0.00  0.00    +0.051 A 
ATOM      8  C   UNL     1       2.130  -0.498  -3.969  0.00  0.00    +0.061 A 
ATOM      9 CL   UNL     1       1.530   0.749  -5.009  0.00  0.00    -0.082 Cl
ATOM     10  C   UNL     1       3.064  -0.243  -2.959  0.00  0.00    +0.061 A 
ATOM     11 CL   UNL     1       3.677   1.348  -2.658  0.00  0.00    -0.082 Cl
ATOM     12  C   UNL     1       3.552  -1.280  -2.148  0.00  0.00    +0.049 A 
ATOM     13  N   UNL     1       1.839  -4.165  -3.440  0.00  0.00    -0.214 NA
ENDROOT
BRANCH   4  14
ATOM     14  C1* UNL     1       4.323  -4.139  -0.788  0.00  0.00    +0.254 C 
ATOM     15  O4* UNL     1       4.568  -2.971   0.038  0.00  0.00    -0.346 OA
ATOM     16  C4* UNL     1       3.941  -3.159   1.328  0.00  0.00    +0.177 C 
ATOM     17  C3* UNL     1       3.303  -4.545   1.326  0.00  0.00    +0.178 C 
ATOM     18  C2* UNL     1       4.005  -5.275   0.198  0.00  0.00    +0.195 C 
BRANCH  17  19
ATOM     19  O3* UNL     1       3.401  -5.246   2.557  0.00  0.00    -0.386 OA
ATOM     20  H3* UNL     1       4.340  -5.540   2.591  0.00  0.00    +0.210 HD
ENDBRANCH  17  19
BRANCH  18  21
ATOM     21  O2* UNL     1       5.204  -5.896   0.702  0.00  0.00    -0.385 OA
ATOM     22  H2* UNL     1       5.670  -6.304  -0.048  0.00  0.00    +0.210 HD
ENDBRANCH  18  21
BRANCH  16  23
ATOM     23  C5* UNL     1       4.931  -2.872   2.466  0.00  0.00    +0.190 C 
BRANCH  23  24
ATOM     24  O5* UNL     1       6.008  -3.803   2.497  0.00  0.00    -0.392 OA
ATOM     25  H5* UNL     1       6.597  -3.534   3.225  0.00  0.00    +0.210 HD
ENDBRANCH  23  24
ENDBRANCH  16  23
ENDBRANCH   4  14
BRANCH   1  27
ATOM     26  C   UNL     1       1.965  -8.389  -2.461  0.00  0.00    +0.027 C 
ATOM     27  C   UNL     1       1.575  -6.933  -2.728  0.00  0.00    +0.067 C 
ATOM     28  C   UNL     1       0.317  -6.598  -1.921  0.00  0.00    +0.027 C 
ENDBRANCH   1  27
TORSDOF 6
