REMARK  Name = 
REMARK  8 active torsions:
REMARK  status: ('A' for Active; 'I' for Inactive)
REMARK    1  A    between atoms: C_1  and  C_2
REMARK    2  A    between atoms: C_2  and  C_3
REMARK    3  A    between atoms: C_2  and  N_4
REMARK    4  A    between atoms: N_13  and  C1*_14
REMARK    5  A    between atoms: C2*_16  and  O2*_26
REMARK    6  A    between atoms: C3*_18  and  O3*_25
REMARK    7  A    between atoms: C4*_20  and  C5*_23
REMARK    8  A    between atoms: C5*_23  and  O5*_24
REMARK                            x       y       z     vdW  Elec       q    Type
REMARK                         _______ _______ _______ _____ _____    ______ ____
ROOT
ATOM      1  N   UNL     1       3.346  -2.519  -1.835  0.00  0.00    -0.312 N 
ATOM      2  H   UNL     1       3.713  -3.080  -1.059  0.00  0.00    +0.149 HD
ATOM      3  C   UNL     1       2.945  -1.258  -1.569  0.00  0.00    +0.199 A 
ATOM      4  N   UNL     1       3.791  -0.372  -0.901  0.00  0.00    -0.283 N 
ATOM      5  C   UNL     1       3.317   0.904  -1.154  0.00  0.00    +0.074 A 
ATOM      6  C   UNL     1       2.082   0.682  -1.780  0.00  0.00    +0.092 A 
ATOM      7  C   UNL     1       1.297   1.768  -2.206  0.00  0.00    +0.051 A 
ATOM      8  C   UNL     1       1.812   3.060  -2.082  0.00  0.00    +0.061 A 
ATOM      9 CL   UNL     1       0.869   4.356  -2.738  0.00  0.00    -0.082 Cl
ATOM     10  C   UNL     1       3.064   3.271  -1.489  0.00  0.00    +0.061 A 
ATOM     11 CL   UNL     1       3.779   4.845  -1.400  0.00  0.00    -0.082 Cl
ATOM     12  C   UNL     1       3.819   2.197  -0.981  0.00  0.00    +0.049 A 
ATOM     13  N   UNL     1       1.855  -0.646  -1.961  0.00  0.00    -0.214 NA
ENDROOT
BRANCH   4  14
ATOM     14  C1* UNL     1       5.077  -0.803  -0.337  0.00  0.00    +0.254 C 
ATOM     15  O4* UNL     1       5.849   0.305   0.155  0.00  0.00    -0.346 OA
ATOM     16  C4* UNL     1       6.397  -0.009   1.449  0.00  0.00    +0.177 C 
ATOM     17  C3* UNL     1       5.736  -1.288   1.960  0.00  0.00    +0.178 C 
ATOM     18  C2* UNL     1       4.940  -1.850   0.785  0.00  0.00    +0.195 C 
BRANCH  17  19
ATOM     19  O3* UNL     1       6.606  -2.211   2.600  0.00  0.00    -0.386 OA
ATOM     20  H3* UNL     1       7.322  -2.438   1.973  0.00  0.00    +0.210 HD
ENDBRANCH  17  19
BRANCH  18  21
ATOM     21  O2* UNL     1       5.341  -3.166   0.377  0.00  0.00    -0.385 OA
ATOM     22  H2* UNL     1       5.957  -3.114  -0.375  0.00  0.00    +0.210 HD
ENDBRANCH  18  21
BRANCH  16  23
ATOM     23  C5* UNL     1       7.928  -0.039   1.399  0.00  0.00    +0.190 C 
BRANCH  23  24
ATOM     24  O5* UNL     1       8.382  -1.159   0.637  0.00  0.00    -0.392 OA
ATOM     25  H5* UNL     1       8.682  -0.804  -0.220  0.00  0.00    +0.210 HD
ENDBRANCH  23  24
ENDBRANCH  16  23
ENDBRANCH   4  14
BRANCH   1  27
ATOM     26  C   UNL     1       1.706  -4.300  -2.210  0.00  0.00    +0.027 C 
ATOM     27  C   UNL     1       2.720  -3.366  -2.857  0.00  0.00    +0.067 C 
ATOM     28  C   UNL     1       2.178  -2.630  -4.079  0.00  0.00    +0.027 C 
ENDBRANCH   1  27
TORSDOF 6
