REMARK  Name = 
REMARK  17 active torsions:
REMARK  status: ('A' for Active; 'I' for Inactive)
REMARK    1  A    between atoms: C_10  and  C_12
REMARK    2  A    between atoms: N_14  and  C_15
REMARK    3  A    between atoms: C_15  and  C_17
REMARK    4  A    between atoms: C_15  and  C_21
REMARK    5  A    between atoms: C_17  and  C_18
REMARK    6  A    between atoms: N_23  and  C_24
REMARK    7  A    between atoms: C_24  and  C_26
REMARK    8  A    between atoms: C_24  and  C_33
REMARK    9  A    between atoms: C_26  and  C_27
REMARK   10  A    between atoms: C_33  and  C_35
REMARK   11  A    between atoms: C_33  and  O_56
REMARK   12  A    between atoms: C_35  and  N_36
REMARK   13  A    between atoms: C_47  and  C_49
REMARK   14  A    between atoms: N_51  and  C_52
REMARK   15  A    between atoms: C_52  and  C_53
REMARK   16  A    between atoms: C_52  and  C_54
REMARK   17  A    between atoms: C_52  and  C_55
REMARK                            x       y       z     vdW  Elec       q    Type
REMARK                         _______ _______ _______ _____ _____    ______ ____
ROOT
ATOM      1  C   UNL     1      12.702  -5.158  -1.165  0.00  0.00    +0.107 C 
ENDROOT
BRANCH   1   3
ATOM      2  C   UNL     1      11.459  -3.074  -1.899  0.00  0.00    +0.234 C 
ATOM      3  N   UNL     1      12.042  -3.867  -0.941  0.00  0.00    -0.308 N 
ATOM      4  H   UNL     1      12.035  -3.528   0.023  0.00  0.00    +0.149 HD
ATOM      5  O   UNL     1      11.505  -3.326  -3.103  0.00  0.00    -0.274 OA
BRANCH   2   6
ATOM      6  C   UNL     1      10.703  -1.838  -1.365  0.00  0.00    +0.168 C 
BRANCH   6   8
ATOM      7  C   UNL     1      10.357   0.319  -2.594  0.00  0.00    +0.263 C 
ATOM      8  N   UNL     1      10.380  -1.051  -2.561  0.00  0.00    -0.298 N 
ATOM      9  H   UNL     1      10.317  -1.545  -3.451  0.00  0.00    +0.150 HD
ATOM     10  O   UNL     1      10.537   1.013  -1.607  0.00  0.00    -0.269 OA
BRANCH   7  17
ATOM     11  H   UNL     1       8.492   2.036  -9.661  0.00  0.00    +0.062 HD
ATOM     12  C   UNL     1       8.767   1.635  -8.690  0.00  0.00    +0.001 A 
ATOM     13  C   UNL     1       9.086   2.494  -7.641  0.00  0.00    +0.010 A 
ATOM     14  C   UNL     1       9.438   1.983  -6.383  0.00  0.00    +0.000 A 
ATOM     15  C   UNL     1       9.761   2.830  -5.316  0.00  0.00    +0.012 A 
ATOM     16  C   UNL     1      10.082   2.294  -4.077  0.00  0.00    +0.033 A 
ATOM     17  C   UNL     1      10.073   0.914  -3.941  0.00  0.00    +0.126 A 
ATOM     18  N   UNL     1       9.781   0.052  -4.959  0.00  0.00    -0.242 NA
ATOM     19  C   UNL     1       9.474   0.584  -6.160  0.00  0.00    +0.072 A 
ATOM     20  C   UNL     1       9.163  -0.250  -7.231  0.00  0.00    +0.028 A 
ATOM     21  C   UNL     1       8.811   0.261  -8.486  0.00  0.00    +0.002 A 
ENDBRANCH   7  17
ENDBRANCH   6   8
BRANCH   6  22
ATOM     22  C   UNL     1       9.412  -2.183  -0.627  0.00  0.00    +0.127 C 
BRANCH  22  23
ATOM     23  C   UNL     1       9.624  -2.898   0.686  0.00  0.00    +0.213 C 
ATOM     24  N   UNL     1       8.478  -3.381   1.252  0.00  0.00    -0.329 N 
ATOM     25  H   UNL     1       8.552  -3.892   2.122  0.00  0.00    +0.145 HD
ATOM     26  H   UNL     1       7.583  -3.353   0.783  0.00  0.00    +0.145 HD
ATOM     27  O   UNL     1      10.709  -3.058   1.232  0.00  0.00    -0.276 OA
ENDBRANCH  22  23
ENDBRANCH   6  22
ENDBRANCH   2   6
ENDBRANCH   1   3
BRANCH   1  28
ATOM     28  C   UNL     1      14.246  -5.034  -1.138  0.00  0.00    +0.149 C 
BRANCH  28  29
ATOM     29  O   UNL     1      14.655  -4.525   0.149  0.00  0.00    -0.389 OA
ATOM     30  H   UNL     1      14.558  -5.244   0.796  0.00  0.00    +0.210 HD
ENDBRANCH  28  29
BRANCH  28  31
ATOM     31  C   UNL     1      14.828  -4.112  -2.242  0.00  0.00    +0.118 C 
BRANCH  31  32
ATOM     32  N   UNL     1      16.309  -4.106  -2.313  0.00  0.00    -0.289 NA
ATOM     33  C   UNL     1      16.876  -3.095  -3.255  0.00  0.00    +0.143 C 
ATOM     34  C   UNL     1      16.926  -3.570  -4.719  0.00  0.00    +0.032 C 
ATOM     35  C   UNL     1      17.620  -4.922  -4.887  0.00  0.00    -0.005 C 
ATOM     36  C   UNL     1      16.949  -5.967  -4.004  0.00  0.00    +0.006 C 
ATOM     37  C   UNL     1      15.603  -6.488  -4.547  0.00  0.00    +0.005 C 
ATOM     38  C   UNL     1      15.275  -6.299  -6.038  0.00  0.00    +0.000 C 
ATOM     39  C   UNL     1      16.256  -5.532  -6.919  0.00  0.00    +0.000 C 
ATOM     40  C   UNL     1      17.650  -5.406  -6.335  0.00  0.00    +0.004 C 
ATOM     41  C   UNL     1      16.918  -5.434  -2.549  0.00  0.00    +0.089 C 
BRANCH  33  42
ATOM     42  C   UNL     1      16.159  -1.718  -3.225  0.00  0.00    +0.231 C 
ATOM     43  N   UNL     1      16.078  -1.105  -1.990  0.00  0.00    -0.309 N 
ATOM     44  H   UNL     1      16.327  -1.677  -1.189  0.00  0.00    +0.149 HD
ATOM     45  O   UNL     1      15.732  -1.192  -4.252  0.00  0.00    -0.274 OA
BRANCH  43  46
ATOM     46  C   UNL     1      15.394   0.184  -1.776  0.00  0.00    +0.026 C 
ATOM     47  C   UNL     1      16.105   1.305  -2.554  0.00  0.00    +0.031 C 
ATOM     48  C   UNL     1      15.435   0.535  -0.278  0.00  0.00    +0.031 C 
ATOM     49  C   UNL     1      13.916   0.120  -2.200  0.00  0.00    +0.031 C 
ENDBRANCH  43  46
ENDBRANCH  33  42
ENDBRANCH  31  32
ENDBRANCH  28  31
ENDBRANCH   1  28
BRANCH   1  50
ATOM     50  C   UNL     1      12.207  -5.977  -2.385  0.00  0.00    +0.060 C 
BRANCH  50  51
ATOM     51  C   UNL     1      10.711  -6.191  -2.516  0.00  0.00    -0.046 A 
ATOM     52  C   UNL     1      10.206  -6.581  -3.765  0.00  0.00    +0.004 A 
ATOM     53  C   UNL     1       8.831  -6.622  -3.995  0.00  0.00    +0.000 A 
ATOM     54  C   UNL     1       7.944  -6.274  -2.979  0.00  0.00    +0.000 A 
ATOM     55  C   UNL     1       8.430  -5.934  -1.721  0.00  0.00    +0.000 A 
ATOM     56  C   UNL     1       9.803  -5.923  -1.482  0.00  0.00    +0.004 A 
ENDBRANCH  50  51
ENDBRANCH   1  50
TORSDOF 14
