REMARK  Name = 
REMARK  5 active torsions:
REMARK  status: ('A' for Active; 'I' for Inactive)
REMARK    1  A    between atoms: C_1  and  C_5
REMARK    2  A    between atoms: N_7  and  C_13
REMARK    3  A    between atoms: C_17  and  O_24
REMARK    4  A    between atoms: C_19  and  C_22
REMARK    5  A    between atoms: C_22  and  O_23
REMARK                            x       y       z     vdW  Elec       q    Type
REMARK                         _______ _______ _______ _____ _____    ______ ____
ROOT
ATOM      1  C   UNL     1       5.263   2.444  -0.361  0.00  0.00    +0.260 C 
ATOM      2  O   UNL     1       6.264   2.543   0.674  0.00  0.00    -0.345 OA
ATOM      3  C   UNL     1       6.535   3.945   0.910  0.00  0.00    +0.178 C 
ATOM      4  C   UNL     1       5.608   4.756  -0.000  0.00  0.00    +0.184 C 
ATOM      5  C   UNL     1       4.512   3.776  -0.355  0.00  0.00    +0.246 C 
ATOM      6  F   UNL     1       3.565   3.782   0.622  0.00  0.00    -0.238 F 
ENDROOT
BRANCH   1  15
ATOM      7  C   UNL     1       4.115  -1.716   2.151  0.00  0.00    +0.051 C 
ATOM      8  C   UNL     1       3.906  -0.732   1.048  0.00  0.00    +0.030 A 
ATOM      9  C   UNL     1       2.810  -0.997   0.088  0.00  0.00    +0.257 A 
ATOM     10  O   UNL     1       2.086  -1.982   0.184  0.00  0.00    -0.267 OA
ATOM     11  N   UNL     1       2.665  -0.084  -0.915  0.00  0.00    -0.275 N 
ATOM     12  H   UNL     1       1.934  -0.258  -1.587  0.00  0.00    +0.173 HD
ATOM     13  C   UNL     1       3.430   1.033  -1.108  0.00  0.00    +0.331 A 
ATOM     14  O   UNL     1       3.227   1.766  -2.075  0.00  0.00    -0.246 OA
ATOM     15  N   UNL     1       4.422   1.260  -0.164  0.00  0.00    -0.271 N 
ATOM     16  C   UNL     1       4.647   0.368   0.868  0.00  0.00    +0.102 A 
ENDBRANCH   1  15
BRANCH   4  17
ATOM     17  O   UNL     1       6.325   5.132  -1.186  0.00  0.00    -0.386 OA
ATOM     18  H   UNL     1       5.776   5.772  -1.676  0.00  0.00    +0.210 HD
ENDBRANCH   4  17
BRANCH   3  19
ATOM     19  C   UNL     1       6.347   4.228   2.404  0.00  0.00    +0.190 C 
BRANCH  19  20
ATOM     20  O   UNL     1       5.012   4.002   2.839  0.00  0.00    -0.392 OA
ATOM     21  H   UNL     1       4.741   3.124   2.513  0.00  0.00    +0.210 HD
ENDBRANCH  19  20
ENDBRANCH   3  19
TORSDOF 4
