REMARK  Name = 
REMARK  17 active torsions:
REMARK  status: ('A' for Active; 'I' for Inactive)
REMARK    1  A    between atoms: C_10  and  C_12
REMARK    2  A    between atoms: N_14  and  C_15
REMARK    3  A    between atoms: C_15  and  C_17
REMARK    4  A    between atoms: C_15  and  C_21
REMARK    5  A    between atoms: C_17  and  C_18
REMARK    6  A    between atoms: N_23  and  C_24
REMARK    7  A    between atoms: C_24  and  C_26
REMARK    8  A    between atoms: C_24  and  C_33
REMARK    9  A    between atoms: C_26  and  C_27
REMARK   10  A    between atoms: C_33  and  C_35
REMARK   11  A    between atoms: C_33  and  O_56
REMARK   12  A    between atoms: C_35  and  N_36
REMARK   13  A    between atoms: C_47  and  C_49
REMARK   14  A    between atoms: N_51  and  C_52
REMARK   15  A    between atoms: C_52  and  C_53
REMARK   16  A    between atoms: C_52  and  C_54
REMARK   17  A    between atoms: C_52  and  C_55
REMARK                            x       y       z     vdW  Elec       q    Type
REMARK                         _______ _______ _______ _____ _____    ______ ____
ROOT
ATOM      1  C   UNL     1      12.760  -5.148  -1.144  0.00  0.00    +0.107 C 
ENDROOT
BRANCH   1   3
ATOM      2  C   UNL     1      11.541  -3.052  -1.882  0.00  0.00    +0.234 C 
ATOM      3  N   UNL     1      12.098  -3.858  -0.919  0.00  0.00    -0.308 N 
ATOM      4  H   UNL     1      12.083  -3.523   0.046  0.00  0.00    +0.149 HD
ATOM      5  O   UNL     1      11.622  -3.292  -3.087  0.00  0.00    -0.274 OA
BRANCH   2   6
ATOM      6  C   UNL     1      10.775  -1.822  -1.349  0.00  0.00    +0.168 C 
BRANCH   6   8
ATOM      7  C   UNL     1      10.433   0.341  -2.574  0.00  0.00    +0.263 C 
ATOM      8  N   UNL     1      10.459  -1.035  -2.544  0.00  0.00    -0.298 N 
ATOM      9  H   UNL     1      10.411  -1.522  -3.441  0.00  0.00    +0.150 HD
ATOM     10  O   UNL     1      10.594   1.028  -1.582  0.00  0.00    -0.269 OA
BRANCH   7  17
ATOM     11  H   UNL     1       8.654   2.044  -9.659  0.00  0.00    +0.062 HD
ATOM     12  C   UNL     1       8.921   1.646  -8.688  0.00  0.00    +0.001 A 
ATOM     13  C   UNL     1       9.237   2.509  -7.636  0.00  0.00    +0.010 A 
ATOM     14  C   UNL     1       9.576   1.999  -6.370  0.00  0.00    +0.000 A 
ATOM     15  C   UNL     1       9.887   2.848  -5.306  0.00  0.00    +0.012 A 
ATOM     16  C   UNL     1      10.192   2.314  -4.062  0.00  0.00    +0.033 A 
ATOM     17  C   UNL     1      10.173   0.935  -3.924  0.00  0.00    +0.126 A 
ATOM     18  N   UNL     1       9.887   0.078  -4.940  0.00  0.00    -0.242 NA
ATOM     19  C   UNL     1       9.601   0.601  -6.145  0.00  0.00    +0.072 A 
ATOM     20  C   UNL     1       9.295  -0.233  -7.212  0.00  0.00    +0.028 A 
ATOM     21  C   UNL     1       8.955   0.273  -8.473  0.00  0.00    +0.002 A 
ENDBRANCH   7  17
ENDBRANCH   6   8
BRANCH   6  22
ATOM     22  C   UNL     1       9.480  -2.170  -0.623  0.00  0.00    +0.127 C 
BRANCH  22  23
ATOM     23  C   UNL     1       9.683  -2.873   0.698  0.00  0.00    +0.213 C 
ATOM     24  N   UNL     1       8.533  -3.351   1.261  0.00  0.00    -0.329 N 
ATOM     25  H   UNL     1       8.595  -3.844   2.143  0.00  0.00    +0.145 HD
ATOM     26  H   UNL     1       7.629  -3.271   0.813  0.00  0.00    +0.145 HD
ATOM     27  O   UNL     1      10.766  -3.037   1.249  0.00  0.00    -0.276 OA
ENDBRANCH  22  23
ENDBRANCH   6  22
ENDBRANCH   2   6
ENDBRANCH   1   3
BRANCH   1  28
ATOM     28  C   UNL     1      14.304  -5.022  -1.120  0.00  0.00    +0.149 C 
BRANCH  28  29
ATOM     29  O   UNL     1      14.716  -4.516   0.167  0.00  0.00    -0.389 OA
ATOM     30  H   UNL     1      14.603  -5.231   0.816  0.00  0.00    +0.210 HD
ENDBRANCH  28  29
BRANCH  28  31
ATOM     31  C   UNL     1      14.887  -4.099  -2.223  0.00  0.00    +0.118 C 
BRANCH  31  32
ATOM     32  N   UNL     1      16.368  -4.096  -2.296  0.00  0.00    -0.289 NA
ATOM     33  C   UNL     1      16.937  -3.085  -3.238  0.00  0.00    +0.143 C 
ATOM     34  C   UNL     1      16.989  -3.559  -4.701  0.00  0.00    +0.032 C 
ATOM     35  C   UNL     1      17.679  -4.912  -4.870  0.00  0.00    -0.005 C 
ATOM     36  C   UNL     1      17.009  -5.957  -3.985  0.00  0.00    +0.006 C 
ATOM     37  C   UNL     1      15.664  -6.480  -4.525  0.00  0.00    +0.005 C 
ATOM     38  C   UNL     1      15.330  -6.288  -6.013  0.00  0.00    +0.000 C 
ATOM     39  C   UNL     1      16.309  -5.522  -6.898  0.00  0.00    +0.000 C 
ATOM     40  C   UNL     1      17.704  -5.396  -6.318  0.00  0.00    +0.004 C 
ATOM     41  C   UNL     1      16.977  -5.423  -2.530  0.00  0.00    +0.089 C 
BRANCH  33  42
ATOM     42  C   UNL     1      16.222  -1.708  -3.206  0.00  0.00    +0.231 C 
ATOM     43  N   UNL     1      16.147  -1.096  -1.970  0.00  0.00    -0.309 N 
ATOM     44  H   UNL     1      16.374  -1.681  -1.171  0.00  0.00    +0.149 HD
ATOM     45  O   UNL     1      15.790  -1.181  -4.232  0.00  0.00    -0.274 OA
BRANCH  43  46
ATOM     46  C   UNL     1      15.471   0.196  -1.752  0.00  0.00    +0.026 C 
ATOM     47  C   UNL     1      16.184   1.315  -2.531  0.00  0.00    +0.031 C 
ATOM     48  C   UNL     1      15.521   0.544  -0.252  0.00  0.00    +0.031 C 
ATOM     49  C   UNL     1      13.991   0.139  -2.169  0.00  0.00    +0.031 C 
ENDBRANCH  43  46
ENDBRANCH  33  42
ENDBRANCH  31  32
ENDBRANCH  28  31
ENDBRANCH   1  28
BRANCH   1  50
ATOM     50  C   UNL     1      12.262  -5.969  -2.363  0.00  0.00    +0.060 C 
BRANCH  50  51
ATOM     51  C   UNL     1      10.766  -6.172  -2.501  0.00  0.00    -0.046 A 
ATOM     52  C   UNL     1      10.263  -6.561  -3.751  0.00  0.00    +0.004 A 
ATOM     53  C   UNL     1       8.887  -6.600  -3.983  0.00  0.00    +0.000 A 
ATOM     54  C   UNL     1       7.998  -6.255  -2.968  0.00  0.00    +0.000 A 
ATOM     55  C   UNL     1       8.483  -5.920  -1.708  0.00  0.00    +0.000 A 
ATOM     56  C   UNL     1       9.856  -5.909  -1.467  0.00  0.00    +0.004 A 
ENDBRANCH  50  51
ENDBRANCH   1  50
TORSDOF 14
