REMARK  Name = 
REMARK  5 active torsions:
REMARK  status: ('A' for Active; 'I' for Inactive)
REMARK    1  A    between atoms: C_1  and  C_5
REMARK    2  A    between atoms: N_7  and  C_13
REMARK    3  A    between atoms: C_17  and  O_24
REMARK    4  A    between atoms: C_19  and  C_22
REMARK    5  A    between atoms: C_22  and  O_23
REMARK                            x       y       z     vdW  Elec       q    Type
REMARK                         _______ _______ _______ _____ _____    ______ ____
ROOT
ATOM      1  C   UNL     1       5.412   2.358  -0.351  0.00  0.00    +0.260 C 
ATOM      2  O   UNL     1       6.291   2.498   0.780  0.00  0.00    -0.345 OA
ATOM      3  C   UNL     1       6.686   3.894   0.819  0.00  0.00    +0.178 C 
ATOM      4  C   UNL     1       5.728   4.675  -0.098  0.00  0.00    +0.184 C 
ATOM      5  C   UNL     1       4.636   3.668  -0.405  0.00  0.00    +0.246 C 
ATOM      6  F   UNL     1       3.713   3.707   0.600  0.00  0.00    -0.238 F 
ENDROOT
BRANCH   1  15
ATOM      7  C   UNL     1       3.099  -1.140   2.360  0.00  0.00    +0.051 C 
ATOM      8  C   UNL     1       3.502  -0.503   1.071  0.00  0.00    +0.030 A 
ATOM      9  C   UNL     1       3.044  -1.152  -0.180  0.00  0.00    +0.257 A 
ATOM     10  O   UNL     1       2.375  -2.179  -0.174  0.00  0.00    -0.267 OA
ATOM     11  N   UNL     1       3.404  -0.531  -1.340  0.00  0.00    -0.275 N 
ATOM     12  H   UNL     1       3.085  -0.948  -2.199  0.00  0.00    +0.173 HD
ATOM     13  C   UNL     1       4.123   0.627  -1.443  0.00  0.00    +0.331 A 
ATOM     14  O   UNL     1       4.322   1.144  -2.541  0.00  0.00    -0.246 OA
ATOM     15  N   UNL     1       4.594   1.155  -0.251  0.00  0.00    -0.271 N 
ATOM     16  C   UNL     1       4.250   0.604   0.970  0.00  0.00    +0.102 A 
ENDBRANCH   1  15
BRANCH   4  17
ATOM     17  O   UNL     1       6.410   5.047  -1.302  0.00  0.00    -0.386 OA
ATOM     18  H   UNL     1       5.863   5.711  -1.760  0.00  0.00    +0.210 HD
ENDBRANCH   4  17
BRANCH   3  19
ATOM     19  C   UNL     1       6.649   4.359   2.275  0.00  0.00    +0.190 C 
BRANCH  19  20
ATOM     20  O   UNL     1       5.319   4.410   2.782  0.00  0.00    -0.392 OA
ATOM     21  H   UNL     1       4.859   3.603   2.485  0.00  0.00    +0.210 HD
ENDBRANCH  19  20
ENDBRANCH   3  19
TORSDOF 4
