REMARK  Name = 
REMARK  4 active torsions:
REMARK  status: ('A' for Active; 'I' for Inactive)
REMARK    1  A    between atoms: C_1  and  C_2
REMARK    2  A    between atoms: N_4  and  C_10
REMARK    3  A    between atoms: C_14  and  C_17
REMARK    4  A    between atoms: C_17  and  O_18
REMARK                            x       y       z     vdW  Elec       q    Type
REMARK                         _______ _______ _______ _____ _____    ______ ____
ROOT
ATOM      1  C   UNL     1       1.117   0.124   0.004  0.00  0.00    +0.051 C 
ATOM      2  C   UNL     1       2.605   0.169  -0.094  0.00  0.00    +0.030 A 
ATOM      3  C   UNL     1       3.309  -1.136  -0.105  0.00  0.00    +0.257 A 
ATOM      4  O   UNL     1       2.706  -2.204  -0.101  0.00  0.00    -0.267 OA
ATOM      5  N   UNL     1       4.669  -1.076  -0.131  0.00  0.00    -0.275 N 
ATOM      6  H   UNL     1       5.164  -1.953  -0.168  0.00  0.00    +0.173 HD
ATOM      7  C   UNL     1       5.423   0.056  -0.277  0.00  0.00    +0.332 A 
ATOM      8  O   UNL     1       6.640  -0.038  -0.418  0.00  0.00    -0.246 OA
ATOM      9  N   UNL     1       4.720   1.256  -0.282  0.00  0.00    -0.270 N 
ATOM     10  C   UNL     1       3.342   1.288  -0.186  0.00  0.00    +0.102 A 
ENDROOT
BRANCH   9  11
ATOM     11  C   UNL     1       5.521   2.447  -0.500  0.00  0.00    +0.248 C 
ATOM     12  O   UNL     1       4.895   3.665  -0.025  0.00  0.00    -0.343 OA
ATOM     13  C   UNL     1       5.424   4.714  -0.883  0.00  0.00    +0.169 C 
ATOM     14  C   UNL     1       5.636   4.017  -2.185  0.00  0.00    +0.007 C 
ATOM     15  C   UNL     1       5.702   2.703  -1.960  0.00  0.00    +0.025 C 
BRANCH  13  16
ATOM     16  C   UNL     1       4.497   5.933  -0.930  0.00  0.00    +0.191 C 
BRANCH  16  17
ATOM     17  O   UNL     1       3.169   5.593  -1.320  0.00  0.00    -0.392 OA
ATOM     18  H   UNL     1       2.870   4.924  -0.679  0.00  0.00    +0.210 HD
ENDBRANCH  16  17
ENDBRANCH  13  16
ENDBRANCH   9  11
TORSDOF 3
