REMARK  Name = 
REMARK  4 active torsions:
REMARK  status: ('A' for Active; 'I' for Inactive)
REMARK    1  A    between atoms: C3*_2  and  O3*_20
REMARK    2  A    between atoms: C4*_4  and  C5*_18
REMARK    3  A    between atoms: C1*_7  and  N_9
REMARK    4  A    between atoms: C5*_18  and  O5*_19
REMARK                            x       y       z     vdW  Elec       q    Type
REMARK                         _______ _______ _______ _____ _____    ______ ____
ROOT
ATOM      1  C2* UNL     1      -0.799  -1.009  -0.137  0.00  0.00    +0.088 C 
ATOM      2  C1* UNL     1       0.693  -0.969   0.183  0.00  0.00    +0.226 C 
ATOM      3  O4* UNL     1       1.098   0.418   0.213  0.00  0.00    -0.348 OA
ATOM      4  C4* UNL     1      -0.045   1.214  -0.161  0.00  0.00    +0.175 C 
ATOM      5  C3* UNL     1      -1.260   0.383   0.232  0.00  0.00    +0.150 C 
ENDROOT
BRANCH   2   6
ATOM      6  N   UNL     1       1.037  -1.627   1.442  0.00  0.00    -0.273 N 
ATOM      7  C   UNL     1       1.312  -2.986   1.391  0.00  0.00    +0.331 A 
ATOM      8  O   UNL     1       1.265  -3.660   0.365  0.00  0.00    -0.246 OA
ATOM      9  N   UNL     1       1.656  -3.567   2.584  0.00  0.00    -0.274 N 
ATOM     10  H   UNL     1       1.896  -4.546   2.559  0.00  0.00    +0.173 HD
ATOM     11  C   UNL     1       1.763  -2.937   3.795  0.00  0.00    +0.267 A 
ATOM     12  O   UNL     1       2.153  -3.543   4.788  0.00  0.00    -0.267 OA
ATOM     13  C   UNL     1       1.377  -1.501   3.809  0.00  0.00    +0.094 A 
ATOM     14  I   UNL     1       1.398  -0.448   5.559  0.00  0.00    -0.037 I 
ATOM     15  C   UNL     1       1.035  -0.939   2.643  0.00  0.00    +0.113 A 
ENDBRANCH   2   6
BRANCH   5  16
ATOM     16  O3* UNL     1      -2.445   0.754  -0.451  0.00  0.00    -0.389 OA
ATOM     17  H3* UNL     1      -2.308   0.663  -1.409  0.00  0.00    +0.210 HD
ENDBRANCH   5  16
BRANCH   4  18
ATOM     18  C5* UNL     1       0.021   2.592   0.493  0.00  0.00    +0.190 C 
BRANCH  18  19
ATOM     19  O5* UNL     1       0.126   2.494   1.912  0.00  0.00    -0.392 OA
ATOM     20  H5* UNL     1       1.049   2.245   2.095  0.00  0.00    +0.210 HD
ENDBRANCH  18  19
ENDBRANCH   4  18
TORSDOF 4
