REMARK  Name = 
REMARK  4 active torsions:
REMARK  status: ('A' for Active; 'I' for Inactive)
REMARK    1  A    between atoms: C_1  and  C_2
REMARK    2  A    between atoms: N_4  and  C_10
REMARK    3  A    between atoms: C_14  and  C_17
REMARK    4  A    between atoms: C_17  and  O_18
REMARK                            x       y       z     vdW  Elec       q    Type
REMARK                         _______ _______ _______ _____ _____    ______ ____
ROOT
ATOM      1  C   UNL     1       1.091   0.101  -0.016  0.00  0.00    +0.051 C 
ATOM      2  C   UNL     1       2.582   0.141  -0.115  0.00  0.00    +0.030 A 
ATOM      3  C   UNL     1       3.284  -1.163  -0.119  0.00  0.00    +0.257 A 
ATOM      4  O   UNL     1       2.680  -2.230  -0.112  0.00  0.00    -0.267 OA
ATOM      5  N   UNL     1       4.643  -1.103  -0.143  0.00  0.00    -0.275 N 
ATOM      6  H   UNL     1       5.139  -1.981  -0.171  0.00  0.00    +0.173 HD
ATOM      7  C   UNL     1       5.396   0.026  -0.291  0.00  0.00    +0.332 A 
ATOM      8  O   UNL     1       6.616  -0.065  -0.421  0.00  0.00    -0.246 OA
ATOM      9  N   UNL     1       4.696   1.228  -0.305  0.00  0.00    -0.270 N 
ATOM     10  C   UNL     1       3.317   1.259  -0.213  0.00  0.00    +0.102 A 
ENDROOT
BRANCH   9  11
ATOM     11  C   UNL     1       5.496   2.420  -0.524  0.00  0.00    +0.248 C 
ATOM     12  O   UNL     1       4.866   3.637  -0.052  0.00  0.00    -0.343 OA
ATOM     13  C   UNL     1       5.393   4.687  -0.911  0.00  0.00    +0.169 C 
ATOM     14  C   UNL     1       5.609   3.988  -2.210  0.00  0.00    +0.007 C 
ATOM     15  C   UNL     1       5.678   2.675  -1.982  0.00  0.00    +0.025 C 
BRANCH  13  16
ATOM     16  C   UNL     1       4.462   5.902  -0.959  0.00  0.00    +0.191 C 
BRANCH  16  17
ATOM     17  O   UNL     1       3.138   5.560  -1.357  0.00  0.00    -0.392 OA
ATOM     18  H   UNL     1       2.838   4.885  -0.721  0.00  0.00    +0.210 HD
ENDBRANCH  16  17
ENDBRANCH  13  16
ENDBRANCH   9  11
TORSDOF 3
