REMARK  Name = 
REMARK  4 active torsions:
REMARK  status: ('A' for Active; 'I' for Inactive)
REMARK    1  A    between atoms: C3*_2  and  O3*_20
REMARK    2  A    between atoms: C4*_4  and  C5*_18
REMARK    3  A    between atoms: C1*_7  and  N_9
REMARK    4  A    between atoms: C5*_18  and  O5*_19
REMARK                            x       y       z     vdW  Elec       q    Type
REMARK                         _______ _______ _______ _____ _____    ______ ____
ROOT
ATOM      1  C2* UNL     1      -0.894  -1.010  -0.137  0.00  0.00    +0.088 C 
ATOM      2  C1* UNL     1       0.611  -1.056   0.132  0.00  0.00    +0.226 C 
ATOM      3  O4* UNL     1       1.094   0.304   0.026  0.00  0.00    -0.348 OA
ATOM      4  C4* UNL     1      -0.037   1.155  -0.267  0.00  0.00    +0.175 C 
ATOM      5  C3* UNL     1      -1.255   0.405   0.238  0.00  0.00    +0.150 C 
ENDROOT
BRANCH   2   6
ATOM      6  N   UNL     1       0.961  -1.645   1.429  0.00  0.00    -0.273 N 
ATOM      7  C   UNL     1       0.671  -2.993   1.597  0.00  0.00    +0.331 A 
ATOM      8  O   UNL     1       0.140  -3.694   0.738  0.00  0.00    -0.246 OA
ATOM      9  N   UNL     1       1.014  -3.531   2.807  0.00  0.00    -0.274 N 
ATOM     10  H   UNL     1       0.799  -4.507   2.946  0.00  0.00    +0.173 HD
ATOM     11  C   UNL     1       1.693  -2.904   3.816  0.00  0.00    +0.267 A 
ATOM     12  O   UNL     1       1.996  -3.505   4.841  0.00  0.00    -0.267 OA
ATOM     13  C   UNL     1       2.033  -1.476   3.566  0.00  0.00    +0.094 A 
ATOM     14  I   UNL     1       3.077  -0.419   4.972  0.00  0.00    -0.037 I 
ATOM     15  C   UNL     1       1.648  -0.933   2.402  0.00  0.00    +0.113 A 
ENDBRANCH   2   6
BRANCH   5  16
ATOM     16  O3* UNL     1      -2.468   0.833  -0.351  0.00  0.00    -0.389 OA
ATOM     17  H3* UNL     1      -2.429   0.685  -1.312  0.00  0.00    +0.210 HD
ENDBRANCH   5  16
BRANCH   4  18
ATOM     18  C5* UNL     1       0.149   2.519   0.388  0.00  0.00    +0.190 C 
BRANCH  18  19
ATOM     19  O5* UNL     1       1.286   3.170  -0.180  0.00  0.00    -0.392 OA
ATOM     20  H5* UNL     1       1.991   2.498  -0.231  0.00  0.00    +0.210 HD
ENDBRANCH  18  19
ENDBRANCH   4  18
TORSDOF 4
