REMARK  Name = 
REMARK  16 active torsions:
REMARK  status: ('A' for Active; 'I' for Inactive)
REMARK    1  A    between atoms: C_1  and  C_2
REMARK    2  A    between atoms: C_2  and  C_3
REMARK    3  A    between atoms: C_2  and  C_4
REMARK    4  A    between atoms: C_4  and  N_5
REMARK    5  A    between atoms: N_5  and  C_6
REMARK    6  A    between atoms: N_5  and  S_29
REMARK    7  A    between atoms: C_6  and  C_7
REMARK    8  A    between atoms: C_7  and  C_9
REMARK    9  A    between atoms: C_7  and  O_28
REMARK   10  A    between atoms: C_9  and  C_11
REMARK   11  A    between atoms: C_9  and  N_18
REMARK   12  A    between atoms: C_11  and  C_12
REMARK   13  A    between atoms: C_19  and  O_21
REMARK   14  A    between atoms: O_21  and  C_22
REMARK   15  A    between atoms: S_29  and  C_32
REMARK   16  A    between atoms: C_35  and  N_38
REMARK                            x       y       z     vdW  Elec       q    Type
REMARK                         _______ _______ _______ _____ _____    ______ ____
ROOT
ATOM      1  C   UNL     1      -1.137  -2.030  -3.461  0.00  0.00    +0.151 C 
ENDROOT
BRANCH   1   2
ATOM      2  O   UNL     1      -0.425  -0.799  -3.669  0.00  0.00    -0.389 OA
ATOM      3  H   UNL     1       0.282  -0.978  -4.316  0.00  0.00    +0.210 HD
ENDBRANCH   1   2
BRANCH   1   4
ATOM      4  C   UNL     1      -1.886  -2.398  -4.771  0.00  0.00    +0.142 C 
BRANCH   4   5
ATOM      5  N   UNL     1      -2.792  -3.611  -4.776  0.00  0.00    -0.174 NA
BRANCH   5   6
ATOM      6  S   UNL     1      -1.970  -5.035  -4.240  0.00  0.00    +0.061 S 
ATOM      7  O   UNL     1      -1.930  -4.988  -2.791  0.00  0.00    -0.153 OA
ATOM      8  O   UNL     1      -0.726  -5.100  -4.983  0.00  0.00    -0.153 OA
BRANCH   6   9
ATOM      9  C   UNL     1      -2.927  -6.474  -4.685  0.00  0.00    +0.106 A 
ATOM     10  C   UNL     1      -3.830  -6.997  -3.747  0.00  0.00    +0.030 A 
ATOM     11  C   UNL     1      -4.324  -8.303  -3.897  0.00  0.00    +0.024 A 
ATOM     12  C   UNL     1      -3.937  -9.101  -4.978  0.00  0.00    +0.025 A 
ATOM     13  C   UNL     1      -3.019  -8.576  -5.893  0.00  0.00    +0.024 A 
ATOM     14  C   UNL     1      -2.530  -7.266  -5.765  0.00  0.00    +0.030 A 
BRANCH  12  15
ATOM     15  N   UNL     1      -4.237 -10.468  -4.981  0.00  0.00    -0.358 N 
ATOM     16  H   UNL     1      -5.082 -10.723  -4.481  0.00  0.00    +0.142 HD
ATOM     17  H   UNL     1      -4.165 -10.922  -5.886  0.00  0.00    +0.142 HD
ENDBRANCH  12  15
ENDBRANCH   6   9
ENDBRANCH   5   6
BRANCH   5  18
ATOM     18  C   UNL     1      -4.187  -3.400  -4.262  0.00  0.00    +0.112 C 
BRANCH  18  20
ATOM     19  C   UNL     1      -5.304  -2.294  -6.278  0.00  0.00    +0.008 C 
ATOM     20  C   UNL     1      -4.928  -2.152  -4.805  0.00  0.00    -0.001 C 
ATOM     21  C   UNL     1      -6.196  -1.888  -3.983  0.00  0.00    +0.008 C 
ENDBRANCH  18  20
ENDBRANCH   5  18
ENDBRANCH   4   5
ENDBRANCH   1   4
BRANCH   1  22
ATOM     22  C   UNL     1      -1.978  -1.926  -2.159  0.00  0.00    +0.110 C 
BRANCH  22  23
ATOM     23  N   UNL     1      -1.106  -2.144  -1.002  0.00  0.00    -0.275 N 
ATOM     24  H   UNL     1      -0.586  -3.011  -0.971  0.00  0.00    +0.152 HD
ATOM     25  C   UNL     1      -0.788  -1.282  -0.011  0.00  0.00    +0.401 C 
ATOM     26  O   UNL     1      -1.276  -0.194   0.233  0.00  0.00    -0.226 OA
BRANCH  25  27
ATOM     27  O   UNL     1       0.231  -1.839   0.669  0.00  0.00    -0.445 OA
BRANCH  27  28
ATOM     28  C   UNL     1       0.862  -1.034   1.679  0.00  0.00    +0.206 C 
ATOM     29  C   UNL     1       2.122  -1.796   2.067  0.00  0.00    +0.204 C 
ATOM     30  O   UNL     1       3.160  -1.387   1.148  0.00  0.00    -0.376 OA
ATOM     31  C   UNL     1       2.652  -0.293   0.369  0.00  0.00    +0.163 C 
ATOM     32  C   UNL     1       1.467   0.245   1.136  0.00  0.00    +0.075 C 
ENDBRANCH  27  28
ENDBRANCH  25  27
ENDBRANCH  22  23
BRANCH  22  33
ATOM     33  C   UNL     1      -2.921  -0.702  -2.036  0.00  0.00    +0.060 C 
BRANCH  33  34
ATOM     34  C   UNL     1      -4.078  -0.877  -1.056  0.00  0.00    -0.046 A 
ATOM     35  C   UNL     1      -5.026   0.152  -0.933  0.00  0.00    +0.004 A 
ATOM     36  C   UNL     1      -6.171  -0.021  -0.147  0.00  0.00    +0.000 A 
ATOM     37  C   UNL     1      -6.376  -1.212   0.546  0.00  0.00    +0.000 A 
ATOM     38  C   UNL     1      -5.421  -2.217   0.486  0.00  0.00    +0.000 A 
ATOM     39  C   UNL     1      -4.282  -2.046  -0.301  0.00  0.00    +0.004 A 
ENDBRANCH  33  34
ENDBRANCH  22  33
ENDBRANCH   1  22
TORSDOF 14
