REMARK  Name = 
REMARK  16 active torsions:
REMARK  status: ('A' for Active; 'I' for Inactive)
REMARK    1  A    between atoms: C_1  and  C_2
REMARK    2  A    between atoms: C_2  and  C_3
REMARK    3  A    between atoms: C_2  and  C_4
REMARK    4  A    between atoms: C_4  and  N_5
REMARK    5  A    between atoms: N_5  and  C_6
REMARK    6  A    between atoms: N_5  and  S_29
REMARK    7  A    between atoms: C_6  and  C_7
REMARK    8  A    between atoms: C_7  and  C_9
REMARK    9  A    between atoms: C_7  and  O_28
REMARK   10  A    between atoms: C_9  and  C_11
REMARK   11  A    between atoms: C_9  and  N_18
REMARK   12  A    between atoms: C_11  and  C_12
REMARK   13  A    between atoms: C_19  and  O_21
REMARK   14  A    between atoms: O_21  and  C_22
REMARK   15  A    between atoms: S_29  and  C_32
REMARK   16  A    between atoms: C_35  and  N_38
REMARK                            x       y       z     vdW  Elec       q    Type
REMARK                         _______ _______ _______ _____ _____    ______ ____
ROOT
ATOM      1  C   UNL     1      -1.948  -2.355  -3.799  0.00  0.00    +0.151 C 
ENDROOT
BRANCH   1   2
ATOM      2  O   UNL     1      -1.786  -1.372  -4.827  0.00  0.00    -0.389 OA
ATOM      3  H   UNL     1      -1.059  -1.670  -5.403  0.00  0.00    +0.210 HD
ENDBRANCH   1   2
BRANCH   1   4
ATOM      4  C   UNL     1      -2.542  -3.624  -4.423  0.00  0.00    +0.142 C 
BRANCH   4   5
ATOM      5  N   UNL     1      -2.767  -4.786  -3.531  0.00  0.00    -0.174 NA
BRANCH   5   6
ATOM      6  S   UNL     1      -1.394  -5.600  -2.871  0.00  0.00    +0.061 S 
ATOM      7  O   UNL     1      -0.298  -5.378  -3.781  0.00  0.00    -0.153 OA
ATOM      8  O   UNL     1      -1.808  -6.930  -2.477  0.00  0.00    -0.153 OA
BRANCH   6   9
ATOM      9  C   UNL     1      -0.986  -4.739  -1.353  0.00  0.00    +0.106 A 
ATOM     10  C   UNL     1       0.290  -4.191  -1.164  0.00  0.00    +0.030 A 
ATOM     11  C   UNL     1       0.540  -3.396  -0.034  0.00  0.00    +0.024 A 
ATOM     12  C   UNL     1      -0.491  -3.094   0.856  0.00  0.00    +0.025 A 
ATOM     13  C   UNL     1      -1.686  -3.809   0.755  0.00  0.00    +0.024 A 
ATOM     14  C   UNL     1      -1.929  -4.641  -0.337  0.00  0.00    +0.030 A 
BRANCH  12  15
ATOM     15  N   UNL     1      -0.278  -2.240   1.943  0.00  0.00    -0.358 N 
ATOM     16  H   UNL     1       0.497  -1.595   1.815  0.00  0.00    +0.142 HD
ATOM     17  H   UNL     1      -1.124  -1.746   2.220  0.00  0.00    +0.142 HD
ENDBRANCH  12  15
ENDBRANCH   6   9
ENDBRANCH   5   6
BRANCH   5  18
ATOM     18  C   UNL     1      -4.106  -5.036  -2.928  0.00  0.00    +0.112 C 
BRANCH  18  20
ATOM     19  C   UNL     1      -5.583  -5.611  -4.936  0.00  0.00    +0.008 C 
ATOM     20  C   UNL     1      -5.345  -4.656  -3.768  0.00  0.00    -0.001 C 
ATOM     21  C   UNL     1      -6.619  -4.634  -2.908  0.00  0.00    +0.008 C 
ENDBRANCH  18  20
ENDBRANCH   5  18
ENDBRANCH   4   5
ENDBRANCH   1   4
BRANCH   1  22
ATOM     22  C   UNL     1      -2.710  -1.750  -2.603  0.00  0.00    +0.110 C 
BRANCH  22  23
ATOM     23  N   UNL     1      -1.795  -0.863  -1.874  0.00  0.00    -0.275 N 
ATOM     24  H   UNL     1      -1.153  -1.283  -1.213  0.00  0.00    +0.152 HD
ATOM     25  C   UNL     1      -1.474   0.403  -2.240  0.00  0.00    +0.401 C 
ATOM     26  O   UNL     1      -2.084   1.135  -2.990  0.00  0.00    -0.226 OA
BRANCH  25  27
ATOM     27  O   UNL     1      -0.319   0.709  -1.614  0.00  0.00    -0.445 OA
BRANCH  27  28
ATOM     28  C   UNL     1       0.239   2.010  -1.865  0.00  0.00    +0.206 C 
ATOM     29  C   UNL     1       1.574   2.027  -1.136  0.00  0.00    +0.204 C 
ATOM     30  O   UNL     1       2.562   1.500  -2.046  0.00  0.00    -0.376 OA
ATOM     31  C   UNL     1       1.952   1.376  -3.339  0.00  0.00    +0.163 C 
ATOM     32  C   UNL     1       0.692   2.207  -3.297  0.00  0.00    +0.075 C 
ENDBRANCH  27  28
ENDBRANCH  25  27
ENDBRANCH  22  23
BRANCH  22  33
ATOM     33  C   UNL     1      -4.115  -1.115  -2.829  0.00  0.00    +0.060 C 
BRANCH  33  34
ATOM     34  C   UNL     1      -4.690  -0.854  -1.437  0.00  0.00    -0.046 A 
ATOM     35  C   UNL     1      -5.012  -1.950  -0.626  0.00  0.00    +0.004 A 
ATOM     36  C   UNL     1      -4.923  -1.861   0.756  0.00  0.00    +0.000 A 
ATOM     37  C   UNL     1      -4.582  -0.649   1.342  0.00  0.00    +0.000 A 
ATOM     38  C   UNL     1      -4.441   0.491   0.549  0.00  0.00    +0.000 A 
ATOM     39  C   UNL     1      -4.522   0.399  -0.840  0.00  0.00    +0.004 A 
ENDBRANCH  33  34
ENDBRANCH  22  33
ENDBRANCH   1  22
TORSDOF 14
