REMARK  Name = 
REMARK  3 active torsions:
REMARK  status: ('A' for Active; 'I' for Inactive)
REMARK    1  A    between atoms: C_2  and  N_9
REMARK    2  A    between atoms: C_4  and  C_7
REMARK    3  A    between atoms: C_7  and  O_8
REMARK                            x       y       z     vdW  Elec       q    Type
REMARK                         _______ _______ _______ _____ _____    ______ ____
ROOT
ATOM      1  N   UNL     1      -1.196   0.309   1.835  0.00  0.00    -0.269 N 
ATOM      2  C   UNL     1      -2.299  -0.394   2.353  0.00  0.00    +0.352 A 
ATOM      3  O   UNL     1      -3.113  -0.926   1.601  0.00  0.00    -0.244 OA
ATOM      4  N   UNL     1      -2.457  -0.470   3.721  0.00  0.00    -0.175 NA
ATOM      5  C   UNL     1      -1.654   0.183   4.507  0.00  0.00    +0.159 A 
ATOM      6  N   UNL     1      -1.851   0.067   5.858  0.00  0.00    -0.341 N 
ATOM      7  H   UNL     1      -2.771  -0.277   6.109  0.00  0.00    +0.144 HD
ATOM      8  H   UNL     1      -1.510   0.825   6.440  0.00  0.00    +0.144 HD
ATOM      9  C   UNL     1      -0.575   1.045   3.985  0.00  0.00    +0.179 A 
ATOM     10  F   UNL     1       0.168   1.745   4.857  0.00  0.00    -0.200 F 
ATOM     11  C   UNL     1      -0.408   1.078   2.668  0.00  0.00    +0.135 A 
ENDROOT
BRANCH   1  16
ATOM     12  C   UNL     1      -0.910  -1.028  -0.327  0.00  0.00    +0.126 C 
ATOM     13  S   UNL     1       0.819  -1.483  -0.107  0.00  0.00    -0.123 S 
ATOM     14  C   UNL     1       1.307   0.252   0.051  0.00  0.00    +0.203 C 
ATOM     15  O   UNL     1       0.140   1.094  -0.001  0.00  0.00    -0.340 OA
ATOM     16  C   UNL     1      -1.031   0.336   0.373  0.00  0.00    +0.235 C 
BRANCH  14  17
ATOM     17  C   UNL     1       2.291   0.660  -1.054  0.00  0.00    +0.198 C 
BRANCH  17  18
ATOM     18  O   UNL     1       1.757   0.447  -2.363  0.00  0.00    -0.392 OA
ATOM     19  H   UNL     1       1.418  -0.467  -2.375  0.00  0.00    +0.210 HD
ENDBRANCH  17  18
ENDBRANCH  14  17
ENDBRANCH   1  16
TORSDOF 3
