REMARK  Name = 
REMARK  18 active torsions:
REMARK  status: ('A' for Active; 'I' for Inactive)
REMARK    1  A    between atoms: C_1  and  C_2
REMARK    2  A    between atoms: N_4  and  C_5
REMARK    3  A    between atoms: C_7  and  N_35
REMARK    4  A    between atoms: C_10  and  C_31
REMARK    5  A    between atoms: C_12  and  C_14
REMARK    6  A    between atoms: C_14  and  C_16
REMARK    7  A    between atoms: C_14  and  O_27
REMARK    8  A    between atoms: C_16  and  C_18
REMARK    9  A    between atoms: C_16  and  O_23
REMARK   10  A    between atoms: C_18  and  O_19
REMARK   11  A    between atoms: O_19  and  C_20
REMARK   12  A    between atoms: C_20  and  C_22
REMARK   13  A    between atoms: O_23  and  C_24
REMARK   14  A    between atoms: C_24  and  C_26
REMARK   15  A    between atoms: O_27  and  C_28
REMARK   16  A    between atoms: C_28  and  C_30
REMARK   17  A    between atoms: C_31  and  O_33
REMARK   18  A    between atoms: O_33  and  C_34
REMARK                            x       y       z     vdW  Elec       q    Type
REMARK                         _______ _______ _______ _____ _____    ______ ____
ROOT
ATOM      1  C   UNL     1       4.877   1.051  -0.206  0.00  0.00    +0.138 C 
ATOM      2  C   UNL     1       5.030   2.386  -0.994  0.00  0.00    +0.240 C 
ATOM      3  O   UNL     1       6.055   2.413  -2.003  0.00  0.00    -0.476 OA
ATOM      4  C   UNL     1       6.327   1.242  -2.672  0.00  0.00    +0.203 C 
ATOM      5  C   UNL     1       5.826   0.050  -2.328  0.00  0.00    +0.046 C 
ATOM      6  C   UNL     1       5.009  -0.200  -1.113  0.00  0.00    +0.102 C 
ENDROOT
BRANCH   1   9
ATOM      7  C   UNL     1       6.600   0.042   3.039  0.00  0.00    +0.109 C 
ATOM      8  C   UNL     1       5.644  -0.037   1.883  0.00  0.00    +0.210 C 
ATOM      9  N   UNL     1       5.802   0.969   0.948  0.00  0.00    -0.307 N 
ATOM     10  H   UNL     1       6.255   1.820   1.262  0.00  0.00    +0.149 HD
ATOM     11  O   UNL     1       4.803  -0.924   1.786  0.00  0.00    -0.276 OA
ENDBRANCH   1   9
BRANCH   6  12
ATOM     12  N   UNL     1       3.700  -0.722  -1.509  0.00  0.00    -0.322 NA
ATOM     13  H   UNL     1       3.826  -1.656  -1.903  0.00  0.00    +0.119 HD
ATOM     14  H   UNL     1       3.155  -0.889  -0.657  0.00  0.00    +0.119 HD
ENDBRANCH   6  12
BRANCH   4  15
ATOM     15  C   UNL     1       7.215   1.258  -3.882  0.00  0.00    +0.374 C 
ATOM     16  O   UNL     1       7.445   0.272  -4.577  0.00  0.00    -0.242 OA
BRANCH  15  17
ATOM     17  O   UNL     1       7.742   2.492  -4.101  0.00  0.00    -0.462 OA
ATOM     18  C   UNL     1       8.623   2.529  -5.224  0.00  0.00    +0.280 C 
ENDBRANCH  15  17
ENDBRANCH   4  15
BRANCH   2  19
ATOM     19  C   UNL     1       3.674   3.025  -1.465  0.00  0.00    +0.262 C 
BRANCH  19  20
ATOM     20  O   UNL     1       2.668   2.931  -0.413  0.00  0.00    -0.454 OA
BRANCH  20  21
ATOM     21  C   UNL     1       2.855   3.668   0.716  0.00  0.00    +0.304 C 
ATOM     22  C   UNL     1       1.709   3.469   1.657  0.00  0.00    +0.136 C 
ATOM     23  O   UNL     1       3.827   4.369   0.951  0.00  0.00    -0.251 OA
ENDBRANCH  20  21
ENDBRANCH  19  20
BRANCH  19  24
ATOM     24  C   UNL     1       3.067   2.440  -2.776  0.00  0.00    +0.258 C 
BRANCH  24  25
ATOM     25  O   UNL     1       3.938   2.496  -3.937  0.00  0.00    -0.454 OA
BRANCH  25  26
ATOM     26  C   UNL     1       4.307   3.717  -4.404  0.00  0.00    +0.304 C 
ATOM     27  C   UNL     1       4.826   3.616  -5.803  0.00  0.00    +0.136 C 
ATOM     28  O   UNL     1       4.184   4.773  -3.802  0.00  0.00    -0.251 OA
ENDBRANCH  25  26
ENDBRANCH  24  25
BRANCH  24  29
ATOM     29  C   UNL     1       1.699   3.022  -3.203  0.00  0.00    +0.280 C 
BRANCH  29  30
ATOM     30  O   UNL     1       0.662   2.921  -2.219  0.00  0.00    -0.461 OA
BRANCH  30  31
ATOM     31  C   UNL     1      -0.003   1.739  -2.179  0.00  0.00    +0.304 C 
ATOM     32  C   UNL     1      -1.140   1.817  -1.206  0.00  0.00    +0.136 C 
ATOM     33  O   UNL     1       0.243   0.758  -2.867  0.00  0.00    -0.251 OA
ENDBRANCH  30  31
ENDBRANCH  29  30
ENDBRANCH  24  29
ENDBRANCH  19  24
ENDBRANCH   2  19
TORSDOF 13
