REMARK  Name = 
REMARK  18 active torsions:
REMARK  status: ('A' for Active; 'I' for Inactive)
REMARK    1  A    between atoms: C_1  and  C_2
REMARK    2  A    between atoms: N_4  and  C_5
REMARK    3  A    between atoms: C_7  and  N_35
REMARK    4  A    between atoms: C_10  and  C_31
REMARK    5  A    between atoms: C_12  and  C_14
REMARK    6  A    between atoms: C_14  and  C_16
REMARK    7  A    between atoms: C_14  and  O_27
REMARK    8  A    between atoms: C_16  and  C_18
REMARK    9  A    between atoms: C_16  and  O_23
REMARK   10  A    between atoms: C_18  and  O_19
REMARK   11  A    between atoms: O_19  and  C_20
REMARK   12  A    between atoms: C_20  and  C_22
REMARK   13  A    between atoms: O_23  and  C_24
REMARK   14  A    between atoms: C_24  and  C_26
REMARK   15  A    between atoms: O_27  and  C_28
REMARK   16  A    between atoms: C_28  and  C_30
REMARK   17  A    between atoms: C_31  and  O_33
REMARK   18  A    between atoms: O_33  and  C_34
REMARK                            x       y       z     vdW  Elec       q    Type
REMARK                         _______ _______ _______ _____ _____    ______ ____
ROOT
ATOM      1  C   UNL     1       4.893   1.066   0.598  0.00  0.00    +0.138 C 
ATOM      2  C   UNL     1       5.012   2.384  -0.221  0.00  0.00    +0.240 C 
ATOM      3  O   UNL     1       6.028   2.388  -1.239  0.00  0.00    -0.476 OA
ATOM      4  C   UNL     1       6.267   1.206  -1.909  0.00  0.00    +0.203 C 
ATOM      5  C   UNL     1       5.746   0.027  -1.546  0.00  0.00    +0.046 C 
ATOM      6  C   UNL     1       4.970  -0.199  -0.300  0.00  0.00    +0.102 C 
ENDROOT
BRANCH   1   9
ATOM      7  C   UNL     1       6.858   0.150   3.730  0.00  0.00    +0.109 C 
ATOM      8  C   UNL     1       5.830   0.015   2.643  0.00  0.00    +0.210 C 
ATOM      9  N   UNL     1       5.890   1.015   1.691  0.00  0.00    -0.307 N 
ATOM     10  H   UNL     1       6.312   1.889   1.986  0.00  0.00    +0.149 HD
ATOM     11  O   UNL     1       5.023  -0.908   2.609  0.00  0.00    -0.276 OA
ENDBRANCH   1   9
BRANCH   6  12
ATOM     12  N   UNL     1       3.640  -0.711  -0.632  0.00  0.00    -0.322 NA
ATOM     13  H   UNL     1       3.741  -1.635  -1.056  0.00  0.00    +0.119 HD
ATOM     14  H   UNL     1       3.148  -0.897   0.246  0.00  0.00    +0.119 HD
ENDBRANCH   6  12
BRANCH   4  15
ATOM     15  C   UNL     1       7.152   1.212  -3.119  0.00  0.00    +0.374 C 
ATOM     16  O   UNL     1       7.353   0.225  -3.814  0.00  0.00    -0.242 OA
BRANCH  15  17
ATOM     17  O   UNL     1       7.717   2.431  -3.314  0.00  0.00    -0.462 OA
ATOM     18  C   UNL     1       8.634   2.448  -4.412  0.00  0.00    +0.280 C 
ENDBRANCH  15  17
ENDBRANCH   4  15
BRANCH   2  19
ATOM     19  C   UNL     1       3.646   3.002  -0.687  0.00  0.00    +0.262 C 
BRANCH  19  20
ATOM     20  O   UNL     1       2.655   2.927   0.381  0.00  0.00    -0.454 OA
BRANCH  20  21
ATOM     21  C   UNL     1       2.863   3.678   1.497  0.00  0.00    +0.304 C 
ATOM     22  C   UNL     1       1.718   3.523   2.449  0.00  0.00    +0.136 C 
ATOM     23  O   UNL     1       3.846   4.371   1.713  0.00  0.00    -0.251 OA
ENDBRANCH  20  21
ENDBRANCH  19  20
BRANCH  19  24
ATOM     24  C   UNL     1       3.028   2.389  -1.979  0.00  0.00    +0.258 C 
BRANCH  24  25
ATOM     25  O   UNL     1       3.886   2.418  -3.151  0.00  0.00    -0.454 OA
BRANCH  25  26
ATOM     26  C   UNL     1       4.263   3.626  -3.643  0.00  0.00    +0.304 C 
ATOM     27  C   UNL     1       4.781   3.493  -5.040  0.00  0.00    +0.136 C 
ATOM     28  O   UNL     1       4.151   4.695  -3.061  0.00  0.00    -0.251 OA
ENDBRANCH  25  26
ENDBRANCH  24  25
BRANCH  24  29
ATOM     29  C   UNL     1       1.656   2.961  -2.405  0.00  0.00    +0.280 C 
BRANCH  29  30
ATOM     30  O   UNL     1       0.628   2.866  -1.412  0.00  0.00    -0.461 OA
BRANCH  30  31
ATOM     31  C   UNL     1      -0.027   1.675  -1.350  0.00  0.00    +0.304 C 
ATOM     32  C   UNL     1      -1.154   1.756  -0.368  0.00  0.00    +0.136 C 
ATOM     33  O   UNL     1       0.223   0.691  -2.029  0.00  0.00    -0.251 OA
ENDBRANCH  30  31
ENDBRANCH  29  30
ENDBRANCH  24  29
ENDBRANCH  19  24
ENDBRANCH   2  19
TORSDOF 13
