REMARK  Name = 
REMARK  3 active torsions:
REMARK  status: ('A' for Active; 'I' for Inactive)
REMARK    1  A    between atoms: C_1  and  S_2
REMARK    2  A    between atoms: S_2  and  C_3
REMARK    3  A    between atoms: C_6  and  C_8
REMARK                            x       y       z     vdW  Elec       q    Type
REMARK                         _______ _______ _______ _____ _____    ______ ____
ROOT
ATOM      1  C   UNL     1       3.367   1.489   0.984  0.00  0.00    +0.159 A 
ATOM      2  S   UNL     1       4.345   0.963   2.289  0.00  0.00    -0.035 S 
ATOM      3  C   UNL     1       4.289   2.580   2.886  0.00  0.00    +0.206 A 
ATOM      4  N   UNL     1       3.587   3.401   2.128  0.00  0.00    -0.136 NA
ATOM      5  N   UNL     1       3.054   2.765   1.024  0.00  0.00    -0.135 NA
ENDROOT
BRANCH   3   6
ATOM      6  C   UNL     1       4.997   2.935   4.150  0.00  0.00    +0.442 C 
ATOM      7  F   UNL     1       6.337   2.712   4.066  0.00  0.00    -0.164 F 
ATOM      8  F   UNL     1       4.551   2.207   5.210  0.00  0.00    -0.164 F 
ATOM      9  F   UNL     1       4.845   4.243   4.493  0.00  0.00    -0.164 F 
ENDBRANCH   3   6
BRANCH   1  11
ATOM     10  C   UNL     1       1.921   1.566  -1.341  0.00  0.00    +0.092 C 
ATOM     11  S   UNL     1       2.824   0.414  -0.282  0.00  0.00    -0.100 S 
ENDBRANCH   1  11
TORSDOF 2
