REMARK  Name = 
REMARK  3 active torsions:
REMARK  status: ('A' for Active; 'I' for Inactive)
REMARK    1  A    between atoms: C_1  and  S_2
REMARK    2  A    between atoms: S_2  and  C_3
REMARK    3  A    between atoms: C_6  and  C_8
REMARK                            x       y       z     vdW  Elec       q    Type
REMARK                         _______ _______ _______ _____ _____    ______ ____
ROOT
ATOM      1  C   UNL     1       3.394   1.528   0.038  0.00  0.00    +0.159 A 
ATOM      2  S   UNL     1       5.072   1.690   0.345  0.00  0.00    -0.035 S 
ATOM      3  C   UNL     1       4.833   3.397   0.367  0.00  0.00    +0.206 A 
ATOM      4  N   UNL     1       3.578   3.757   0.163  0.00  0.00    -0.136 NA
ATOM      5  N   UNL     1       2.745   2.670  -0.030  0.00  0.00    -0.135 NA
ENDROOT
BRANCH   3   6
ATOM      6  C   UNL     1       5.992   4.306   0.598  0.00  0.00    +0.442 C 
ATOM      7  F   UNL     1       6.955   4.157  -0.352  0.00  0.00    -0.164 F 
ATOM      8  F   UNL     1       6.596   4.073   1.796  0.00  0.00    -0.164 F 
ATOM      9  F   UNL     1       5.647   5.621   0.592  0.00  0.00    -0.164 F 
ENDBRANCH   3   6
BRANCH   1  11
ATOM     10  C   UNL     1       0.929   0.450  -0.527  0.00  0.00    +0.092 C 
ATOM     11  S   UNL     1       2.630  -0.031  -0.161  0.00  0.00    -0.100 S 
ENDBRANCH   1  11
TORSDOF 2
