REMARK  Name = 
REMARK  4 active torsions:
REMARK  status: ('A' for Active; 'I' for Inactive)
REMARK    1  A    between atoms: C_1  and  C_2
REMARK    2  A    between atoms: N_5  and  C_12
REMARK    3  A    between atoms: C_18  and  C_21
REMARK    4  A    between atoms: C_21  and  O_24
REMARK                            x       y       z     vdW  Elec       q    Type
REMARK                         _______ _______ _______ _____ _____    ______ ____
ROOT
ATOM      1  C   UNL     1       1.145   0.197   0.033  0.00  0.00    +0.051 C 
ATOM      2  C   UNL     1       2.634   0.229  -0.065  0.00  0.00    +0.030 A 
ATOM      3  C   UNL     1       3.327  -1.083  -0.067  0.00  0.00    +0.257 A 
ATOM      4  O   UNL     1       2.715  -2.145  -0.052  0.00  0.00    -0.267 OA
ATOM      5  N   UNL     1       4.688  -1.035  -0.099  0.00  0.00    -0.275 N 
ATOM      6  H   UNL     1       5.176  -1.915  -0.128  0.00  0.00    +0.173 HD
ATOM      7  C   UNL     1       5.448   0.089  -0.256  0.00  0.00    +0.332 A 
ATOM      8  O   UNL     1       6.665  -0.013  -0.400  0.00  0.00    -0.246 OA
ATOM      9  N   UNL     1       4.758   1.294  -0.266  0.00  0.00    -0.270 N 
ATOM     10  C   UNL     1       3.380   1.339  -0.165  0.00  0.00    +0.102 A 
ENDROOT
BRANCH   9  11
ATOM     11  C   UNL     1       5.566   2.480  -0.488  0.00  0.00    +0.248 C 
ATOM     12  O   UNL     1       4.944   3.698  -0.012  0.00  0.00    -0.343 OA
ATOM     13  C   UNL     1       5.427   4.747  -0.890  0.00  0.00    +0.169 C 
ATOM     14  C   UNL     1       5.658   4.039  -2.183  0.00  0.00    +0.007 C 
ATOM     15  C   UNL     1       5.740   2.729  -1.948  0.00  0.00    +0.025 C 
BRANCH  13  16
ATOM     16  C   UNL     1       4.433   5.906  -0.979  0.00  0.00    +0.191 C 
BRANCH  16  17
ATOM     17  O   UNL     1       4.950   6.943  -1.814  0.00  0.00    -0.392 OA
ATOM     18  H   UNL     1       4.270   7.636  -1.869  0.00  0.00    +0.210 HD
ENDBRANCH  16  17
ENDBRANCH  13  16
ENDBRANCH   9  11
TORSDOF 3
