REMARK  Name = 
REMARK  4 active torsions:
REMARK  status: ('A' for Active; 'I' for Inactive)
REMARK    1  A    between atoms: C_1  and  C_2
REMARK    2  A    between atoms: N_5  and  C_12
REMARK    3  A    between atoms: C_18  and  C_21
REMARK    4  A    between atoms: C_21  and  O_24
REMARK                            x       y       z     vdW  Elec       q    Type
REMARK                         _______ _______ _______ _____ _____    ______ ____
ROOT
ATOM      1  C   UNL     1       1.023   0.187  -0.045  0.00  0.00    +0.051 C 
ATOM      2  C   UNL     1       2.515   0.221  -0.140  0.00  0.00    +0.030 A 
ATOM      3  C   UNL     1       3.207  -1.090  -0.145  0.00  0.00    +0.257 A 
ATOM      4  O   UNL     1       2.595  -2.152  -0.138  0.00  0.00    -0.267 OA
ATOM      5  N   UNL     1       4.568  -1.041  -0.169  0.00  0.00    -0.275 N 
ATOM      6  H   UNL     1       5.057  -1.922  -0.199  0.00  0.00    +0.173 HD
ATOM      7  C   UNL     1       5.329   0.083  -0.324  0.00  0.00    +0.332 A 
ATOM      8  O   UNL     1       6.547  -0.021  -0.464  0.00  0.00    -0.246 OA
ATOM      9  N   UNL     1       4.638   1.288  -0.338  0.00  0.00    -0.270 N 
ATOM     10  C   UNL     1       3.259   1.331  -0.240  0.00  0.00    +0.102 A 
ENDROOT
BRANCH   9  11
ATOM     11  C   UNL     1       5.447   2.473  -0.564  0.00  0.00    +0.248 C 
ATOM     12  O   UNL     1       4.824   3.689  -0.090  0.00  0.00    -0.343 OA
ATOM     13  C   UNL     1       5.305   4.738  -0.970  0.00  0.00    +0.169 C 
ATOM     14  C   UNL     1       5.537   4.027  -2.262  0.00  0.00    +0.007 C 
ATOM     15  C   UNL     1       5.621   2.718  -2.025  0.00  0.00    +0.025 C 
BRANCH  13  16
ATOM     16  C   UNL     1       4.310   5.896  -1.059  0.00  0.00    +0.191 C 
BRANCH  16  17
ATOM     17  O   UNL     1       4.827   6.934  -1.892  0.00  0.00    -0.392 OA
ATOM     18  H   UNL     1       4.148   7.628  -1.942  0.00  0.00    +0.210 HD
ENDBRANCH  16  17
ENDBRANCH  13  16
ENDBRANCH   9  11
TORSDOF 3
