REMARK  Name = 
REMARK  5 active torsions:
REMARK  status: ('A' for Active; 'I' for Inactive)
REMARK    1  A    between atoms: C_1  and  C_5
REMARK    2  A    between atoms: N_7  and  C_13
REMARK    3  A    between atoms: C_17  and  O_24
REMARK    4  A    between atoms: C_19  and  C_22
REMARK    5  A    between atoms: C_22  and  O_23
REMARK                            x       y       z     vdW  Elec       q    Type
REMARK                         _______ _______ _______ _____ _____    ______ ____
ROOT
ATOM      1  C   UNL     1       5.430   2.529  -0.250  0.00  0.00    +0.260 C 
ATOM      2  O   UNL     1       6.475   2.625   0.736  0.00  0.00    -0.345 OA
ATOM      3  C   UNL     1       6.700   4.033   0.992  0.00  0.00    +0.178 C 
ATOM      4  C   UNL     1       5.772   4.831   0.063  0.00  0.00    +0.184 C 
ATOM      5  C   UNL     1       4.658   3.846  -0.201  0.00  0.00    +0.246 C 
ATOM      6  F   UNL     1       3.803   3.873   0.863  0.00  0.00    -0.238 F 
ENDROOT
BRANCH   1  15
ATOM      7  C   UNL     1       3.424  -0.914   2.749  0.00  0.00    +0.051 C 
ATOM      8  C   UNL     1       3.654  -0.281   1.417  0.00  0.00    +0.030 A 
ATOM      9  C   UNL     1       2.954  -0.870   0.251  0.00  0.00    +0.257 A 
ATOM     10  O   UNL     1       2.208  -1.837   0.360  0.00  0.00    -0.267 OA
ATOM     11  N   UNL     1       3.177  -0.261  -0.950  0.00  0.00    -0.275 N 
ATOM     12  H   UNL     1       2.685  -0.632  -1.747  0.00  0.00    +0.173 HD
ATOM     13  C   UNL     1       3.925   0.865  -1.151  0.00  0.00    +0.331 A 
ATOM     14  O   UNL     1       3.956   1.404  -2.257  0.00  0.00    -0.246 OA
ATOM     15  N   UNL     1       4.610   1.342  -0.044  0.00  0.00    -0.271 N 
ATOM     16  C   UNL     1       4.444   0.780   1.205  0.00  0.00    +0.102 A 
ENDBRANCH   1  15
BRANCH   4  17
ATOM     17  O   UNL     1       6.445   5.144  -1.162  0.00  0.00    -0.386 OA
ATOM     18  H   UNL     1       5.943   5.850  -1.609  0.00  0.00    +0.210 HD
ENDBRANCH   4  17
BRANCH   3  19
ATOM     19  C   UNL     1       6.434   4.289   2.479  0.00  0.00    +0.190 C 
BRANCH  19  20
ATOM     20  O   UNL     1       6.635   5.654   2.817  0.00  0.00    -0.392 OA
ATOM     21  H   UNL     1       5.762   6.080   2.869  0.00  0.00    +0.210 HD
ENDBRANCH  19  20
ENDBRANCH   3  19
TORSDOF 4
