REMARK  Name = 
REMARK  5 active torsions:
REMARK  status: ('A' for Active; 'I' for Inactive)
REMARK    1  A    between atoms: C_1  and  C_2
REMARK    2  A    between atoms: N_4  and  C_10
REMARK    3  A    between atoms: C_14  and  O_21
REMARK    4  A    between atoms: C_16  and  C_19
REMARK    5  A    between atoms: C_19  and  O_20
REMARK                            x       y       z     vdW  Elec       q    Type
REMARK                         _______ _______ _______ _____ _____    ______ ____
ROOT
ATOM      1  C   UNL     1       5.451   2.444  -0.286  0.00  0.00    +0.260 C 
ATOM      2  O   UNL     1       6.374   2.575   0.814  0.00  0.00    -0.345 OA
ATOM      3  C   UNL     1       6.680   3.986   0.942  0.00  0.00    +0.178 C 
ATOM      4  C   UNL     1       5.727   4.760   0.020  0.00  0.00    +0.184 C 
ATOM      5  C   UNL     1       4.660   3.746  -0.336  0.00  0.00    +0.246 C 
ATOM      6  F   UNL     1       3.690   3.760   0.619  0.00  0.00    -0.238 F 
ENDROOT
BRANCH   1  15
ATOM      7  C   UNL     1       3.273  -1.037   2.539  0.00  0.00    +0.051 C 
ATOM      8  C   UNL     1       3.593  -0.402   1.227  0.00  0.00    +0.030 A 
ATOM      9  C   UNL     1       3.015  -1.011   0.008  0.00  0.00    +0.257 A 
ATOM     10  O   UNL     1       2.298  -2.004   0.054  0.00  0.00    -0.267 OA
ATOM     11  N   UNL     1       3.321  -0.393  -1.171  0.00  0.00    -0.275 N 
ATOM     12  H   UNL     1       2.914  -0.781  -2.007  0.00  0.00    +0.173 HD
ATOM     13  C   UNL     1       4.066   0.745  -1.316  0.00  0.00    +0.331 A 
ATOM     14  O   UNL     1       4.195   1.274  -2.418  0.00  0.00    -0.246 OA
ATOM     15  N   UNL     1       4.635   1.242  -0.154  0.00  0.00    -0.271 N 
ATOM     16  C   UNL     1       4.372   0.678   1.078  0.00  0.00    +0.102 A 
ENDBRANCH   1  15
BRANCH   4  17
ATOM     17  O   UNL     1       6.436   5.153  -1.166  0.00  0.00    -0.386 OA
ATOM     18  H   UNL     1       5.862   5.757  -1.672  0.00  0.00    +0.210 HD
ENDBRANCH   4  17
BRANCH   3  19
ATOM     19  C   UNL     1       6.581   4.377   2.418  0.00  0.00    +0.190 C 
BRANCH  19  20
ATOM     20  O   UNL     1       5.267   4.218   2.936  0.00  0.00    -0.392 OA
ATOM     21  H   UNL     1       5.128   3.263   3.066  0.00  0.00    +0.210 HD
ENDBRANCH  19  20
ENDBRANCH   3  19
TORSDOF 4
