REMARK  Name = 
REMARK  5 active torsions:
REMARK  status: ('A' for Active; 'I' for Inactive)
REMARK    1  A    between atoms: C_1  and  C_2
REMARK    2  A    between atoms: N_4  and  C_10
REMARK    3  A    between atoms: C_14  and  O_21
REMARK    4  A    between atoms: C_16  and  C_19
REMARK    5  A    between atoms: C_19  and  O_20
REMARK                            x       y       z     vdW  Elec       q    Type
REMARK                         _______ _______ _______ _____ _____    ______ ____
ROOT
ATOM      1  C   UNL     1       5.320   2.525  -0.284  0.00  0.00    +0.260 C 
ATOM      2  O   UNL     1       6.255   2.650   0.804  0.00  0.00    -0.345 OA
ATOM      3  C   UNL     1       6.554   4.060   0.953  0.00  0.00    +0.178 C 
ATOM      4  C   UNL     1       5.601   4.842   0.038  0.00  0.00    +0.184 C 
ATOM      5  C   UNL     1       4.530   3.830  -0.312  0.00  0.00    +0.246 C 
ATOM      6  F   UNL     1       3.578   3.832   0.664  0.00  0.00    -0.238 F 
ENDROOT
BRANCH   1  15
ATOM      7  C   UNL     1       3.152  -0.939   2.566  0.00  0.00    +0.051 C 
ATOM      8  C   UNL     1       3.464  -0.310   1.249  0.00  0.00    +0.030 A 
ATOM      9  C   UNL     1       2.848  -0.902   0.039  0.00  0.00    +0.257 A 
ATOM     10  O   UNL     1       2.109  -1.878   0.097  0.00  0.00    -0.267 OA
ATOM     11  N   UNL     1       3.146  -0.287  -1.142  0.00  0.00    -0.275 N 
ATOM     12  H   UNL     1       2.714  -0.662  -1.972  0.00  0.00    +0.173 HD
ATOM     13  C   UNL     1       3.900   0.844  -1.292  0.00  0.00    +0.331 A 
ATOM     14  O   UNL     1       4.011   1.380  -2.394  0.00  0.00    -0.246 OA
ATOM     15  N   UNL     1       4.501   1.326  -0.141  0.00  0.00    -0.271 N 
ATOM     16  C   UNL     1       4.259   0.755   1.092  0.00  0.00    +0.102 A 
ENDBRANCH   1  15
BRANCH   4  17
ATOM     17  O   UNL     1       6.303   5.238  -1.150  0.00  0.00    -0.386 OA
ATOM     18  H   UNL     1       5.732   5.855  -1.644  0.00  0.00    +0.210 HD
ENDBRANCH   4  17
BRANCH   3  19
ATOM     19  C   UNL     1       6.426   4.416   2.436  0.00  0.00    +0.190 C 
BRANCH  19  20
ATOM     20  O   UNL     1       5.097   4.249   2.914  0.00  0.00    -0.392 OA
ATOM     21  H   UNL     1       4.822   3.344   2.684  0.00  0.00    +0.210 HD
ENDBRANCH  19  20
ENDBRANCH   3  19
TORSDOF 4
