REMARK  Name = 
REMARK  16 active torsions:
REMARK  status: ('A' for Active; 'I' for Inactive)
REMARK    1  A    between atoms: C_1  and  C_2
REMARK    2  A    between atoms: C_2  and  C_3
REMARK    3  A    between atoms: C_2  and  C_4
REMARK    4  A    between atoms: C_4  and  N_5
REMARK    5  A    between atoms: N_5  and  C_6
REMARK    6  A    between atoms: N_5  and  S_28
REMARK    7  A    between atoms: C_6  and  C_7
REMARK    8  A    between atoms: C_7  and  C_8
REMARK    9  A    between atoms: C_7  and  O_27
REMARK   10  A    between atoms: C_8  and  C_10
REMARK   11  A    between atoms: C_8  and  N_17
REMARK   12  A    between atoms: C_10  and  C_11
REMARK   13  A    between atoms: C_18  and  O_20
REMARK   14  A    between atoms: O_20  and  C_21
REMARK   15  A    between atoms: S_28  and  C_31
REMARK   16  A    between atoms: C_34  and  N_37
REMARK                            x       y       z     vdW  Elec       q    Type
REMARK                         _______ _______ _______ _____ _____    ______ ____
ROOT
ATOM      1  C   UNL     1       2.163   2.997   0.678  0.00  0.00    +0.151 C 
ENDROOT
BRANCH   1   2
ATOM      2  O   UNL     1       1.188   2.896   1.728  0.00  0.00    -0.389 OA
ATOM      3  H   UNL     1       0.385   2.473   1.381  0.00  0.00    +0.210 HD
ENDBRANCH   1   2
BRANCH   1   4
ATOM      4  C   UNL     1       3.560   3.169   1.287  0.00  0.00    +0.142 C 
BRANCH   4   5
ATOM      5  N   UNL     1       3.857   4.232   2.355  0.00  0.00    -0.174 NA
BRANCH   5   6
ATOM      6  S   UNL     1       5.498   3.730   2.930  0.00  0.00    +0.061 S 
ATOM      7  O   UNL     1       6.443   4.210   1.945  0.00  0.00    -0.153 OA
ATOM      8  O   UNL     1       5.449   2.320   3.276  0.00  0.00    -0.153 OA
BRANCH   6   9
ATOM      9  C   UNL     1       5.826   4.567   4.455  0.00  0.00    +0.106 A 
ATOM     10  C   UNL     1       6.951   5.390   4.555  0.00  0.00    +0.030 A 
ATOM     11  C   UNL     1       7.310   5.922   5.795  0.00  0.00    +0.024 A 
ATOM     12  C   UNL     1       6.534   5.668   6.929  0.00  0.00    +0.025 A 
ATOM     13  C   UNL     1       5.488   4.743   6.836  0.00  0.00    +0.024 A 
ATOM     14  C   UNL     1       5.122   4.198   5.602  0.00  0.00    +0.030 A 
BRANCH  12  15
ATOM     15  N   UNL     1       6.944   6.145   8.180  0.00  0.00    -0.358 N 
ATOM     16  H   UNL     1       7.479   7.007   8.126  0.00  0.00    +0.142 HD
ATOM     17  H   UNL     1       6.183   6.215   8.849  0.00  0.00    +0.142 HD
ENDBRANCH  12  15
ENDBRANCH   6   9
ENDBRANCH   5   6
BRANCH   5  18
ATOM     18  C   UNL     1       3.881   5.692   1.900  0.00  0.00    +0.112 C 
BRANCH  18  20
ATOM     19  C   UNL     1       1.464   6.343   2.522  0.00  0.00    +0.008 C 
ATOM     20  C   UNL     1       2.543   6.331   1.441  0.00  0.00    -0.001 C 
ATOM     21  C   UNL     1       2.731   7.792   0.965  0.00  0.00    +0.008 C 
ENDBRANCH  18  20
ENDBRANCH   5  18
ENDBRANCH   4   5
ENDBRANCH   1   4
BRANCH   1  22
ATOM     22  C   UNL     1       2.054   1.719  -0.259  0.00  0.00    +0.110 C 
BRANCH  22  23
ATOM     23  N   UNL     1       2.567   1.978  -1.619  0.00  0.00    -0.275 N 
ATOM     24  H   UNL     1       1.914   2.258  -2.338  0.00  0.00    +0.152 HD
ATOM     25  C   UNL     1       3.879   2.073  -1.975  0.00  0.00    +0.401 C 
ATOM     26  O   UNL     1       4.817   1.845  -1.219  0.00  0.00    -0.226 OA
BRANCH  25  27
ATOM     27  O   UNL     1       4.011   2.491  -3.254  0.00  0.00    -0.445 OA
BRANCH  27  28
ATOM     28  C   UNL     1       5.371   2.674  -3.693  0.00  0.00    +0.206 C 
ATOM     29  C   UNL     1       5.440   3.225  -5.118  0.00  0.00    +0.204 C 
ATOM     30  O   UNL     1       6.556   2.606  -5.782  0.00  0.00    -0.376 OA
ATOM     31  C   UNL     1       7.196   1.730  -4.847  0.00  0.00    +0.163 C 
ATOM     32  C   UNL     1       6.147   1.379  -3.822  0.00  0.00    +0.075 C 
ENDBRANCH  27  28
ENDBRANCH  25  27
ENDBRANCH  22  23
BRANCH  22  33
ATOM     33  C   UNL     1       2.552   0.394   0.415  0.00  0.00    +0.060 C 
BRANCH  33  34
ATOM     34  C   UNL     1       1.769  -0.866   0.068  0.00  0.00    -0.046 A 
ATOM     35  C   UNL     1       1.259  -1.681   1.097  0.00  0.00    +0.004 A 
ATOM     36  C   UNL     1       0.475  -2.801   0.810  0.00  0.00    +0.000 A 
ATOM     37  C   UNL     1       0.203  -3.137  -0.510  0.00  0.00    +0.000 A 
ATOM     38  C   UNL     1       0.763  -2.381  -1.544  0.00  0.00    +0.000 A 
ATOM     39  C   UNL     1       1.552  -1.259  -1.256  0.00  0.00    +0.004 A 
ENDBRANCH  33  34
ENDBRANCH  22  33
ENDBRANCH   1  22
TORSDOF 14
