REMARK  Name = 
REMARK  16 active torsions:
REMARK  status: ('A' for Active; 'I' for Inactive)
REMARK    1  A    between atoms: C_1  and  C_2
REMARK    2  A    between atoms: C_2  and  C_3
REMARK    3  A    between atoms: C_2  and  C_4
REMARK    4  A    between atoms: C_4  and  N_5
REMARK    5  A    between atoms: N_5  and  C_6
REMARK    6  A    between atoms: N_5  and  S_28
REMARK    7  A    between atoms: C_6  and  C_7
REMARK    8  A    between atoms: C_7  and  C_8
REMARK    9  A    between atoms: C_7  and  O_27
REMARK   10  A    between atoms: C_8  and  C_10
REMARK   11  A    between atoms: C_8  and  N_17
REMARK   12  A    between atoms: C_10  and  C_11
REMARK   13  A    between atoms: C_18  and  O_20
REMARK   14  A    between atoms: O_20  and  C_21
REMARK   15  A    between atoms: S_28  and  C_31
REMARK   16  A    between atoms: C_34  and  N_37
REMARK                            x       y       z     vdW  Elec       q    Type
REMARK                         _______ _______ _______ _____ _____    ______ ____
ROOT
ATOM      1  C   UNL     1       2.732   0.936  -2.498  0.00  0.00    +0.151 C 
ENDROOT
BRANCH   1   2
ATOM      2  O   UNL     1       3.723   1.454  -3.399  0.00  0.00    -0.389 OA
ATOM      3  H   UNL     1       4.612   1.347  -3.002  0.00  0.00    +0.210 HD
ENDBRANCH   1   2
BRANCH   1   4
ATOM      4  C   UNL     1       1.742   0.090  -3.409  0.00  0.00    +0.142 C 
BRANCH   4   5
ATOM      5  N   UNL     1       0.866   0.801  -4.446  0.00  0.00    -0.174 NA
BRANCH   5   6
ATOM      6  S   UNL     1      -0.685   1.359  -3.979  0.00  0.00    +0.061 S 
ATOM      7  O   UNL     1      -1.300   0.329  -3.174  0.00  0.00    -0.153 OA
ATOM      8  O   UNL     1      -1.389   1.891  -5.141  0.00  0.00    -0.153 OA
BRANCH   6   9
ATOM      9  C   UNL     1      -0.337   2.740  -2.921  0.00  0.00    +0.106 A 
ATOM     10  C   UNL     1      -0.526   2.580  -1.548  0.00  0.00    +0.030 A 
ATOM     11  C   UNL     1      -0.261   3.641  -0.686  0.00  0.00    +0.024 A 
ATOM     12  C   UNL     1       0.247   4.848  -1.169  0.00  0.00    +0.025 A 
ATOM     13  C   UNL     1       0.326   5.036  -2.553  0.00  0.00    +0.024 A 
ATOM     14  C   UNL     1       0.043   3.983  -3.436  0.00  0.00    +0.030 A 
BRANCH  12  15
ATOM     15  N   UNL     1       0.441   5.917  -0.288  0.00  0.00    -0.358 N 
ATOM     16  H   UNL     1       0.656   5.628   0.662  0.00  0.00    +0.142 HD
ATOM     17  H   UNL     1       1.085   6.623  -0.630  0.00  0.00    +0.142 HD
ENDBRANCH  12  15
ENDBRANCH   6   9
ENDBRANCH   5   6
BRANCH   5  18
ATOM     18  C   UNL     1       1.458   1.517  -5.605  0.00  0.00    +0.112 C 
BRANCH  18  20
ATOM     19  C   UNL     1       1.453  -0.465  -7.287  0.00  0.00    +0.008 C 
ATOM     20  C   UNL     1       2.239   0.690  -6.643  0.00  0.00    -0.001 C 
ATOM     21  C   UNL     1       2.663   1.672  -7.756  0.00  0.00    +0.008 C 
ENDBRANCH  18  20
ENDBRANCH   5  18
ENDBRANCH   4   5
ENDBRANCH   1   4
BRANCH   1  22
ATOM     22  C   UNL     1       3.449   0.122  -1.286  0.00  0.00    +0.110 C 
BRANCH  22  23
ATOM     23  N   UNL     1       4.583   0.819  -0.523  0.00  0.00    -0.275 N 
ATOM     24  H   UNL     1       4.565   0.725   0.488  0.00  0.00    +0.152 HD
ATOM     25  C   UNL     1       5.791   1.319  -0.968  0.00  0.00    +0.401 C 
ATOM     26  O   UNL     1       6.104   1.388  -2.147  0.00  0.00    -0.226 OA
BRANCH  25  27
ATOM     27  O   UNL     1       6.575   1.767   0.069  0.00  0.00    -0.445 OA
BRANCH  27  28
ATOM     28  C   UNL     1       7.707   2.651  -0.212  0.00  0.00    +0.206 C 
ATOM     29  C   UNL     1       8.972   2.029  -0.813  0.00  0.00    +0.204 C 
ATOM     30  O   UNL     1      10.125   2.700  -0.249  0.00  0.00    -0.376 OA
ATOM     31  C   UNL     1       9.670   3.681   0.687  0.00  0.00    +0.163 C 
ATOM     32  C   UNL     1       8.269   3.257   1.074  0.00  0.00    +0.075 C 
ENDBRANCH  27  28
ENDBRANCH  25  27
ENDBRANCH  22  23
BRANCH  22  33
ATOM     33  C   UNL     1       2.432  -0.512  -0.253  0.00  0.00    +0.060 C 
BRANCH  33  34
ATOM     34  C   UNL     1       1.746   0.298   0.845  0.00  0.00    -0.046 A 
ATOM     35  C   UNL     1       0.839  -0.361   1.708  0.00  0.00    +0.004 A 
ATOM     36  C   UNL     1       0.245   0.300   2.796  0.00  0.00    +0.000 A 
ATOM     37  C   UNL     1       0.556   1.628   3.047  0.00  0.00    +0.000 A 
ATOM     38  C   UNL     1       1.435   2.301   2.212  0.00  0.00    +0.000 A 
ATOM     39  C   UNL     1       2.013   1.646   1.108  0.00  0.00    +0.004 A 
ENDBRANCH  33  34
ENDBRANCH  22  33
ENDBRANCH   1  22
TORSDOF 14
