REMARK  Name = 
REMARK  19 active torsions:
REMARK  status: ('A' for Active; 'I' for Inactive)
REMARK    1  A    between atoms: C_1  and  C_2
REMARK    2  A    between atoms: C_2  and  C_3
REMARK    3  A    between atoms: C_2  and  C_4
REMARK    4  A    between atoms: C_4  and  N_5
REMARK    5  A    between atoms: N_5  and  C_6
REMARK    6  A    between atoms: N_5  and  S_30
REMARK    7  A    between atoms: C_6  and  C_7
REMARK    8  A    between atoms: C_7  and  C_8
REMARK    9  A    between atoms: C_7  and  O_25
REMARK   10  A    between atoms: C_8  and  C_9
REMARK   11  A    between atoms: C_8  and  N_16
REMARK   12  A    between atoms: C_9  and  C_10
REMARK   13  A    between atoms: C_17  and  O_19
REMARK   14  A    between atoms: O_19  and  C_20
REMARK   15  A    between atoms: O_25  and  P_26
REMARK   16  A    between atoms: P_26  and  O_28
REMARK   17  A    between atoms: P_26  and  O_29
REMARK   18  A    between atoms: S_30  and  C_33
REMARK   19  A    between atoms: C_36  and  N_39
REMARK                            x       y       z     vdW  Elec       q    Type
REMARK                         _______ _______ _______ _____ _____    ______ ____
ROOT
ATOM      1  C   UNL     1       3.887  -0.965  -0.985  0.00  0.00    +0.166 C 
ENDROOT
BRANCH   1   2
ATOM      2  O   UNL     1       4.759  -2.111  -0.933  0.00  0.00    -0.280 OA
BRANCH   2   3
ATOM      3  P   UNL     1       6.128  -1.983  -0.083  0.00  0.00    +0.473 P 
ATOM      4  O   UNL     1       6.917  -0.726  -0.144  0.00  0.00    -0.228 OA
BRANCH   3   5
ATOM      5  O   UNL     1       5.550  -2.267   1.382  0.00  0.00    -0.303 OA
ATOM      6  H   UNL     1       5.076  -3.121   1.349  0.00  0.00    +0.222 HD
ENDBRANCH   3   5
BRANCH   3   7
ATOM      7  O   UNL     1       6.964  -3.324  -0.233  0.00  0.00    -0.303 OA
ATOM      8  H   UNL     1       7.773  -3.291   0.317  0.00  0.00    +0.222 HD
ENDBRANCH   3   7
ENDBRANCH   2   3
ENDBRANCH   1   2
BRANCH   1   9
ATOM      9  C   UNL     1       2.327  -1.315  -1.160  0.00  0.00    +0.111 C 
BRANCH   9  10
ATOM     10  N   UNL     1       1.407  -0.085  -1.111  0.00  0.00    -0.275 N 
ATOM     11  H   UNL     1       1.612   0.631  -0.427  0.00  0.00    +0.152 HD
ATOM     12  C   UNL     1       0.265   0.184  -1.882  0.00  0.00    +0.401 C 
ATOM     13  O   UNL     1      -0.245  -0.591  -2.671  0.00  0.00    -0.226 OA
BRANCH  12  14
ATOM     14  O   UNL     1      -0.195   1.457  -1.663  0.00  0.00    -0.445 OA
BRANCH  14  15
ATOM     15  C   UNL     1      -1.420   2.091  -2.185  0.00  0.00    +0.206 C 
ATOM     16  C   UNL     1      -2.762   1.407  -1.948  0.00  0.00    +0.204 C 
ATOM     17  O   UNL     1      -3.736   2.087  -2.776  0.00  0.00    -0.376 OA
ATOM     18  C   UNL     1      -3.035   2.912  -3.719  0.00  0.00    +0.163 C 
ATOM     19  C   UNL     1      -1.563   2.497  -3.650  0.00  0.00    +0.075 C 
ENDBRANCH  14  15
ENDBRANCH  12  14
ENDBRANCH   9  10
BRANCH   9  20
ATOM     20  C   UNL     1       1.741  -2.603  -0.471  0.00  0.00    +0.060 C 
BRANCH  20  21
ATOM     21  C   UNL     1       1.630  -3.040   0.984  0.00  0.00    -0.046 A 
ATOM     22  C   UNL     1       0.889  -4.238   1.212  0.00  0.00    +0.004 A 
ATOM     23  C   UNL     1       0.687  -4.762   2.494  0.00  0.00    +0.000 A 
ATOM     24  C   UNL     1       1.230  -4.120   3.600  0.00  0.00    +0.000 A 
ATOM     25  C   UNL     1       1.978  -2.954   3.386  0.00  0.00    +0.000 A 
ATOM     26  C   UNL     1       2.190  -2.420   2.091  0.00  0.00    +0.004 A 
ENDBRANCH  20  21
ENDBRANCH   9  20
ENDBRANCH   1   9
BRANCH   1  27
ATOM     27  C   UNL     1       4.475   0.091  -2.010  0.00  0.00    +0.143 C 
BRANCH  27  28
ATOM     28  N   UNL     1       4.429  -0.220  -3.518  0.00  0.00    -0.174 NA
BRANCH  28  29
ATOM     29  S   UNL     1       5.300  -1.638  -3.916  0.00  0.00    +0.061 S 
ATOM     30  O   UNL     1       4.400  -2.737  -3.667  0.00  0.00    -0.153 OA
ATOM     31  O   UNL     1       6.591  -1.566  -3.255  0.00  0.00    -0.153 OA
BRANCH  29  32
ATOM     32  C   UNL     1       5.635  -1.614  -5.662  0.00  0.00    +0.106 A 
ATOM     33  C   UNL     1       5.164  -2.680  -6.435  0.00  0.00    +0.030 A 
ATOM     34  C   UNL     1       5.410  -2.713  -7.805  0.00  0.00    +0.024 A 
ATOM     35  C   UNL     1       6.093  -1.663  -8.425  0.00  0.00    +0.025 A 
ATOM     36  C   UNL     1       6.655  -0.658  -7.629  0.00  0.00    +0.024 A 
ATOM     37  C   UNL     1       6.431  -0.625  -6.244  0.00  0.00    +0.030 A 
BRANCH  35  38
ATOM     38  N   UNL     1       6.382  -1.746  -9.792  0.00  0.00    -0.358 N 
ATOM     39  H   UNL     1       5.735  -2.332 -10.313  0.00  0.00    +0.142 HD
ATOM     40  H   UNL     1       6.510  -0.841 -10.235  0.00  0.00    +0.142 HD
ENDBRANCH  35  38
ENDBRANCH  29  32
ENDBRANCH  28  29
BRANCH  28  41
ATOM     41  C   UNL     1       3.068   0.104  -4.051  0.00  0.00    +0.112 C 
BRANCH  41  43
ATOM     42  C   UNL     1       1.117  -0.028  -5.579  0.00  0.00    +0.008 C 
ATOM     43  C   UNL     1       2.656  -0.156  -5.495  0.00  0.00    -0.001 C 
ATOM     44  C   UNL     1       3.244   0.846  -6.474  0.00  0.00    +0.008 C 
ENDBRANCH  41  43
ENDBRANCH  28  41
ENDBRANCH  27  28
ENDBRANCH   1  27
TORSDOF 17
