REMARK  Name = 
REMARK  19 active torsions:
REMARK  status: ('A' for Active; 'I' for Inactive)
REMARK    1  A    between atoms: C_1  and  C_2
REMARK    2  A    between atoms: C_2  and  C_3
REMARK    3  A    between atoms: C_2  and  C_4
REMARK    4  A    between atoms: C_4  and  N_5
REMARK    5  A    between atoms: N_5  and  C_6
REMARK    6  A    between atoms: N_5  and  S_30
REMARK    7  A    between atoms: C_6  and  C_7
REMARK    8  A    between atoms: C_7  and  C_8
REMARK    9  A    between atoms: C_7  and  O_25
REMARK   10  A    between atoms: C_8  and  C_9
REMARK   11  A    between atoms: C_8  and  N_16
REMARK   12  A    between atoms: C_9  and  C_10
REMARK   13  A    between atoms: C_17  and  O_19
REMARK   14  A    between atoms: O_19  and  C_20
REMARK   15  A    between atoms: O_25  and  P_26
REMARK   16  A    between atoms: P_26  and  O_28
REMARK   17  A    between atoms: P_26  and  O_29
REMARK   18  A    between atoms: S_30  and  C_33
REMARK   19  A    between atoms: C_36  and  N_39
REMARK                            x       y       z     vdW  Elec       q    Type
REMARK                         _______ _______ _______ _____ _____    ______ ____
ROOT
ATOM      1  C   UNL     1       4.083   0.493  -1.452  0.00  0.00    +0.166 C 
ENDROOT
BRANCH   1   2
ATOM      2  C   UNL     1       5.151   1.482  -0.751  0.00  0.00    +0.143 C 
BRANCH   2   3
ATOM      3  N   UNL     1       6.739   1.471  -1.207  0.00  0.00    -0.174 NA
BRANCH   3   4
ATOM      4  S   UNL     1       7.039   1.993  -2.869  0.00  0.00    +0.061 S 
ATOM      5  O   UNL     1       6.812   0.881  -3.763  0.00  0.00    -0.153 OA
ATOM      6  O   UNL     1       8.286   2.715  -2.974  0.00  0.00    -0.153 OA
BRANCH   4   7
ATOM      7  C   UNL     1       5.784   3.204  -3.178  0.00  0.00    +0.106 A 
ATOM      8  C   UNL     1       4.720   2.932  -4.033  0.00  0.00    +0.030 A 
ATOM      9  C   UNL     1       3.638   3.798  -4.090  0.00  0.00    +0.024 A 
ATOM     10  C   UNL     1       3.629   4.953  -3.305  0.00  0.00    +0.025 A 
ATOM     11  C   UNL     1       4.791   5.291  -2.594  0.00  0.00    +0.024 A 
ATOM     12  C   UNL     1       5.858   4.420  -2.504  0.00  0.00    +0.030 A 
BRANCH  10  13
ATOM     13  N   UNL     1       2.578   5.871  -3.422  0.00  0.00    -0.358 N 
ATOM     14  H   UNL     1       1.692   5.433  -3.655  0.00  0.00    +0.142 HD
ATOM     15  H   UNL     1       2.489   6.470  -2.595  0.00  0.00    +0.142 HD
ENDBRANCH  10  13
ENDBRANCH   4   7
ENDBRANCH   3   4
BRANCH   3  16
ATOM     16  C   UNL     1       7.676   2.156  -0.137  0.00  0.00    +0.112 C 
BRANCH  16  18
ATOM     17  C   UNL     1      10.034   3.006   0.677  0.00  0.00    +0.008 C 
ATOM     18  C   UNL     1       9.257   2.116  -0.329  0.00  0.00    -0.001 C 
ATOM     19  C   UNL     1       9.906   0.730  -0.282  0.00  0.00    +0.008 C 
ENDBRANCH  16  18
ENDBRANCH   3  16
ENDBRANCH   2   3
ENDBRANCH   1   2
BRANCH   1  20
ATOM     20  O   UNL     1       4.463   0.366  -2.846  0.00  0.00    -0.280 OA
BRANCH  20  21
ATOM     21  P   UNL     1       4.220  -0.873  -3.834  0.00  0.00    +0.473 P 
ATOM     22  O   UNL     1       3.497  -2.085  -3.363  0.00  0.00    -0.228 OA
BRANCH  21  23
ATOM     23  O   UNL     1       5.604  -1.300  -4.486  0.00  0.00    -0.303 OA
ATOM     24  H   UNL     1       5.664  -2.267  -4.572  0.00  0.00    +0.222 HD
ENDBRANCH  21  23
BRANCH  21  25
ATOM     25  O   UNL     1       3.597  -0.191  -5.141  0.00  0.00    -0.303 OA
ATOM     26  H   UNL     1       4.336   0.155  -5.686  0.00  0.00    +0.222 HD
ENDBRANCH  21  25
ENDBRANCH  20  21
ENDBRANCH   1  20
BRANCH   1  27
ATOM     27  C   UNL     1       2.442   0.958  -1.359  0.00  0.00    +0.111 C 
BRANCH  27  28
ATOM     28  N   UNL     1       1.735   1.010  -0.025  0.00  0.00    -0.275 N 
ATOM     29  H   UNL     1       1.155   0.203   0.184  0.00  0.00    +0.152 HD
ATOM     30  C   UNL     1       1.168   2.145   0.551  0.00  0.00    +0.401 C 
ATOM     31  O   UNL     1       1.543   3.295   0.356  0.00  0.00    -0.226 OA
BRANCH  30  32
ATOM     32  O   UNL     1       0.105   1.810   1.358  0.00  0.00    -0.445 OA
BRANCH  32  33
ATOM     33  C   UNL     1      -0.674   2.818   2.101  0.00  0.00    +0.206 C 
ATOM     34  C   UNL     1      -1.670   2.126   3.055  0.00  0.00    +0.204 C 
ATOM     35  O   UNL     1      -2.958   2.757   2.952  0.00  0.00    -0.376 OA
ATOM     36  C   UNL     1      -2.835   3.897   2.107  0.00  0.00    +0.163 C 
ATOM     37  C   UNL     1      -1.605   3.665   1.246  0.00  0.00    +0.075 C 
ENDBRANCH  32  33
ENDBRANCH  30  32
ENDBRANCH  27  28
BRANCH  27  38
ATOM     38  C   UNL     1       1.680  -0.079  -2.266  0.00  0.00    +0.060 C 
BRANCH  38  39
ATOM     39  C   UNL     1       0.202  -0.280  -2.502  0.00  0.00    -0.046 A 
ATOM     40  C   UNL     1      -0.209  -1.546  -2.994  0.00  0.00    +0.004 A 
ATOM     41  C   UNL     1      -1.527  -1.789  -3.385  0.00  0.00    +0.000 A 
ATOM     42  C   UNL     1      -2.458  -0.761  -3.306  0.00  0.00    +0.000 A 
ATOM     43  C   UNL     1      -2.061   0.499  -2.850  0.00  0.00    +0.000 A 
ATOM     44  C   UNL     1      -0.737   0.743  -2.456  0.00  0.00    +0.004 A 
ENDBRANCH  38  39
ENDBRANCH  27  38
ENDBRANCH   1  27
TORSDOF 17
