REMARK  Name = 
REMARK  5 active torsions:
REMARK  status: ('A' for Active; 'I' for Inactive)
REMARK    1  A    between atoms: C5M_1  and  C5_2
REMARK    2  A    between atoms: N1_4  and  C1*_10
REMARK    3  A    between atoms: C3*_12  and  O3*_17
REMARK    4  A    between atoms: C4*_13  and  C5*_15
REMARK    5  A    between atoms: C5*_15  and  O5*_16
REMARK                            x       y       z     vdW  Elec       q    Type
REMARK                         _______ _______ _______ _____ _____    ______ ____
ROOT
ATOM      1  C5M   T A   1       3.519  -0.879   2.706  0.00  0.00    +0.051 C 
ATOM      2  C5    T A   1       3.695  -0.234   1.370  0.00  0.00    +0.030 A 
ATOM      3  C4    T A   1       2.918  -0.798   0.241  0.00  0.00    +0.257 A 
ATOM      4  O4    T A   1       2.142  -1.736   0.391  0.00  0.00    -0.267 OA
ATOM      5  N3    T A   1       3.104  -0.202  -0.969  0.00  0.00    -0.275 N 
ATOM      6  H3    T A   1       2.565  -0.553  -1.743  0.00  0.00    +0.173 HD
ATOM      7  C2    T A   1       3.871   0.905  -1.213  0.00  0.00    +0.331 A 
ATOM      8  O2    T A   1       3.873   1.420  -2.329  0.00  0.00    -0.246 OA
ATOM      9  N1    T A   1       4.602   1.380  -0.132  0.00  0.00    -0.274 N 
ATOM     10  C6    T A   1       4.492   0.813   1.124  0.00  0.00    +0.101 A 
ENDROOT
BRANCH   9  11
ATOM     11  C1*   T A   1       5.403   2.573  -0.365  0.00  0.00    +0.226 C 
ATOM     12  O4*   T A   1       6.521   2.644   0.543  0.00  0.00    -0.348 OA
ATOM     13  C4*   T A   1       6.726   4.039   0.881  0.00  0.00    +0.175 C 
ATOM     14  C3*   T A   1       5.738   4.854   0.031  0.00  0.00    +0.150 C 
ATOM     15  C2*   T A   1       4.620   3.865  -0.187  0.00  0.00    +0.088 C 
BRANCH  14  16
ATOM     16  O3*   T A   1       6.221   5.261  -1.246  0.00  0.00    -0.389 OA
ATOM     17  H3*   T A   1       7.090   4.838  -1.416  0.00  0.00    +0.210 HD
ENDBRANCH  14  16
BRANCH  13  18
ATOM     18  C5*   T A   1       8.199   4.374   0.672  0.00  0.00    +0.190 C 
BRANCH  18  19
ATOM     19  O5*   T A   1       8.572   4.077  -0.678  0.00  0.00    -0.392 OA
ATOM     20  H5*   T A   1       8.513   3.104  -0.758  0.00  0.00    +0.210 HD
ENDBRANCH  18  19
ENDBRANCH  13  18
ENDBRANCH   9  11
TORSDOF 4
