REMARK  Name = 
REMARK  8 active torsions:
REMARK  status: ('A' for Active; 'I' for Inactive)
REMARK    1  A    between atoms: C_1  and  C_2
REMARK    2  A    between atoms: C_3  and  N_9
REMARK    3  A    between atoms: C_4  and  C_8
REMARK    4  A    between atoms: N_9  and  C_10
REMARK    5  A    between atoms: C_10  and  C_11
REMARK    6  A    between atoms: N_13  and  C_14
REMARK    7  A    between atoms: C_17  and  C_20
REMARK    8  A    between atoms: C_25  and  C_27
REMARK                            x       y       z     vdW  Elec       q    Type
REMARK                         _______ _______ _______ _____ _____    ______ ____
ROOT
ATOM      1  N   UNL     1       2.624  -2.358   0.400  0.00  0.00    -0.262 N 
ATOM      2  C   UNL     1       1.424  -2.399   1.133  0.00  0.00    +0.223 C 
ATOM      3  O   UNL     1       0.981  -3.449   1.610  0.00  0.00    -0.275 OA
ENDROOT
BRANCH   1  11
ATOM      4  C   UNL     1       3.538  -0.447   2.590  0.00  0.00    +0.045 C 
ATOM      5  C   UNL     1       3.871  -0.333   1.124  0.00  0.00    -0.029 A 
ATOM      6  C   UNL     1       4.709   0.740   0.768  0.00  0.00    +0.005 A 
ATOM      7  C   UNL     1       5.036   0.988  -0.558  0.00  0.00    +0.001 A 
ATOM      8  C   UNL     1       4.439   0.236  -1.561  0.00  0.00    +0.005 A 
ATOM      9  C   UNL     1       3.522  -0.782  -1.249  0.00  0.00    -0.029 A 
ATOM     10  C   UNL     1       2.762  -1.376  -2.405  0.00  0.00    +0.045 C 
ATOM     11  C   UNL     1       3.310  -1.139   0.104  0.00  0.00    +0.043 A 
ENDBRANCH   1  11
BRANCH   2  12
ATOM     12  C   UNL     1       0.593  -1.120   1.308  0.00  0.00    +0.079 C 
ATOM     13  C   UNL     1      -0.066  -1.072   2.708  0.00  0.00    +0.035 C 
ATOM     14  C   UNL     1      -1.338  -1.889   2.908  0.00  0.00    +0.166 C 
ATOM     15  S   UNL     1      -2.544  -1.571   1.647  0.00  0.00    -0.031 S 
ATOM     16  O   UNL     1      -2.906  -0.167   1.713  0.00  0.00    -0.174 OA
ATOM     17  O   UNL     1      -3.559  -2.603   1.715  0.00  0.00    -0.174 OA
ATOM     18  C   UNL     1      -1.585  -1.828   0.174  0.00  0.00    +0.166 C 
ATOM     19  C   UNL     1      -0.377  -0.907   0.146  0.00  0.00    +0.035 C 
ENDBRANCH   2  12
BRANCH   1  20
ATOM     20  C   UNL     1       3.486  -3.560   0.566  0.00  0.00    +0.209 C 
BRANCH  20  21
ATOM     21  C   UNL     1       4.476  -4.088  -0.500  0.00  0.00    +0.235 C 
ATOM     22  N   UNL     1       5.586  -3.291  -0.726  0.00  0.00    -0.284 N 
ATOM     23  H   UNL     1       5.584  -2.371  -0.303  0.00  0.00    +0.155 HD
ATOM     24  O   UNL     1       4.306  -5.208  -0.980  0.00  0.00    -0.274 OA
BRANCH  22  25
ATOM     25  C   UNL     1       6.763  -3.642  -1.436  0.00  0.00    +0.033 A 
ATOM     26  C   UNL     1       7.787  -2.688  -1.495  0.00  0.00    +0.024 A 
ATOM     27  C   UNL     1       9.019  -2.986  -2.102  0.00  0.00    +0.013 A 
ATOM     28  C   UNL     1       9.260  -4.254  -2.669  0.00  0.00    +0.023 A 
ATOM     29  C   UNL     1       8.217  -5.186  -2.641  0.00  0.00    +0.013 A 
ATOM     30  C   UNL     1       6.984  -4.884  -2.033  0.00  0.00    +0.024 A 
BRANCH  28  31
ATOM     31  C   UNL     1      10.561  -4.588  -3.244  0.00  0.00    +0.202 A 
ATOM     32  N   UNL     1      11.612  -3.689  -3.292  0.00  0.00    -0.194 NA
ATOM     33  C   UNL     1      12.565  -4.400  -3.838  0.00  0.00    +0.343 A 
ATOM     34  O   UNL     1      12.201  -5.669  -4.139  0.00  0.00    -0.341 OA
ATOM     35  N   UNL     1      10.869  -5.797  -3.749  0.00  0.00    -0.056 NA
ENDBRANCH  28  31
ENDBRANCH  22  25
ENDBRANCH  20  21
ENDBRANCH   1  20
TORSDOF 6
