REMARK  Name = 
REMARK  8 active torsions:
REMARK  status: ('A' for Active; 'I' for Inactive)
REMARK    1  A    between atoms: C_1  and  C_2
REMARK    2  A    between atoms: C_3  and  N_9
REMARK    3  A    between atoms: C_4  and  C_8
REMARK    4  A    between atoms: N_9  and  C_10
REMARK    5  A    between atoms: C_10  and  C_11
REMARK    6  A    between atoms: N_13  and  C_14
REMARK    7  A    between atoms: C_17  and  C_20
REMARK    8  A    between atoms: C_25  and  C_27
REMARK                            x       y       z     vdW  Elec       q    Type
REMARK                         _______ _______ _______ _____ _____    ______ ____
ROOT
ATOM      1  N   UNL     1       2.493  -2.267   0.385  0.00  0.00    -0.262 N 
ATOM      2  C   UNL     1       1.297  -2.321   1.120  0.00  0.00    +0.223 C 
ATOM      3  O   UNL     1       0.849  -3.378   1.581  0.00  0.00    -0.275 OA
ENDROOT
BRANCH   1  11
ATOM      4  C   UNL     1       3.438  -0.394   2.590  0.00  0.00    +0.045 C 
ATOM      5  C   UNL     1       3.757  -0.259   1.122  0.00  0.00    -0.029 A 
ATOM      6  C   UNL     1       4.593   0.816   0.772  0.00  0.00    +0.005 A 
ATOM      7  C   UNL     1       4.902   1.084  -0.556  0.00  0.00    +0.001 A 
ATOM      8  C   UNL     1       4.291   0.348  -1.561  0.00  0.00    +0.005 A 
ATOM      9  C   UNL     1       3.378  -0.675  -1.255  0.00  0.00    -0.029 A 
ATOM     10  C   UNL     1       2.608  -1.258  -2.408  0.00  0.00    +0.045 C 
ATOM     11  C   UNL     1       3.180  -1.049   0.097  0.00  0.00    +0.043 A 
ENDBRANCH   1  11
BRANCH   2  12
ATOM     12  C   UNL     1       0.477  -1.038   1.327  0.00  0.00    +0.079 C 
ATOM     13  C   UNL     1      -0.162  -1.016   2.737  0.00  0.00    +0.035 C 
ATOM     14  C   UNL     1      -1.441  -1.827   2.933  0.00  0.00    +0.166 C 
ATOM     15  S   UNL     1      -2.656  -1.457   1.696  0.00  0.00    -0.031 S 
ATOM     16  O   UNL     1      -2.997  -0.050   1.805  0.00  0.00    -0.174 OA
ATOM     17  O   UNL     1      -3.686  -2.476   1.757  0.00  0.00    -0.174 OA
ATOM     18  C   UNL     1      -1.724  -1.695   0.205  0.00  0.00    +0.166 C 
ATOM     19  C   UNL     1      -0.503  -0.792   0.182  0.00  0.00    +0.035 C 
ENDBRANCH   2  12
BRANCH   1  20
ATOM     20  C   UNL     1       3.352  -3.472   0.528  0.00  0.00    +0.209 C 
BRANCH  20  21
ATOM     21  C   UNL     1       4.329  -3.957  -0.563  0.00  0.00    +0.235 C 
ATOM     22  N   UNL     1       5.479  -3.194  -0.710  0.00  0.00    -0.284 N 
ATOM     23  H   UNL     1       5.555  -2.363  -0.136  0.00  0.00    +0.155 HD
ATOM     24  O   UNL     1       4.116  -5.028  -1.131  0.00  0.00    -0.274 OA
BRANCH  22  25
ATOM     25  C   UNL     1       6.625  -3.540  -1.470  0.00  0.00    +0.033 A 
ATOM     26  C   UNL     1       7.797  -2.797  -1.264  0.00  0.00    +0.024 A 
ATOM     27  C   UNL     1       8.994  -3.155  -1.908  0.00  0.00    +0.013 A 
ATOM     28  C   UNL     1       9.043  -4.245  -2.788  0.00  0.00    +0.023 A 
ATOM     29  C   UNL     1       7.859  -4.946  -3.034  0.00  0.00    +0.013 A 
ATOM     30  C   UNL     1       6.666  -4.599  -2.376  0.00  0.00    +0.024 A 
BRANCH  28  31
ATOM     31  C   UNL     1      10.301  -4.663  -3.410  0.00  0.00    +0.202 A 
ATOM     32  N   UNL     1      11.492  -4.006  -3.185  0.00  0.00    -0.194 NA
ATOM     33  C   UNL     1      12.334  -4.718  -3.892  0.00  0.00    +0.343 A 
ATOM     34  O   UNL     1      11.766  -5.756  -4.543  0.00  0.00    -0.341 OA
ATOM     35  N   UNL     1      10.412  -5.725  -4.225  0.00  0.00    -0.056 NA
ENDBRANCH  28  31
ENDBRANCH  22  25
ENDBRANCH  20  21
ENDBRANCH   1  20
TORSDOF 6
