REMARK  Name = 
REMARK  17 active torsions:
REMARK  status: ('A' for Active; 'I' for Inactive)
REMARK    1  A    between atoms: C_1  and  C_2
REMARK    2  A    between atoms: C_2  and  C_3
REMARK    3  A    between atoms: C_2  and  C_4
REMARK    4  A    between atoms: C_2  and  N_5
REMARK    5  A    between atoms: C_6  and  C_8
REMARK    6  A    between atoms: N_20  and  C_21
REMARK    7  A    between atoms: C_21  and  C_22
REMARK    8  A    between atoms: C_22  and  C_24
REMARK    9  A    between atoms: C_22  and  O_55
REMARK   10  A    between atoms: C_24  and  C_26
REMARK   11  A    between atoms: C_24  and  N_33
REMARK   12  A    between atoms: C_26  and  C_27
REMARK   13  A    between atoms: C_34  and  C_36
REMARK   14  A    between atoms: C_36  and  C_38
REMARK   15  A    between atoms: C_36  and  N_42
REMARK   16  A    between atoms: C_38  and  C_39
REMARK   17  A    between atoms: C_43  and  C_45
REMARK                            x       y       z     vdW  Elec       q    Type
REMARK                         _______ _______ _______ _____ _____    ______ ____
ROOT
ATOM      1  C   UNL     1       6.683  -8.095  -5.719  0.00  0.00    +0.107 C 
ENDROOT
BRANCH   1   2
ATOM      2  N   UNL     1       7.244  -7.452  -4.489  0.00  0.00    -0.308 N 
ATOM      3  H   UNL     1       7.024  -7.859  -3.588  0.00  0.00    +0.149 HD
ATOM      4  C   UNL     1       7.746  -6.169  -4.438  0.00  0.00    +0.234 C 
ATOM      5  O   UNL     1       7.846  -5.478  -5.456  0.00  0.00    -0.274 OA
BRANCH   4   6
ATOM      6  C   UNL     1       8.382  -5.701  -3.112  0.00  0.00    +0.168 C 
BRANCH   6   7
ATOM      7  N   UNL     1       7.970  -6.425  -1.926  0.00  0.00    -0.298 N 
ATOM      8  H   UNL     1       8.467  -7.267  -1.626  0.00  0.00    +0.150 HD
ATOM      9  C   UNL     1       6.791  -6.115  -1.281  0.00  0.00    +0.263 C 
ATOM     10  O   UNL     1       6.063  -5.213  -1.642  0.00  0.00    -0.269 OA
BRANCH   9  11
ATOM     11  C   UNL     1       6.395  -7.015  -0.157  0.00  0.00    +0.126 A 
ATOM     12  C   UNL     1       5.076  -6.964   0.290  0.00  0.00    +0.033 A 
ATOM     13  C   UNL     1       4.628  -8.015   1.071  0.00  0.00    +0.012 A 
ATOM     14  C   UNL     1       5.480  -9.087   1.351  0.00  0.00    +0.000 A 
ATOM     15  C   UNL     1       6.842  -8.971   0.972  0.00  0.00    +0.072 A 
ATOM     16  C   UNL     1       7.698 -10.004   1.321  0.00  0.00    +0.028 A 
ATOM     17  C   UNL     1       7.223 -11.190   1.891  0.00  0.00    +0.002 A 
ATOM     18  C   UNL     1       5.867 -11.338   2.153  0.00  0.00    +0.001 A 
ATOM     19  C   UNL     1       5.004 -10.272   1.924  0.00  0.00    +0.010 A 
ATOM     20  N   UNL     1       7.299  -7.952   0.225  0.00  0.00    -0.242 NA
ENDBRANCH   9  11
ENDBRANCH   6   7
BRANCH   6  21
ATOM     21  C   UNL     1       9.904  -5.605  -3.271  0.00  0.00    +0.127 C 
BRANCH  21  22
ATOM     22  C   UNL     1      10.615  -6.937  -3.311  0.00  0.00    +0.213 C 
ATOM     23  N   UNL     1      11.957  -6.854  -3.542  0.00  0.00    -0.329 N 
ATOM     24  H   UNL     1      12.475  -7.700  -3.585  0.00  0.00    +0.145 HD
ATOM     25  H   UNL     1      12.424  -5.986  -3.754  0.00  0.00    +0.145 HD
ATOM     26  O   UNL     1      10.068  -8.017  -3.110  0.00  0.00    -0.276 OA
ENDBRANCH  21  22
ENDBRANCH   6  21
ENDBRANCH   4   6
ENDBRANCH   1   2
BRANCH   1  27
ATOM     27  C   UNL     1       7.831  -8.471  -6.720  0.00  0.00    +0.149 C 
BRANCH  27  28
ATOM     28  O   UNL     1       8.648  -7.350  -7.038  0.00  0.00    -0.389 OA
ATOM     29  H   UNL     1       8.718  -6.768  -6.265  0.00  0.00    +0.210 HD
ENDBRANCH  27  28
BRANCH  27  30
ATOM     30  C   UNL     1       7.376  -9.091  -8.090  0.00  0.00    +0.118 C 
BRANCH  30  32
ATOM     31  C   UNL     1       8.991  -8.063  -9.686  0.00  0.00    +0.143 C 
ATOM     32  N   UNL     1       8.439  -9.346  -9.125  0.00  0.00    -0.289 NA
ATOM     33  C   UNL     1       9.477 -10.221  -8.539  0.00  0.00    +0.089 C 
ATOM     34  C   UNL     1      10.757 -10.324  -9.367  0.00  0.00    +0.006 C 
ATOM     35  C   UNL     1      11.445  -8.951  -9.390  0.00  0.00    -0.005 C 
ATOM     36  C   UNL     1      12.511  -8.837 -10.478  0.00  0.00    +0.004 C 
ATOM     37  C   UNL     1      12.003  -9.286 -11.834  0.00  0.00    +0.000 C 
ATOM     38  C   UNL     1      11.547 -10.736 -11.784  0.00  0.00    +0.000 C 
ATOM     39  C   UNL     1      10.486 -10.987 -10.723  0.00  0.00    +0.005 C 
ATOM     40  C   UNL     1      10.471  -7.757  -9.362  0.00  0.00    +0.032 C 
BRANCH  31  43
ATOM     41  N   UNL     1       7.808  -8.676 -11.806  0.00  0.00    -0.309 N 
ATOM     42  H   UNL     1       7.512  -9.463 -11.233  0.00  0.00    +0.149 HD
ATOM     43  C   UNL     1       8.766  -7.886 -11.214  0.00  0.00    +0.231 C 
ATOM     44  O   UNL     1       9.357  -7.008 -11.847  0.00  0.00    -0.274 OA
BRANCH  41  46
ATOM     45  C   UNL     1       8.745  -9.165 -14.054  0.00  0.00    +0.031 C 
ATOM     46  C   UNL     1       7.527  -8.668 -13.256  0.00  0.00    +0.026 C 
ATOM     47  C   UNL     1       6.352  -9.620 -13.537  0.00  0.00    +0.031 C 
ATOM     48  C   UNL     1       7.139  -7.261 -13.757  0.00  0.00    +0.031 C 
ENDBRANCH  41  46
ENDBRANCH  31  43
ENDBRANCH  30  32
ENDBRANCH  27  30
ENDBRANCH   1  27
BRANCH   1  49
ATOM     49  C   UNL     1       5.887  -9.381  -5.361  0.00  0.00    +0.060 C 
BRANCH  49  50
ATOM     50  C   UNL     1       4.727  -9.172  -4.418  0.00  0.00    -0.046 A 
ATOM     51  C   UNL     1       4.900  -9.334  -3.040  0.00  0.00    +0.004 A 
ATOM     52  C   UNL     1       3.838  -9.100  -2.172  0.00  0.00    +0.000 A 
ATOM     53  C   UNL     1       2.602  -8.684  -2.654  0.00  0.00    +0.000 A 
ATOM     54  C   UNL     1       2.406  -8.569  -4.026  0.00  0.00    +0.000 A 
ATOM     55  C   UNL     1       3.461  -8.820  -4.906  0.00  0.00    +0.004 A 
ENDBRANCH  49  50
ENDBRANCH   1  49
TORSDOF 14
