REMARK  Name = 
REMARK  17 active torsions:
REMARK  status: ('A' for Active; 'I' for Inactive)
REMARK    1  A    between atoms: C_1  and  C_2
REMARK    2  A    between atoms: C_2  and  C_3
REMARK    3  A    between atoms: C_2  and  C_4
REMARK    4  A    between atoms: C_2  and  N_5
REMARK    5  A    between atoms: C_6  and  C_8
REMARK    6  A    between atoms: N_20  and  C_21
REMARK    7  A    between atoms: C_21  and  C_22
REMARK    8  A    between atoms: C_22  and  C_24
REMARK    9  A    between atoms: C_22  and  O_55
REMARK   10  A    between atoms: C_24  and  C_26
REMARK   11  A    between atoms: C_24  and  N_33
REMARK   12  A    between atoms: C_26  and  C_27
REMARK   13  A    between atoms: C_34  and  C_36
REMARK   14  A    between atoms: C_36  and  C_38
REMARK   15  A    between atoms: C_36  and  N_42
REMARK   16  A    between atoms: C_38  and  C_39
REMARK   17  A    between atoms: C_43  and  C_45
REMARK                            x       y       z     vdW  Elec       q    Type
REMARK                         _______ _______ _______ _____ _____    ______ ____
ROOT
ATOM      1  C   UNL     1       5.344   6.146   7.286  0.00  0.00    +0.107 C 
ENDROOT
BRANCH   1   2
ATOM      2  N   UNL     1       4.317   5.390   6.465  0.00  0.00    -0.308 N 
ATOM      3  H   UNL     1       3.354   5.515   6.750  0.00  0.00    +0.149 HD
ATOM      4  C   UNL     1       4.554   4.632   5.346  0.00  0.00    +0.234 C 
ATOM      5  O   UNL     1       5.682   4.459   4.889  0.00  0.00    -0.274 OA
BRANCH   4   6
ATOM      6  C   UNL     1       3.311   3.882   4.658  0.00  0.00    +0.168 C 
BRANCH   6   7
ATOM      7  N   UNL     1       3.153   2.397   4.957  0.00  0.00    -0.298 N 
ATOM      8  H   UNL     1       3.929   1.817   4.665  0.00  0.00    +0.150 HD
ATOM      9  C   UNL     1       2.005   1.784   5.517  0.00  0.00    +0.263 C 
ATOM     10  O   UNL     1       1.054   2.484   5.855  0.00  0.00    -0.269 OA
BRANCH   9  11
ATOM     11  C   UNL     1       1.900   0.280   5.750  0.00  0.00    +0.126 A 
ATOM     12  C   UNL     1       2.857  -0.671   5.438  0.00  0.00    +0.033 A 
ATOM     13  C   UNL     1       2.652  -1.998   5.889  0.00  0.00    +0.012 A 
ATOM     14  C   UNL     1       1.538  -2.331   6.696  0.00  0.00    +0.000 A 
ATOM     15  C   UNL     1       0.589  -1.314   6.892  0.00  0.00    +0.072 A 
ATOM     16  C   UNL     1      -0.518  -1.604   7.689  0.00  0.00    +0.028 A 
ATOM     17  C   UNL     1      -0.642  -2.810   8.377  0.00  0.00    +0.002 A 
ATOM     18  C   UNL     1       0.319  -3.803   8.214  0.00  0.00    +0.001 A 
ATOM     19  C   UNL     1       1.381  -3.580   7.329  0.00  0.00    +0.010 A 
ATOM     20  N   UNL     1       0.751  -0.069   6.404  0.00  0.00    -0.242 NA
ENDBRANCH   9  11
ENDBRANCH   6   7
BRANCH   6  21
ATOM     21  C   UNL     1       2.005   4.697   4.616  0.00  0.00    +0.127 C 
BRANCH  21  22
ATOM     22  C   UNL     1       2.169   6.176   4.354  0.00  0.00    +0.213 C 
ATOM     23  N   UNL     1       1.997   6.603   3.076  0.00  0.00    -0.329 N 
ATOM     24  H   UNL     1       1.969   7.607   2.944  0.00  0.00    +0.145 HD
ATOM     25  H   UNL     1       1.566   6.031   2.362  0.00  0.00    +0.145 HD
ATOM     26  O   UNL     1       2.441   6.973   5.241  0.00  0.00    -0.276 OA
ENDBRANCH  21  22
ENDBRANCH   6  21
ENDBRANCH   4   6
ENDBRANCH   1   2
BRANCH   1  27
ATOM     27  C   UNL     1       5.473   7.681   6.836  0.00  0.00    +0.149 C 
BRANCH  27  28
ATOM     28  O   UNL     1       5.762   7.713   5.438  0.00  0.00    -0.389 OA
ATOM     29  H   UNL     1       5.084   7.151   5.005  0.00  0.00    +0.210 HD
ENDBRANCH  27  28
BRANCH  27  30
ATOM     30  C   UNL     1       6.542   8.565   7.586  0.00  0.00    +0.118 C 
BRANCH  30  32
ATOM     31  C   UNL     1       7.258  10.316   5.906  0.00  0.00    +0.143 C 
ATOM     32  N   UNL     1       6.709  10.040   7.270  0.00  0.00    -0.289 NA
ATOM     33  C   UNL     1       5.478  10.787   7.562  0.00  0.00    +0.089 C 
ATOM     34  C   UNL     1       5.480  12.277   7.147  0.00  0.00    +0.006 C 
ATOM     35  C   UNL     1       5.493  12.318   5.631  0.00  0.00    -0.005 C 
ATOM     36  C   UNL     1       5.480  13.744   5.062  0.00  0.00    +0.004 C 
ATOM     37  C   UNL     1       6.130  14.869   5.865  0.00  0.00    +0.000 C 
ATOM     38  C   UNL     1       6.560  14.594   7.302  0.00  0.00    +0.000 C 
ATOM     39  C   UNL     1       6.572  13.140   7.774  0.00  0.00    +0.005 C 
ATOM     40  C   UNL     1       6.475  11.311   4.985  0.00  0.00    +0.032 C 
BRANCH  31  43
ATOM     41  N   UNL     1       9.475  10.457   7.083  0.00  0.00    -0.309 N 
ATOM     42  H   UNL     1       8.891  10.250   7.887  0.00  0.00    +0.149 HD
ATOM     43  C   UNL     1       8.776  10.697   5.916  0.00  0.00    +0.231 C 
ATOM     44  O   UNL     1       9.336  11.114   4.900  0.00  0.00    -0.274 OA
BRANCH  41  46
ATOM     45  C   UNL     1      11.259  12.191   6.963  0.00  0.00    +0.031 C 
ATOM     46  C   UNL     1      10.922  10.717   7.258  0.00  0.00    +0.026 C 
ATOM     47  C   UNL     1      11.319  10.424   8.717  0.00  0.00    +0.031 C 
ATOM     48  C   UNL     1      11.773   9.804   6.354  0.00  0.00    +0.031 C 
ENDBRANCH  41  46
ENDBRANCH  31  43
ENDBRANCH  30  32
ENDBRANCH  27  30
ENDBRANCH   1  27
BRANCH   1  49
ATOM     49  C   UNL     1       4.968   6.036   8.795  0.00  0.00    +0.060 C 
BRANCH  49  50
ATOM     50  C   UNL     1       4.745   4.614   9.284  0.00  0.00    -0.046 A 
ATOM     51  C   UNL     1       3.485   4.004   9.154  0.00  0.00    +0.004 A 
ATOM     52  C   UNL     1       3.305   2.656   9.466  0.00  0.00    +0.000 A 
ATOM     53  C   UNL     1       4.372   1.907   9.956  0.00  0.00    +0.000 A 
ATOM     54  C   UNL     1       5.610   2.516  10.158  0.00  0.00    +0.000 A 
ATOM     55  C   UNL     1       5.797   3.863   9.824  0.00  0.00    +0.004 A 
ENDBRANCH  49  50
ENDBRANCH   1  49
TORSDOF 14
