REMARK  Name = 
REMARK  6 active torsions:
REMARK  status: ('A' for Active; 'I' for Inactive)
REMARK    1  A    between atoms: C_3  and  C_19
REMARK    2  A    between atoms: N_5  and  C1*_6
REMARK    3  A    between atoms: C2*_8  and  O2*_18
REMARK    4  A    between atoms: C3*_10  and  O3*_17
REMARK    5  A    between atoms: C4*_12  and  C5*_15
REMARK    6  A    between atoms: C5*_15  and  O5*_16
REMARK                            x       y       z     vdW  Elec       q    Type
REMARK                         _______ _______ _______ _____ _____    ______ ____
ROOT
ATOM      1  C1* UNL     1      -0.908  -2.701  -0.171  0.00  0.00    +0.270 C 
ATOM      2  O4* UNL     1      -1.305  -3.082   1.166  0.00  0.00    -0.344 OA
ATOM      3  C4* UNL     1      -1.134  -4.517   1.308  0.00  0.00    +0.177 C 
ATOM      4  C3* UNL     1      -0.582  -5.056  -0.012  0.00  0.00    +0.178 C 
ATOM      5  C2* UNL     1       0.024  -3.822  -0.651  0.00  0.00    +0.196 C 
ENDROOT
BRANCH   1   7
ATOM      6  C   UNL     1      -3.313  -2.019  -0.550  0.00  0.00    +0.223 A 
ATOM      7  N   UNL     1      -2.100  -2.469  -0.972  0.00  0.00    -0.220 N 
ATOM      8  N   UNL     1      -2.068  -2.582  -2.318  0.00  0.00    -0.142 NA
ATOM      9  C   UNL     1      -3.327  -2.248  -2.661  0.00  0.00    +0.236 A 
ATOM     10  N   UNL     1      -4.118  -1.885  -1.579  0.00  0.00    -0.211 NA
BRANCH   9  11
ATOM     11  C   UNL     1      -3.839  -2.270  -4.045  0.00  0.00    +0.281 C 
ATOM     12  N   UNL     1      -5.174  -1.969  -4.153  0.00  0.00    -0.323 N 
ATOM     13  H   UNL     1      -5.613  -2.012  -5.060  0.00  0.00    +0.145 HD
ATOM     14  H   UNL     1      -5.718  -1.797  -3.316  0.00  0.00    +0.145 HD
ATOM     15  O   UNL     1      -3.173  -2.543  -5.039  0.00  0.00    -0.267 OA
ENDBRANCH   9  11
ENDBRANCH   1   7
BRANCH   4  16
ATOM     16  O3* UNL     1      -1.647  -5.561  -0.817  0.00  0.00    -0.386 OA
ATOM     17  H3* UNL     1      -1.257  -5.746  -1.695  0.00  0.00    +0.210 HD
ENDBRANCH   4  16
BRANCH   5  18
ATOM     18  O2* UNL     1       0.227  -3.990  -2.049  0.00  0.00    -0.385 OA
ATOM     19  H2* UNL     1      -0.550  -3.601  -2.516  0.00  0.00    +0.210 HD
ENDBRANCH   5  18
BRANCH   3  20
ATOM     20  C5* UNL     1      -0.186  -4.792   2.482  0.00  0.00    +0.190 C 
BRANCH  20  21
ATOM     21  O5* UNL     1      -0.691  -4.270   3.709  0.00  0.00    -0.392 OA
ATOM     22  H5* UNL     1      -1.662  -4.338   3.697  0.00  0.00    +0.210 HD
ENDBRANCH  20  21
ENDBRANCH   3  20
TORSDOF 6
