REMARK  Name = 
REMARK  6 active torsions:
REMARK  status: ('A' for Active; 'I' for Inactive)
REMARK    1  A    between atoms: C_3  and  C_19
REMARK    2  A    between atoms: N_5  and  C1*_6
REMARK    3  A    between atoms: C2*_8  and  O2*_18
REMARK    4  A    between atoms: C3*_10  and  O3*_17
REMARK    5  A    between atoms: C4*_12  and  C5*_15
REMARK    6  A    between atoms: C5*_15  and  O5*_16
REMARK                            x       y       z     vdW  Elec       q    Type
REMARK                         _______ _______ _______ _____ _____    ______ ____
ROOT
ATOM      1  C1* UNL     1      -0.879  -2.709  -0.162  0.00  0.00    +0.270 C 
ATOM      2  O4* UNL     1      -1.235  -3.083   1.192  0.00  0.00    -0.344 OA
ATOM      3  C4* UNL     1      -1.080  -4.524   1.320  0.00  0.00    +0.177 C 
ATOM      4  C3* UNL     1      -0.545  -5.059  -0.011  0.00  0.00    +0.178 C 
ATOM      5  C2* UNL     1       0.043  -3.827  -0.670  0.00  0.00    +0.196 C 
ENDROOT
BRANCH   1   7
ATOM      6  C   UNL     1      -3.312  -2.075  -0.482  0.00  0.00    +0.223 A 
ATOM      7  N   UNL     1      -2.096  -2.486  -0.933  0.00  0.00    -0.220 N 
ATOM      8  N   UNL     1      -2.086  -2.570  -2.282  0.00  0.00    -0.142 NA
ATOM      9  C   UNL     1      -3.361  -2.270  -2.595  0.00  0.00    +0.236 A 
ATOM     10  N   UNL     1      -4.141  -1.946  -1.492  0.00  0.00    -0.211 NA
BRANCH   9  11
ATOM     11  C   UNL     1      -3.899  -2.293  -3.970  0.00  0.00    +0.281 C 
ATOM     12  N   UNL     1      -5.244  -2.052  -4.051  0.00  0.00    -0.323 N 
ATOM     13  H   UNL     1      -5.698  -2.113  -4.950  0.00  0.00    +0.145 HD
ATOM     14  H   UNL     1      -5.785  -1.927  -3.203  0.00  0.00    +0.145 HD
ATOM     15  O   UNL     1      -3.238  -2.522  -4.981  0.00  0.00    -0.267 OA
ENDBRANCH   9  11
ENDBRANCH   1   7
BRANCH   4  16
ATOM     16  O3* UNL     1      -1.631  -5.561  -0.799  0.00  0.00    -0.386 OA
ATOM     17  H3* UNL     1      -1.250  -5.756  -1.679  0.00  0.00    +0.210 HD
ENDBRANCH   4  16
BRANCH   5  18
ATOM     18  O2* UNL     1       0.202  -3.993  -2.075  0.00  0.00    -0.385 OA
ATOM     19  H2* UNL     1      -0.588  -3.602  -2.517  0.00  0.00    +0.210 HD
ENDBRANCH   5  18
BRANCH   3  20
ATOM     20  C5* UNL     1      -0.145  -4.816   2.494  0.00  0.00    +0.190 C 
BRANCH  20  21
ATOM     21  O5* UNL     1       1.140  -4.236   2.286  0.00  0.00    -0.392 OA
ATOM     22  H5* UNL     1       1.107  -3.339   2.666  0.00  0.00    +0.210 HD
ENDBRANCH  20  21
ENDBRANCH   3  20
TORSDOF 6
