REMARK  Name = 
REMARK  6 active torsions:
REMARK  status: ('A' for Active; 'I' for Inactive)
REMARK    1  A    between atoms: C_3  and  C_18
REMARK    2  A    between atoms: N_5  and  C1*_6
REMARK    3  A    between atoms: C2*_8  and  O2*_17
REMARK    4  A    between atoms: C3*_9  and  O3*_16
REMARK    5  A    between atoms: C4*_11  and  C5*_14
REMARK    6  A    between atoms: C5*_14  and  O5*_15
REMARK                            x       y       z     vdW  Elec       q    Type
REMARK                         _______ _______ _______ _____ _____    ______ ____
ROOT
ATOM      1  C1* UNL     1      -0.843  -2.528   0.091  0.00  0.00    +0.270 C 
ATOM      2  O4* UNL     1      -1.138  -2.973   1.433  0.00  0.00    -0.344 OA
ATOM      3  C4* UNL     1      -1.130  -4.431   1.380  0.00  0.00    +0.177 C 
ATOM      4  C3* UNL     1      -0.704  -4.841  -0.040  0.00  0.00    +0.178 C 
ATOM      5  C2* UNL     1       0.049  -3.614  -0.522  0.00  0.00    +0.196 C 
ENDROOT
BRANCH   1   7
ATOM      6  C   UNL     1      -1.104  -0.046   0.069  0.00  0.00    +0.223 A 
ATOM      7  N   UNL     1      -0.340  -1.171   0.111  0.00  0.00    -0.220 N 
ATOM      8  N   UNL     1       0.980  -0.868   0.080  0.00  0.00    -0.142 NA
ATOM      9  C   UNL     1       0.951   0.481   0.037  0.00  0.00    +0.236 A 
ATOM     10  N   UNL     1      -0.334   1.012   0.013  0.00  0.00    -0.211 NA
BRANCH   9  11
ATOM     11  C   UNL     1       2.141   1.356  -0.001  0.00  0.00    +0.281 C 
ATOM     12  N   UNL     1       1.841   2.692  -0.065  0.00  0.00    -0.323 N 
ATOM     13  H   UNL     1       2.584   3.370  -0.081  0.00  0.00    +0.145 HD
ATOM     14  H   UNL     1       0.871   2.991  -0.072  0.00  0.00    +0.145 HD
ATOM     15  O   UNL     1       3.307   0.972   0.024  0.00  0.00    -0.267 OA
ENDBRANCH   9  11
ENDBRANCH   1   7
BRANCH   4  16
ATOM     16  O3* UNL     1      -1.871  -5.026  -0.849  0.00  0.00    -0.386 OA
ATOM     17  H3* UNL     1      -1.606  -5.560  -1.622  0.00  0.00    +0.210 HD
ENDBRANCH   4  16
BRANCH   5  18
ATOM     18  O2* UNL     1       1.373  -3.681   0.014  0.00  0.00    -0.385 OA
ATOM     19  H2* UNL     1       1.673  -2.757   0.177  0.00  0.00    +0.210 HD
ENDBRANCH   5  18
BRANCH   3  20
ATOM     20  C5* UNL     1      -0.183  -4.957   2.463  0.00  0.00    +0.190 C 
BRANCH  20  21
ATOM     21  O5* UNL     1      -0.703  -4.646   3.757  0.00  0.00    -0.392 OA
ATOM     22  H5* UNL     1      -1.147  -3.781   3.680  0.00  0.00    +0.210 HD
ENDBRANCH  20  21
ENDBRANCH   3  20
TORSDOF 6
