REMARK  Name = 
REMARK  6 active torsions:
REMARK  status: ('A' for Active; 'I' for Inactive)
REMARK    1  A    between atoms: C_3  and  C_18
REMARK    2  A    between atoms: N_5  and  C1*_6
REMARK    3  A    between atoms: C2*_8  and  O2*_17
REMARK    4  A    between atoms: C3*_9  and  O3*_16
REMARK    5  A    between atoms: C4*_11  and  C5*_14
REMARK    6  A    between atoms: C5*_14  and  O5*_15
REMARK                            x       y       z     vdW  Elec       q    Type
REMARK                         _______ _______ _______ _____ _____    ______ ____
ROOT
ATOM      1  C1* UNL     1      -0.820  -2.479   0.079  0.00  0.00    +0.270 C 
ATOM      2  O4* UNL     1      -1.064  -2.941   1.427  0.00  0.00    -0.344 OA
ATOM      3  C4* UNL     1      -1.078  -4.391   1.380  0.00  0.00    +0.177 C 
ATOM      4  C3* UNL     1      -0.668  -4.814  -0.043  0.00  0.00    +0.178 C 
ATOM      5  C2* UNL     1       0.008  -3.568  -0.603  0.00  0.00    +0.196 C 
ENDROOT
BRANCH   1   7
ATOM      6  C   UNL     1       0.600  -0.617   1.025  0.00  0.00    +0.223 A 
ATOM      7  N   UNL     1      -0.223  -1.160   0.090  0.00  0.00    -0.220 N 
ATOM      8  N   UNL     1      -0.531  -0.261  -0.868  0.00  0.00    -0.142 NA
ATOM      9  C   UNL     1       0.134   0.833  -0.454  0.00  0.00    +0.236 A 
ATOM     10  N   UNL     1       0.850   0.636   0.722  0.00  0.00    -0.211 NA
BRANCH   9  11
ATOM     11  C   UNL     1       0.108   2.138  -1.149  0.00  0.00    +0.281 C 
ATOM     12  N   UNL     1       0.831   3.117  -0.518  0.00  0.00    -0.323 N 
ATOM     13  H   UNL     1       0.865   4.039  -0.922  0.00  0.00    +0.145 HD
ATOM     14  H   UNL     1       1.324   2.900   0.341  0.00  0.00    +0.145 HD
ATOM     15  O   UNL     1      -0.496   2.378  -2.190  0.00  0.00    -0.267 OA
ENDBRANCH   9  11
ENDBRANCH   1   7
BRANCH   4  16
ATOM     16  O3* UNL     1      -1.851  -5.103  -0.797  0.00  0.00    -0.386 OA
ATOM     17  H3* UNL     1      -1.572  -5.464  -1.659  0.00  0.00    +0.210 HD
ENDBRANCH   4  16
BRANCH   5  18
ATOM     18  O2* UNL     1       1.395  -3.563  -0.251  0.00  0.00    -0.385 OA
ATOM     19  H2* UNL     1       1.478  -3.795   0.702  0.00  0.00    +0.210 HD
ENDBRANCH   5  18
BRANCH   3  20
ATOM     20  C5* UNL     1      -0.133  -4.904   2.470  0.00  0.00    +0.190 C 
BRANCH  20  21
ATOM     21  O5* UNL     1       1.201  -4.443   2.237  0.00  0.00    -0.392 OA
ATOM     22  H5* UNL     1       1.676  -4.541   3.086  0.00  0.00    +0.210 HD
ENDBRANCH  20  21
ENDBRANCH   3  20
TORSDOF 6
