REMARK  Name = 
REMARK  5 active torsions:
REMARK  status: ('A' for Active; 'I' for Inactive)
REMARK    1  A    between atoms: C_1  and  C_2
REMARK    2  A    between atoms: N_4  and  C_10
REMARK    3  A    between atoms: C_14  and  O_21
REMARK    4  A    between atoms: C_16  and  C_19
REMARK    5  A    between atoms: C_19  and  O_20
REMARK                            x       y       z     vdW  Elec       q    Type
REMARK                         _______ _______ _______ _____ _____    ______ ____
ROOT
ATOM      1  C   UNL     1       5.441   2.830  -0.541  0.00  0.00    +0.260 C 
ATOM      2  O   UNL     1       6.628   2.894   0.283  0.00  0.00    -0.345 OA
ATOM      3  C   UNL     1       6.700   4.207   0.886  0.00  0.00    +0.178 C 
ATOM      4  C   UNL     1       5.642   5.071   0.195  0.00  0.00    +0.184 C 
ATOM      5  C   UNL     1       4.589   4.055  -0.198  0.00  0.00    +0.246 C 
ATOM      6  F   UNL     1       3.859   4.508  -1.242  0.00  0.00    -0.238 F 
ENDROOT
BRANCH   1  15
ATOM      7  C   UNL     1       8.724   3.580  -4.225  0.00  0.00    +0.051 C 
ATOM      8  C   UNL     1       7.429   3.066  -3.690  0.00  0.00    +0.030 A 
ATOM      9  C   UNL     1       6.559   2.290  -4.605  0.00  0.00    +0.257 A 
ATOM     10  O   UNL     1       6.915   1.996  -5.740  0.00  0.00    -0.267 OA
ATOM     11  N   UNL     1       5.350   1.915  -4.095  0.00  0.00    -0.275 N 
ATOM     12  H   UNL     1       4.751   1.375  -4.701  0.00  0.00    +0.173 HD
ATOM     13  C   UNL     1       4.950   2.034  -2.791  0.00  0.00    +0.331 A 
ATOM     14  O   UNL     1       3.892   1.534  -2.416  0.00  0.00    -0.246 OA
ATOM     15  N   UNL     1       5.828   2.710  -1.950  0.00  0.00    -0.271 N 
ATOM     16  C   UNL     1       7.014   3.237  -2.430  0.00  0.00    +0.102 A 
ENDBRANCH   1  15
BRANCH   4  17
ATOM     17  O   UNL     1       5.191   6.161   0.985  0.00  0.00    -0.386 OA
ATOM     18  H   UNL     1       4.323   5.938   1.367  0.00  0.00    +0.210 HD
ENDBRANCH   4  17
BRANCH   3  19
ATOM     19  C   UNL     1       6.543   4.059   2.402  0.00  0.00    +0.190 C 
BRANCH  19  20
ATOM     20  O   UNL     1       5.281   3.481   2.730  0.00  0.00    -0.392 OA
ATOM     21  H   UNL     1       5.387   2.517   2.627  0.00  0.00    +0.210 HD
ENDBRANCH  19  20
ENDBRANCH   3  19
TORSDOF 4
