REMARK  Name = 
REMARK  5 active torsions:
REMARK  status: ('A' for Active; 'I' for Inactive)
REMARK    1  A    between atoms: C_1  and  C_2
REMARK    2  A    between atoms: N_4  and  C_10
REMARK    3  A    between atoms: C_14  and  O_21
REMARK    4  A    between atoms: C_16  and  C_19
REMARK    5  A    between atoms: C_19  and  O_20
REMARK                            x       y       z     vdW  Elec       q    Type
REMARK                         _______ _______ _______ _____ _____    ______ ____
ROOT
ATOM      1  C   UNL     1       5.421   2.710  -0.575  0.00  0.00    +0.260 C 
ATOM      2  O   UNL     1       6.563   2.712   0.314  0.00  0.00    -0.345 OA
ATOM      3  C   UNL     1       6.698   4.036   0.886  0.00  0.00    +0.178 C 
ATOM      4  C   UNL     1       5.720   4.944   0.137  0.00  0.00    +0.184 C 
ATOM      5  C   UNL     1       4.627   3.979  -0.277  0.00  0.00    +0.246 C 
ATOM      6  F   UNL     1       3.955   4.457  -1.352  0.00  0.00    -0.238 F 
ENDROOT
BRANCH   1  15
ATOM      7  C   UNL     1       8.938   3.252  -4.078  0.00  0.00    +0.051 C 
ATOM      8  C   UNL     1       7.587   2.812  -3.615  0.00  0.00    +0.030 A 
ATOM      9  C   UNL     1       6.721   2.089  -4.576  0.00  0.00    +0.257 A 
ATOM     10  O   UNL     1       7.121   1.753  -5.685  0.00  0.00    -0.267 OA
ATOM     11  N   UNL     1       5.459   1.810  -4.136  0.00  0.00    -0.275 N 
ATOM     12  H   UNL     1       4.859   1.309  -4.773  0.00  0.00    +0.173 HD
ATOM     13  C   UNL     1       5.000   1.952  -2.852  0.00  0.00    +0.331 A 
ATOM     14  O   UNL     1       3.893   1.522  -2.537  0.00  0.00    -0.246 OA
ATOM     15  N   UNL     1       5.877   2.563  -1.964  0.00  0.00    -0.271 N 
ATOM     16  C   UNL     1       7.118   3.011  -2.378  0.00  0.00    +0.102 A 
ENDBRANCH   1  15
BRANCH   4  17
ATOM     17  O   UNL     1       5.298   6.076   0.886  0.00  0.00    -0.386 OA
ATOM     18  H   UNL     1       4.431   5.883   1.289  0.00  0.00    +0.210 HD
ENDBRANCH   4  17
BRANCH   3  19
ATOM     19  C   UNL     1       6.487   3.941   2.398  0.00  0.00    +0.190 C 
BRANCH  19  20
ATOM     20  O   UNL     1       5.166   3.495   2.700  0.00  0.00    -0.392 OA
ATOM     21  H   UNL     1       5.181   2.524   2.616  0.00  0.00    +0.210 HD
ENDBRANCH  19  20
ENDBRANCH   3  19
TORSDOF 4
