REMARK  Name = 
REMARK  3 active torsions:
REMARK  status: ('A' for Active; 'I' for Inactive)
REMARK    1  A    between atoms: N_16  and  N_19
REMARK    2  A    between atoms: C_20  and  C_22
REMARK    3  A    between atoms: C_25  and  C_28
REMARK                            x       y       z     vdW  Elec       q    Type
REMARK                         _______ _______ _______ _____ _____    ______ ____
ROOT
ATOM      1  C   UNL     1       0.014  -0.274   0.673  0.00  0.00    +0.009 C 
ATOM      2  C   UNL     1      -0.653  -1.656   0.644  0.00  0.00    +0.001 C 
ATOM      3  C   UNL     1      -0.768  -2.849  -0.345  0.00  0.00    +0.027 C 
ATOM      4  C   UNL     1      -0.025  -2.697  -1.684  0.00  0.00    +0.097 C 
ATOM      5  C   UNL     1       1.447  -2.809  -1.550  0.00  0.00    +0.243 C 
ATOM      6  N   UNL     1       1.917  -1.527  -1.505  0.00  0.00    -0.155 N 
ATOM      7  C   UNL     1       1.045  -0.599  -2.040  0.00  0.00    +0.243 C 
ATOM      8  O   UNL     1       1.301   0.568  -2.294  0.00  0.00    -0.273 OA
ATOM      9  O   UNL     1       2.079  -3.857  -1.552  0.00  0.00    -0.273 OA
ATOM     10  C   UNL     1      -0.294  -1.282  -2.246  0.00  0.00    +0.097 C 
ATOM     11  C   UNL     1      -1.536  -0.676  -1.504  0.00  0.00    +0.027 C 
ATOM     12  C   UNL     1      -2.610  -1.785  -1.502  0.00  0.00    -0.026 C 
ATOM     13  C   UNL     1      -2.228  -2.895  -0.833  0.00  0.00    -0.026 C 
ATOM     14  C   UNL     1      -1.291  -0.425  -0.008  0.00  0.00    +0.001 C 
ENDROOT
BRANCH   6  15
ATOM     15  N   UNL     1       3.141  -1.204  -0.909  0.00  0.00    -0.221 N 
ATOM     16  H   UNL     1       3.475  -0.268  -1.126  0.00  0.00    +0.174 HD
ATOM     17  C   UNL     1       3.385  -1.733   0.360  0.00  0.00    +0.261 C 
ATOM     18  O   UNL     1       2.636  -2.502   0.949  0.00  0.00    -0.269 OA
BRANCH  17  19
ATOM     19  C   UNL     1       4.626  -1.272   1.046  0.00  0.00    +0.038 A 
ATOM     20  C   UNL     1       5.670  -0.658   0.349  0.00  0.00    +0.013 A 
ATOM     21  C   UNL     1       6.791  -0.187   1.044  0.00  0.00    +0.013 A 
ATOM     22  C   UNL     1       6.889  -0.347   2.435  0.00  0.00    +0.055 A 
ATOM     23  C   UNL     1       5.867  -1.017   3.120  0.00  0.00    +0.013 A 
ATOM     24  C   UNL     1       4.745  -1.479   2.428  0.00  0.00    +0.013 A 
BRANCH  22  25
ATOM     25  C   UNL     1       8.084   0.220   3.169  0.00  0.00    +0.417 C 
ATOM     26  F   UNL     1       8.204   1.565   2.988  0.00  0.00    -0.166 F 
ATOM     27  F   UNL     1       9.261  -0.319   2.747  0.00  0.00    -0.166 F 
ATOM     28  F   UNL     1       8.043   0.028   4.516  0.00  0.00    -0.166 F 
ENDBRANCH  22  25
ENDBRANCH  17  19
ENDBRANCH   6  15
TORSDOF 3
