REMARK  Name = 
REMARK  10 active torsions:
REMARK  status: ('A' for Active; 'I' for Inactive)
REMARK    1  A    between atoms: C_1  and  C_2
REMARK    2  A    between atoms: C_2  and  C_3
REMARK    3  A    between atoms: C_2  and  C_4
REMARK    4  A    between atoms: C_4  and  C_6
REMARK    5  A    between atoms: C_4  and  N_8
REMARK    6  A    between atoms: C_6  and  O_7
REMARK    7  A    between atoms: C_10  and  C_28
REMARK    8  A    between atoms: C_17  and  C_19
REMARK    9  A    between atoms: C_19  and  C_20
REMARK   10  A    between atoms: C_28  and  O_30
REMARK                            x       y       z     vdW  Elec       q    Type
REMARK                         _______ _______ _______ _____ _____    ______ ____
ROOT
ATOM      1  N   UNL     1       4.452   1.482  -0.296  0.00  0.00    -0.340 N 
ATOM      2  C   UNL     1       5.182   0.260  -0.301  0.00  0.00    +0.053 A 
ATOM      3  C   UNL     1       4.579  -1.000  -0.417  0.00  0.00    +0.027 A 
ATOM      4  C   UNL     1       5.328  -2.174  -0.485  0.00  0.00    +0.006 A 
ATOM      5  C   UNL     1       6.715  -2.154  -0.368  0.00  0.00    -0.042 A 
ATOM      6  C   UNL     1       7.354  -0.915  -0.245  0.00  0.00    +0.017 A 
ATOM      7  C   UNL     1       6.596   0.275  -0.243  0.00  0.00    +0.046 A 
ATOM      8  C   UNL     1       7.309   1.579  -0.247  0.00  0.00    +0.203 A 
ATOM      9  O   UNL     1       8.533   1.654  -0.155  0.00  0.00    -0.286 OA
ATOM     10  C   UNL     1       6.509   2.807  -0.429  0.00  0.00    +0.122 A 
ATOM     11  C   UNL     1       5.173   2.668  -0.430  0.00  0.00    +0.105 A 
ENDROOT
BRANCH  10  12
ATOM     12  C   UNL     1       7.089   4.147  -0.665  0.00  0.00    +0.342 C 
ATOM     13  O   UNL     1       6.411   5.143  -0.875  0.00  0.00    -0.245 OA
BRANCH  12  14
ATOM     14  O   UNL     1       8.438   4.185  -0.665  0.00  0.00    -0.477 OA
ATOM     15  H   UNL     1       8.865   3.313  -0.477  0.00  0.00    +0.295 HD
ENDBRANCH  12  14
ENDBRANCH  10  12
BRANCH   1  16
ATOM     16  C   UNL     1       2.947   1.440  -0.444  0.00  0.00    +0.115 C 
BRANCH  16  18
ATOM     17  C   UNL     1       0.680   2.335   0.368  0.00  0.00    +0.009 C 
ATOM     18  C   UNL     1       2.210   2.442   0.498  0.00  0.00    +0.008 C 
ATOM     19  C   UNL     1       2.560   2.222   1.977  0.00  0.00    +0.009 C 
ENDBRANCH  16  18
BRANCH  16  20
ATOM     20  C   UNL     1       2.584   1.660  -1.937  0.00  0.00    +0.181 C 
BRANCH  20  21
ATOM     21  O   UNL     1       3.253   0.739  -2.799  0.00  0.00    -0.393 OA
ATOM     22  H   UNL     1       4.201   0.821  -2.600  0.00  0.00    +0.209 HD
ENDBRANCH  20  21
ENDBRANCH  16  20
ENDBRANCH   1  16
BRANCH   5  23
ATOM     23  C   UNL     1       7.459  -3.466  -0.370  0.00  0.00    +0.073 C 
BRANCH  23  24
ATOM     24  C   UNL     1       7.437  -4.181   0.960  0.00  0.00    -0.006 A 
ATOM     25  C   UNL     1       8.477  -3.995   1.881  0.00  0.00    +0.007 A 
ATOM     26  C   UNL     1       8.502  -4.714   3.078  0.00  0.00    +0.002 A 
ATOM     27  C   UNL     1       7.485  -5.623   3.375  0.00  0.00    +0.023 A 
ATOM     28  C   UNL     1       6.423  -5.785   2.486  0.00  0.00    +0.076 A 
ATOM     29 CL   UNL     1       5.175  -6.912   2.860  0.00  0.00    -0.081 Cl
ATOM     30  C   UNL     1       6.395  -5.057   1.296  0.00  0.00    +0.145 A 
ATOM     31  F   UNL     1       5.365  -5.212   0.448  0.00  0.00    -0.204 F 
ENDBRANCH  23  24
ENDBRANCH   5  23
TORSDOF 8
