REMARK  Name = 
REMARK  16 active torsions:
REMARK  status: ('A' for Active; 'I' for Inactive)
REMARK    1  A    between atoms: C_1  and  C_2
REMARK    2  A    between atoms: C_2  and  C_4
REMARK    3  A    between atoms: C_2  and  N_10
REMARK    4  A    between atoms: C_4  and  O_6
REMARK    5  A    between atoms: O_6  and  C_7
REMARK    6  A    between atoms: C_7  and  C_8
REMARK    7  A    between atoms: C_7  and  C_9
REMARK    8  A    between atoms: N_10  and  P_11
REMARK    9  A    between atoms: P_11  and  O_13
REMARK   10  A    between atoms: P_11  and  O_34
REMARK   11  A    between atoms: O_13  and  C_14
REMARK   12  A    between atoms: C_14  and  C_15
REMARK   13  A    between atoms: C_17  and  O_33
REMARK   14  A    between atoms: C_19  and  C_31
REMARK   15  A    between atoms: C_20  and  N_23
REMARK   16  A    between atoms: O_34  and  C_35
REMARK                            x       y       z     vdW  Elec       q    Type
REMARK                         _______ _______ _______ _____ _____    ______ ____
ROOT
ATOM      1  O   UNL     1       2.010  -0.165  -4.471  0.00  0.00    -0.284 OA
ENDROOT
BRANCH   1   2
ATOM      2  P   UNL     1       1.942  -1.083  -5.857  0.00  0.00    +0.462 P 
ATOM      3  O   UNL     1       2.347  -2.520  -5.507  0.00  0.00    -0.228 OA
BRANCH   2   4
ATOM      4  N   UNL     1       3.649  -0.721  -6.212  0.00  0.00    -0.199 NA
ATOM      5  H   UNL     1       4.284  -0.746  -5.424  0.00  0.00    +0.135 HD
BRANCH   4   7
ATOM      6  C   UNL     1       3.473   1.656  -6.814  0.00  0.00    +0.036 C 
ATOM      7  C   UNL     1       3.950   0.274  -7.241  0.00  0.00    +0.171 C 
BRANCH   7   8
ATOM      8  C   UNL     1       5.457   0.282  -7.600  0.00  0.00    +0.325 C 
ATOM      9  O   UNL     1       6.289  -0.544  -7.238  0.00  0.00    -0.249 OA
BRANCH   8  10
ATOM     10  O   UNL     1       5.719   1.315  -8.465  0.00  0.00    -0.461 OA
BRANCH  10  11
ATOM     11  C   UNL     1       7.058   1.424  -8.996  0.00  0.00    +0.170 C 
ATOM     12  C   UNL     1       7.340   2.903  -9.246  0.00  0.00    +0.052 C 
ATOM     13  C   UNL     1       7.132   0.652 -10.310  0.00  0.00    +0.052 C 
ENDBRANCH  10  11
ENDBRANCH   8  10
ENDBRANCH   7   8
ENDBRANCH   4   7
ENDBRANCH   2   4
BRANCH   2  14
ATOM     14  O   UNL     1       0.284  -1.435  -5.512  0.00  0.00    -0.413 OA
BRANCH  14  15
ATOM     15  C   UNL     1      -0.580  -1.258  -6.563  0.00  0.00    +0.131 A 
ATOM     16  C   UNL     1      -1.853  -0.776  -6.271  0.00  0.00    +0.046 A 
ATOM     17  C   UNL     1      -2.752  -0.525  -7.308  0.00  0.00    +0.004 A 
ATOM     18  C   UNL     1      -2.377  -0.762  -8.631  0.00  0.00    +0.000 A 
ATOM     19  C   UNL     1      -1.108  -1.275  -8.916  0.00  0.00    +0.004 A 
ATOM     20  C   UNL     1      -0.215  -1.537  -7.882  0.00  0.00    +0.046 A 
ENDBRANCH  14  15
ENDBRANCH   2  14
ENDBRANCH   1   2
BRANCH   1  21
ATOM     21  C   UNL     1       2.409  -0.798  -3.257  0.00  0.00    +0.206 C 
BRANCH  21  22
ATOM     22  C   UNL     1       2.532   0.173  -2.068  0.00  0.00    +0.178 C 
ATOM     23  O   UNL     1       3.455   1.210  -2.426  0.00  0.00    -0.347 OA
ATOM     24  C   UNL     1       2.886   2.499  -2.163  0.00  0.00    +0.249 C 
ATOM     25  C   UNL     1       1.355   2.283  -2.116  0.00  0.00    +0.179 C 
ATOM     26  C   UNL     1       0.579   2.403  -3.422  0.00  0.00    +0.054 C 
ATOM     27  F   UNL     1       0.785   3.174  -1.250  0.00  0.00    -0.235 F 
ATOM     28  C   UNL     1       1.263   0.860  -1.558  0.00  0.00    +0.186 C 
BRANCH  24  29
ATOM     29  N   UNL     1       3.443   3.479  -3.110  0.00  0.00    -0.256 N 
ATOM     30  C   UNL     1       4.757   3.384  -3.529  0.00  0.00    +0.310 C 
ATOM     31  O   UNL     1       5.535   2.458  -3.326  0.00  0.00    -0.252 OA
ATOM     32  N   UNL     1       5.227   4.461  -4.246  0.00  0.00    -0.240 N 
ATOM     33  H   UNL     1       6.166   4.359  -4.602  0.00  0.00    +0.159 HD
ATOM     34  C   UNL     1       4.780   5.749  -4.131  0.00  0.00    +0.222 C 
ATOM     35  O   UNL     1       5.414   6.695  -4.595  0.00  0.00    -0.275 OA
ATOM     36  C   UNL     1       3.551   5.934  -3.298  0.00  0.00    +0.115 C 
ATOM     37  C   UNL     1       2.699   4.693  -3.417  0.00  0.00    +0.121 C 
ENDBRANCH  24  29
BRANCH  28  38
ATOM     38  O   UNL     1       1.316   0.925  -0.118  0.00  0.00    -0.386 OA
ATOM     39  H   UNL     1       1.116   0.042   0.238  0.00  0.00    +0.210 HD
ENDBRANCH  28  38
ENDBRANCH  21  22
ENDBRANCH   1  21
TORSDOF 12
