REMARK  Name = 
REMARK  11 active torsions:
REMARK  status: ('A' for Active; 'I' for Inactive)
REMARK    1  A    between atoms: C_1  and  C_2
REMARK    2  A    between atoms: N_4  and  C_5
REMARK    3  A    between atoms: C_7  and  N_26
REMARK    4  A    between atoms: C_10  and  C_23
REMARK    5  A    between atoms: C_13  and  C_15
REMARK    6  A    between atoms: C_15  and  C_17
REMARK    7  A    between atoms: C_15  and  O_22
REMARK    8  A    between atoms: C_17  and  C_19
REMARK    9  A    between atoms: C_17  and  O_21
REMARK   10  A    between atoms: C_19  and  O_20
REMARK   11  A    between atoms: C_23  and  O_25
REMARK                            x       y       z     vdW  Elec       q    Type
REMARK                         _______ _______ _______ _____ _____    ______ ____
ROOT
ATOM      1  C   UNL     1       4.903  -0.256   1.226  0.00  0.00    +0.145 C 
ATOM      2  C   UNL     1       5.251   0.689   0.039  0.00  0.00    +0.174 C 
ATOM      3  O   UNL     1       4.693   0.189  -1.192  0.00  0.00    -0.357 OA
ATOM      4  C   UNL     1       5.214  -1.106  -1.528  0.00  0.00    +0.230 C 
ATOM      5  C   UNL     1       4.705  -2.110  -0.515  0.00  0.00    +0.089 C 
ATOM      6  C   UNL     1       5.206  -1.742   0.882  0.00  0.00    +0.214 C 
ENDROOT
BRANCH   6   7
ATOM      7  N   UNL     1       4.504  -2.607   1.840  0.00  0.00    -0.108 NA
ATOM      8  C   UNL     1       5.138  -3.447   2.564  0.00  0.00    +0.377 C 
ATOM      9  N   UNL     1       4.451  -4.253   3.403  0.00  0.00    -0.289 N 
ATOM     10  H   UNL     1       4.790  -5.208   3.383  0.00  0.00    +0.255 HD
ATOM     11  H   UNL     1       3.461  -4.224   3.179  0.00  0.00    +0.255 HD
ATOM     12  N   UNL     1       6.455  -3.721   2.647  0.00  0.00    -0.289 N 
ATOM     13  H   UNL     1       6.751  -3.928   3.594  0.00  0.00    +0.255 HD
ATOM     14  H   UNL     1       7.072  -3.034   2.228  0.00  0.00    +0.255 HD
ENDBRANCH   6   7
BRANCH   1  17
ATOM     15  C   UNL     1       7.266   0.689   4.086  0.00  0.00    +0.109 C 
ATOM     16  C   UNL     1       6.880   0.144   2.736  0.00  0.00    +0.210 C 
ATOM     17  N   UNL     1       5.530   0.182   2.486  0.00  0.00    -0.307 N 
ATOM     18  H   UNL     1       4.903   0.513   3.209  0.00  0.00    +0.149 HD
ATOM     19  O   UNL     1       7.708  -0.288   1.942  0.00  0.00    -0.276 OA
ENDBRANCH   1  17
BRANCH   4  20
ATOM     20  C   UNL     1       4.753  -1.492  -2.932  0.00  0.00    +0.334 C 
ATOM     21  O   UNL     1       5.094  -2.507  -3.519  0.00  0.00    -0.248 OA
BRANCH  20  22
ATOM     22  O   UNL     1       3.912  -0.577  -3.473  0.00  0.00    -0.479 OA
ATOM     23  H   UNL     1       3.768   0.134  -2.810  0.00  0.00    +0.295 HD
ENDBRANCH  20  22
ENDBRANCH   4  20
BRANCH   2  24
ATOM     24  C   UNL     1       4.716   2.123   0.295  0.00  0.00    +0.176 C 
BRANCH  24  25
ATOM     25  O   UNL     1       3.292   2.105   0.493  0.00  0.00    -0.387 OA
ATOM     26  H   UNL     1       2.993   3.034   0.421  0.00  0.00    +0.210 HD
ENDBRANCH  24  25
BRANCH  24  27
ATOM     27  C   UNL     1       5.056   3.160  -0.796  0.00  0.00    +0.171 C 
BRANCH  27  28
ATOM     28  O   UNL     1       4.526   4.435  -0.355  0.00  0.00    -0.387 OA
ATOM     29  H   UNL     1       5.063   4.722   0.406  0.00  0.00    +0.210 HD
ENDBRANCH  27  28
BRANCH  27  30
ATOM     30  C   UNL     1       4.445   2.891  -2.174  0.00  0.00    +0.189 C 
BRANCH  30  31
ATOM     31  O   UNL     1       4.766   3.960  -3.065  0.00  0.00    -0.392 OA
ATOM     32  H   UNL     1       4.444   4.770  -2.625  0.00  0.00    +0.210 HD
ENDBRANCH  30  31
ENDBRANCH  27  30
ENDBRANCH  24  27
ENDBRANCH   2  24
TORSDOF 10
