REMARK  Name = 
REMARK  11 active torsions:
REMARK  status: ('A' for Active; 'I' for Inactive)
REMARK    1  A    between atoms: C_1  and  C_2
REMARK    2  A    between atoms: N_4  and  C_5
REMARK    3  A    between atoms: C_7  and  N_26
REMARK    4  A    between atoms: C_10  and  C_23
REMARK    5  A    between atoms: C_13  and  C_15
REMARK    6  A    between atoms: C_15  and  C_17
REMARK    7  A    between atoms: C_15  and  O_22
REMARK    8  A    between atoms: C_17  and  C_19
REMARK    9  A    between atoms: C_17  and  O_21
REMARK   10  A    between atoms: C_19  and  O_20
REMARK   11  A    between atoms: C_23  and  O_25
REMARK                            x       y       z     vdW  Elec       q    Type
REMARK                         _______ _______ _______ _____ _____    ______ ____
ROOT
ATOM      1  C   UNL     1       4.766   0.810  -0.871  0.00  0.00    +0.145 C 
ATOM      2  C   UNL     1       4.950  -0.733  -0.696  0.00  0.00    +0.174 C 
ATOM      3  O   UNL     1       4.539  -1.166   0.617  0.00  0.00    -0.357 OA
ATOM      4  C   UNL     1       5.252  -0.515   1.669  0.00  0.00    +0.230 C 
ATOM      5  C   UNL     1       4.850   0.946   1.685  0.00  0.00    +0.089 C 
ATOM      6  C   UNL     1       5.287   1.592   0.377  0.00  0.00    +0.214 C 
ENDROOT
BRANCH   6   7
ATOM      7  N   UNL     1       4.766   2.962   0.299  0.00  0.00    -0.108 NA
ATOM      8  C   UNL     1       5.369   3.955   0.823  0.00  0.00    +0.377 C 
ATOM      9  N   UNL     1       4.841   5.192   0.712  0.00  0.00    -0.289 N 
ATOM     10  H   UNL     1       4.889   5.726   1.571  0.00  0.00    +0.255 HD
ATOM     11  H   UNL     1       3.882   5.138   0.379  0.00  0.00    +0.255 HD
ATOM     12  N   UNL     1       6.517   4.011   1.528  0.00  0.00    -0.289 N 
ATOM     13  H   UNL     1       7.059   4.847   1.336  0.00  0.00    +0.255 HD
ATOM     14  H   UNL     1       7.090   3.181   1.524  0.00  0.00    +0.255 HD
ENDBRANCH   6   7
BRANCH   1  17
ATOM     15  C   UNL     1       5.715   2.235  -4.278  0.00  0.00    +0.109 C 
ATOM     16  C   UNL     1       4.869   1.489  -3.279  0.00  0.00    +0.210 C 
ATOM     17  N   UNL     1       5.477   1.334  -2.059  0.00  0.00    -0.307 N 
ATOM     18  H   UNL     1       6.243   1.969  -1.873  0.00  0.00    +0.149 HD
ATOM     19  O   UNL     1       3.760   1.058  -3.569  0.00  0.00    -0.276 OA
ENDBRANCH   1  17
BRANCH   4  20
ATOM     20  C   UNL     1       4.887  -1.169   2.998  0.00  0.00    +0.334 C 
ATOM     21  O   UNL     1       5.589  -1.128   3.997  0.00  0.00    -0.248 OA
BRANCH  20  22
ATOM     22  O   UNL     1       3.679  -1.782   2.960  0.00  0.00    -0.479 OA
ATOM     23  H   UNL     1       3.317  -1.720   2.047  0.00  0.00    +0.295 HD
ENDBRANCH  20  22
ENDBRANCH   4  20
BRANCH   2  24
ATOM     24  C   UNL     1       4.146  -1.554  -1.738  0.00  0.00    +0.176 C 
BRANCH  24  25
ATOM     25  O   UNL     1       2.738  -1.340  -1.545  0.00  0.00    -0.387 OA
ATOM     26  H   UNL     1       2.301  -1.834  -2.267  0.00  0.00    +0.210 HD
ENDBRANCH  24  25
BRANCH  24  27
ATOM     27  C   UNL     1       4.410  -3.079  -1.728  0.00  0.00    +0.171 C 
BRANCH  27  28
ATOM     28  O   UNL     1       3.729  -3.645  -2.875  0.00  0.00    -0.387 OA
ATOM     29  H   UNL     1       4.384  -3.701  -3.595  0.00  0.00    +0.210 HD
ENDBRANCH  27  28
BRANCH  27  30
ATOM     30  C   UNL     1       3.874  -3.823  -0.498  0.00  0.00    +0.189 C 
BRANCH  30  31
ATOM     31  O   UNL     1       4.112  -5.228  -0.636  0.00  0.00    -0.392 OA
ATOM     32  H   UNL     1       3.483  -5.531  -1.317  0.00  0.00    +0.210 HD
ENDBRANCH  30  31
ENDBRANCH  27  30
ENDBRANCH  24  27
ENDBRANCH   2  24
TORSDOF 10
