REMARK  Name = 
REMARK  8 active torsions:
REMARK  status: ('A' for Active; 'I' for Inactive)
REMARK    1  A    between atoms: C_1  and  C_2
REMARK    2  A    between atoms: C_2  and  C_3
REMARK    3  A    between atoms: C_2  and  N_4
REMARK    4  A    between atoms: N_13  and  C1*_14
REMARK    5  A    between atoms: C2*_16  and  O2*_26
REMARK    6  A    between atoms: C3*_18  and  O3*_25
REMARK    7  A    between atoms: C4*_20  and  C5*_23
REMARK    8  A    between atoms: C5*_23  and  O5*_24
REMARK                            x       y       z     vdW  Elec       q    Type
REMARK                         _______ _______ _______ _____ _____    ______ ____
ROOT
ATOM      1  N   UNL     1       2.145  -4.817  -2.605  0.00  0.00    -0.312 N 
ATOM      2  H   UNL     1       2.068  -4.999  -1.599  0.00  0.00    +0.149 HD
ATOM      3  C   UNL     1       2.267  -3.522  -2.956  0.00  0.00    +0.199 A 
ATOM      4  N   UNL     1       3.322  -2.739  -2.540  0.00  0.00    -0.283 N 
ATOM      5  C   UNL     1       3.114  -1.468  -3.061  0.00  0.00    +0.074 A 
ATOM      6  C   UNL     1       1.937  -1.588  -3.793  0.00  0.00    +0.092 A 
ATOM      7  C   UNL     1       1.403  -0.476  -4.458  0.00  0.00    +0.051 A 
ATOM      8  C   UNL     1       2.089   0.739  -4.396  0.00  0.00    +0.061 A 
ATOM      9 CL   UNL     1       1.404   2.078  -5.250  0.00  0.00    -0.082 Cl
ATOM     10  C   UNL     1       3.284   0.843  -3.674  0.00  0.00    +0.061 A 
ATOM     11 CL   UNL     1       4.176   2.326  -3.587  0.00  0.00    -0.082 Cl
ATOM     12  C   UNL     1       3.819  -0.258  -2.982  0.00  0.00    +0.049 A 
ATOM     13  N   UNL     1       1.457  -2.859  -3.744  0.00  0.00    -0.214 NA
ENDROOT
BRANCH   4  14
ATOM     14  C1* UNL     1       4.498  -3.127  -1.776  0.00  0.00    +0.254 C 
ATOM     15  O4* UNL     1       4.230  -2.867  -0.386  0.00  0.00    -0.346 OA
ATOM     16  C4* UNL     1       4.706  -3.987   0.376  0.00  0.00    +0.177 C 
ATOM     17  C3* UNL     1       4.717  -5.203  -0.557  0.00  0.00    +0.178 C 
ATOM     18  C2* UNL     1       5.048  -4.565  -1.905  0.00  0.00    +0.195 C 
BRANCH  17  19
ATOM     19  O3* UNL     1       3.457  -5.876  -0.566  0.00  0.00    -0.386 OA
ATOM     20  H3* UNL     1       3.499  -6.531  -1.290  0.00  0.00    +0.210 HD
ENDBRANCH  17  19
BRANCH  18  21
ATOM     21  O2* UNL     1       6.484  -4.551  -2.030  0.00  0.00    -0.385 OA
ATOM     22  H2* UNL     1       6.708  -4.241  -2.925  0.00  0.00    +0.210 HD
ENDBRANCH  18  21
BRANCH  16  23
ATOM     23  C5* UNL     1       3.847  -4.138   1.628  0.00  0.00    +0.190 C 
BRANCH  23  24
ATOM     24  O5* UNL     1       4.185  -5.299   2.373  0.00  0.00    -0.392 OA
ATOM     25  H5* UNL     1       3.744  -6.045   1.924  0.00  0.00    +0.210 HD
ENDBRANCH  23  24
ENDBRANCH  16  23
ENDBRANCH   4  14
BRANCH   1  27
ATOM     26  C   UNL     1       2.284  -6.382  -4.431  0.00  0.00    +0.027 C 
ATOM     27  C   UNL     1       1.333  -5.695  -3.448  0.00  0.00    +0.067 C 
ATOM     28  C   UNL     1       0.588  -6.717  -2.593  0.00  0.00    +0.027 C 
ENDBRANCH   1  27
TORSDOF 6
