REMARK  Name = 
REMARK  8 active torsions:
REMARK  status: ('A' for Active; 'I' for Inactive)
REMARK    1  A    between atoms: C_1  and  C_2
REMARK    2  A    between atoms: C_2  and  C_3
REMARK    3  A    between atoms: C_2  and  N_4
REMARK    4  A    between atoms: N_13  and  C1*_14
REMARK    5  A    between atoms: C2*_16  and  O2*_26
REMARK    6  A    between atoms: C3*_18  and  O3*_25
REMARK    7  A    between atoms: C4*_20  and  C5*_23
REMARK    8  A    between atoms: C5*_23  and  O5*_24
REMARK                            x       y       z     vdW  Elec       q    Type
REMARK                         _______ _______ _______ _____ _____    ______ ____
ROOT
ATOM      1  N   UNL     1       3.280  -2.741  -2.301  0.00  0.00    -0.312 N 
ATOM      2  H   UNL     1       3.962  -3.273  -1.787  0.00  0.00    +0.149 HD
ATOM      3  C   UNL     1       2.947  -1.467  -2.022  0.00  0.00    +0.199 A 
ATOM      4  N   UNL     1       3.806  -0.608  -1.345  0.00  0.00    -0.283 N 
ATOM      5  C   UNL     1       3.381   0.680  -1.632  0.00  0.00    +0.074 A 
ATOM      6  C   UNL     1       2.120   0.498  -2.196  0.00  0.00    +0.092 A 
ATOM      7  C   UNL     1       1.342   1.602  -2.575  0.00  0.00    +0.051 A 
ATOM      8  C   UNL     1       1.899   2.881  -2.473  0.00  0.00    +0.061 A 
ATOM      9 CL   UNL     1       0.955   4.206  -3.066  0.00  0.00    -0.082 Cl
ATOM     10  C   UNL     1       3.195   3.053  -1.972  0.00  0.00    +0.061 A 
ATOM     11 CL   UNL     1       3.961   4.604  -1.922  0.00  0.00    -0.082 Cl
ATOM     12  C   UNL     1       3.952   1.951  -1.516  0.00  0.00    +0.049 A 
ATOM     13  N   UNL     1       1.862  -0.828  -2.385  0.00  0.00    -0.214 NA
ENDROOT
BRANCH   4  14
ATOM     14  C1* UNL     1       5.026  -1.047  -0.669  0.00  0.00    +0.254 C 
ATOM     15  O4* UNL     1       5.703   0.072  -0.089  0.00  0.00    -0.346 OA
ATOM     16  C4* UNL     1       6.185  -0.288   1.218  0.00  0.00    +0.177 C 
ATOM     17  C3* UNL     1       5.400  -1.510   1.703  0.00  0.00    +0.178 C 
ATOM     18  C2* UNL     1       4.795  -2.099   0.439  0.00  0.00    +0.195 C 
BRANCH  17  19
ATOM     19  O3* UNL     1       4.383  -1.214   2.649  0.00  0.00    -0.386 OA
ATOM     20  H3* UNL     1       3.929  -2.051   2.865  0.00  0.00    +0.210 HD
ENDBRANCH  17  19
BRANCH  18  21
ATOM     21  O2* UNL     1       5.448  -3.357   0.184  0.00  0.00    -0.385 OA
ATOM     22  H2* UNL     1       5.633  -3.471  -0.762  0.00  0.00    +0.210 HD
ENDBRANCH  18  21
BRANCH  16  23
ATOM     23  C5* UNL     1       6.180   0.973   2.082  0.00  0.00    +0.190 C 
BRANCH  23  24
ATOM     24  O5* UNL     1       4.954   1.691   1.971  0.00  0.00    -0.392 OA
ATOM     25  H5* UNL     1       4.780   1.779   1.020  0.00  0.00    +0.210 HD
ENDBRANCH  23  24
ENDBRANCH  16  23
ENDBRANCH   4  14
BRANCH   1  27
ATOM     26  C   UNL     1       1.163  -3.923  -2.740  0.00  0.00    +0.027 C 
ATOM     27  C   UNL     1       2.534  -3.534  -3.281  0.00  0.00    +0.067 C 
ATOM     28  C   UNL     1       2.528  -2.889  -4.664  0.00  0.00    +0.027 C 
ENDBRANCH   1  27
TORSDOF 6
