REMARK  Name = 
REMARK  13 active torsions:
REMARK  status: ('A' for Active; 'I' for Inactive)
REMARK    1  A    between atoms: C_1  and  C_2
REMARK    2  A    between atoms: C_2  and  O_4
REMARK    3  A    between atoms: O_4  and  N_5
REMARK    4  A    between atoms: N_5  and  C_6
REMARK    5  A    between atoms: C_7  and  N_21
REMARK    6  A    between atoms: C_9  and  C_18
REMARK    7  A    between atoms: C_11  and  C_12
REMARK    8  A    between atoms: C_12  and  C_13
REMARK    9  A    between atoms: C_12  and  O_17
REMARK   10  A    between atoms: C_13  and  C_14
REMARK   11  A    between atoms: C_13  and  O_16
REMARK   12  A    between atoms: C_14  and  O_15
REMARK   13  A    between atoms: C_18  and  O_20
REMARK                            x       y       z     vdW  Elec       q    Type
REMARK                         _______ _______ _______ _____ _____    ______ ____
ROOT
ATOM      1  C   UNL     1       4.969   1.433   1.855  0.00  0.00    +0.180 C 
ATOM      2  C   UNL     1       4.364   2.857   2.039  0.00  0.00    +0.228 C 
ATOM      3  O   UNL     1       5.256   3.975   2.036  0.00  0.00    -0.478 OA
ATOM      4  C   UNL     1       6.564   3.824   1.676  0.00  0.00    +0.204 C 
ATOM      5  C   UNL     1       7.185   2.648   1.547  0.00  0.00    +0.071 C 
ATOM      6  C   UNL     1       6.522   1.348   1.816  0.00  0.00    +0.238 C 
ENDROOT
BRANCH   6   7
ATOM      7  N   UNL     1       6.936   0.358   0.811  0.00  0.00    -0.104 NA
ATOM      8  C   UNL     1       8.001  -0.334   0.956  0.00  0.00    +0.377 C 
ATOM      9  N   UNL     1       8.337  -1.213  -0.010  0.00  0.00    -0.289 N 
ATOM     10  H   UNL     1       8.748  -2.087   0.281  0.00  0.00    +0.255 HD
ATOM     11  H   UNL     1       7.597  -1.335  -0.693  0.00  0.00    +0.255 HD
ATOM     12  N   UNL     1       8.923  -0.298   1.936  0.00  0.00    -0.289 N 
ATOM     13  H   UNL     1       9.471  -1.126   2.114  0.00  0.00    +0.255 HD
ATOM     14  H   UNL     1       8.755   0.272   2.751  0.00  0.00    +0.255 HD
ENDBRANCH   6   7
BRANCH   1  15
ATOM     15  N   UNL     1       4.271   0.695   0.761  0.00  0.00    -0.141 NA
ATOM     16  H   UNL     1       4.792  -0.179   0.638  0.00  0.00    +0.168 HD
BRANCH  15  17
ATOM     17  O   UNL     1       4.656   1.359  -0.494  0.00  0.00    -0.369 OA
BRANCH  17  19
ATOM     18  C   UNL     1       4.036   2.221  -2.575  0.00  0.00    +0.138 C 
ATOM     19  C   UNL     1       3.563   1.718  -1.248  0.00  0.00    +0.323 C 
ATOM     20  O   UNL     1       2.386   1.676  -0.902  0.00  0.00    -0.249 OA
ENDBRANCH  17  19
ENDBRANCH  15  17
ENDBRANCH   1  15
BRANCH   4  21
ATOM     21  C   UNL     1       7.356   5.081   1.491  0.00  0.00    +0.372 C 
ATOM     22  O   UNL     1       8.554   5.140   1.277  0.00  0.00    -0.242 OA
BRANCH  21  23
ATOM     23  O   UNL     1       6.560   6.168   1.629  0.00  0.00    -0.475 OA
ATOM     24  H   UNL     1       5.628   5.902   1.793  0.00  0.00    +0.296 HD
ENDBRANCH  21  23
ENDBRANCH   4  21
BRANCH   2  25
ATOM     25  C   UNL     1       3.486   2.934   3.321  0.00  0.00    +0.187 C 
BRANCH  25  26
ATOM     26  O   UNL     1       2.628   1.798   3.448  0.00  0.00    -0.385 OA
ATOM     27  H   UNL     1       2.247   1.598   2.569  0.00  0.00    +0.210 HD
ENDBRANCH  25  26
BRANCH  25  28
ATOM     28  C   UNL     1       2.633   4.222   3.405  0.00  0.00    +0.172 C 
BRANCH  28  29
ATOM     29  O   UNL     1       3.433   5.416   3.361  0.00  0.00    -0.387 OA
ATOM     30  H   UNL     1       4.053   5.382   4.113  0.00  0.00    +0.210 HD
ENDBRANCH  28  29
BRANCH  28  31
ATOM     31  C   UNL     1       1.799   4.258   4.697  0.00  0.00    +0.189 C 
BRANCH  31  32
ATOM     32  O   UNL     1       1.014   5.450   4.738  0.00  0.00    -0.392 OA
ATOM     33  H   UNL     1       1.559   6.154   4.338  0.00  0.00    +0.210 HD
ENDBRANCH  31  32
ENDBRANCH  28  31
ENDBRANCH  25  28
ENDBRANCH   2  25
TORSDOF 12
