REMARK  Name = 
REMARK  16 active torsions:
REMARK  status: ('A' for Active; 'I' for Inactive)
REMARK    1  A    between atoms: C_1  and  C_2
REMARK    2  A    between atoms: C_2  and  C_4
REMARK    3  A    between atoms: C_2  and  N_10
REMARK    4  A    between atoms: C_4  and  O_6
REMARK    5  A    between atoms: O_6  and  C_7
REMARK    6  A    between atoms: C_7  and  C_8
REMARK    7  A    between atoms: C_7  and  C_9
REMARK    8  A    between atoms: N_10  and  P_11
REMARK    9  A    between atoms: P_11  and  O_13
REMARK   10  A    between atoms: P_11  and  O_34
REMARK   11  A    between atoms: O_13  and  C_14
REMARK   12  A    between atoms: C_14  and  C_15
REMARK   13  A    between atoms: C_17  and  O_33
REMARK   14  A    between atoms: C_19  and  C_31
REMARK   15  A    between atoms: C_20  and  N_23
REMARK   16  A    between atoms: O_34  and  C_35
REMARK                            x       y       z     vdW  Elec       q    Type
REMARK                         _______ _______ _______ _____ _____    ______ ____
ROOT
ATOM      1  O   UNL     1       2.112  -2.757   5.192  0.00  0.00    -0.284 OA
ENDROOT
BRANCH   1   2
ATOM      2  P   UNL     1       2.042  -1.823   6.565  0.00  0.00    +0.462 P 
ATOM      3  O   UNL     1       2.661  -0.459   6.245  0.00  0.00    -0.228 OA
BRANCH   2   4
ATOM      4  N   UNL     1       3.674  -2.442   6.915  0.00  0.00    -0.199 NA
ATOM      5  H   UNL     1       3.967  -3.016   6.133  0.00  0.00    +0.135 HD
BRANCH   4   7
ATOM      6  C   UNL     1       2.741  -4.485   8.007  0.00  0.00    +0.036 C 
ATOM      7  C   UNL     1       3.643  -3.259   8.155  0.00  0.00    +0.171 C 
BRANCH   7   8
ATOM      8  C   UNL     1       5.044  -3.754   8.530  0.00  0.00    +0.325 C 
ATOM      9  O   UNL     1       5.907  -4.071   7.728  0.00  0.00    -0.249 OA
BRANCH   8  10
ATOM     10  O   UNL     1       5.137  -3.884   9.891  0.00  0.00    -0.461 OA
BRANCH  10  11
ATOM     11  C   UNL     1       6.393  -4.383  10.402  0.00  0.00    +0.170 C 
ATOM     12  C   UNL     1       6.156  -4.910  11.817  0.00  0.00    +0.052 C 
ATOM     13  C   UNL     1       7.419  -3.257  10.434  0.00  0.00    +0.052 C 
ENDBRANCH  10  11
ENDBRANCH   8  10
ENDBRANCH   7   8
ENDBRANCH   4   7
ENDBRANCH   2   4
BRANCH   2  14
ATOM     14  O   UNL     1       0.456  -1.222   6.224  0.00  0.00    -0.413 OA
BRANCH  14  15
ATOM     15  C   UNL     1      -0.437  -1.592   5.241  0.00  0.00    +0.131 A 
ATOM     16  C   UNL     1      -1.153  -0.541   4.658  0.00  0.00    +0.046 A 
ATOM     17  C   UNL     1      -1.818  -0.724   3.442  0.00  0.00    +0.004 A 
ATOM     18  C   UNL     1      -1.776  -1.959   2.806  0.00  0.00    +0.000 A 
ATOM     19  C   UNL     1      -1.190  -3.041   3.457  0.00  0.00    +0.004 A 
ATOM     20  C   UNL     1      -0.568  -2.870   4.705  0.00  0.00    +0.046 A 
ENDBRANCH  14  15
ENDBRANCH   2  14
ENDBRANCH   1   2
BRANCH   1  21
ATOM     21  C   UNL     1       2.270  -2.108   3.933  0.00  0.00    +0.206 C 
BRANCH  21  22
ATOM     22  C   UNL     1       2.128  -3.128   2.794  0.00  0.00    +0.179 C 
ATOM     23  O   UNL     1       1.893  -2.436   1.553  0.00  0.00    -0.345 OA
ATOM     24  C   UNL     1       3.150  -2.344   0.847  0.00  0.00    +0.263 C 
ATOM     25  C   UNL     1       4.207  -3.156   1.639  0.00  0.00    +0.182 C 
ATOM     26  C   UNL     1       5.183  -2.262   2.399  0.00  0.00    +0.055 C 
ATOM     27  F   UNL     1       4.959  -3.956   0.834  0.00  0.00    -0.235 F 
ATOM     28  C   UNL     1       3.338  -4.017   2.551  0.00  0.00    +0.187 C 
BRANCH  24  29
ATOM     29  N   UNL     1       2.992  -2.773  -0.542  0.00  0.00    -0.271 N 
ATOM     30  C   UNL     1       3.950  -2.324  -1.427  0.00  0.00    +0.331 A 
ATOM     31  O   UNL     1       4.831  -1.513  -1.134  0.00  0.00    -0.246 OA
ATOM     32  N   UNL     1       3.883  -2.850  -2.695  0.00  0.00    -0.275 N 
ATOM     33  H   UNL     1       4.612  -2.573  -3.333  0.00  0.00    +0.173 HD
ATOM     34  C   UNL     1       3.044  -3.845  -3.101  0.00  0.00    +0.254 A 
ATOM     35  O   UNL     1       3.118  -4.376  -4.202  0.00  0.00    -0.268 OA
ATOM     36  C   UNL     1       2.031  -4.267  -2.126  0.00  0.00    +0.088 A 
ATOM     37  C   UNL     1       2.056  -3.733  -0.898  0.00  0.00    +0.098 A 
ENDBRANCH  24  29
BRANCH  28  38
ATOM     38  O   UNL     1       2.909  -5.197   1.837  0.00  0.00    -0.386 OA
ATOM     39  H   UNL     1       2.263  -5.679   2.380  0.00  0.00    +0.210 HD
ENDBRANCH  28  38
ENDBRANCH  21  22
ENDBRANCH   1  21
TORSDOF 12
