REMARK  Name = 
REMARK  13 active torsions:
REMARK  status: ('A' for Active; 'I' for Inactive)
REMARK    1  A    between atoms: C_1  and  C_2
REMARK    2  A    between atoms: C_2  and  O_4
REMARK    3  A    between atoms: O_4  and  N_5
REMARK    4  A    between atoms: N_5  and  C_6
REMARK    5  A    between atoms: C_7  and  N_21
REMARK    6  A    between atoms: C_9  and  C_18
REMARK    7  A    between atoms: C_11  and  C_12
REMARK    8  A    between atoms: C_12  and  C_13
REMARK    9  A    between atoms: C_12  and  O_17
REMARK   10  A    between atoms: C_13  and  C_14
REMARK   11  A    between atoms: C_13  and  O_16
REMARK   12  A    between atoms: C_14  and  O_15
REMARK   13  A    between atoms: C_18  and  O_20
REMARK                            x       y       z     vdW  Elec       q    Type
REMARK                         _______ _______ _______ _____ _____    ______ ____
ROOT
ATOM      1  C   UNL     1       5.003   1.551  -1.895  0.00  0.00    +0.180 C 
ATOM      2  C   UNL     1       5.630   2.947  -1.559  0.00  0.00    +0.228 C 
ATOM      3  O   UNL     1       5.101   4.112  -2.208  0.00  0.00    -0.478 OA
ATOM      4  C   UNL     1       3.935   4.034  -2.920  0.00  0.00    +0.204 C 
ATOM      5  C   UNL     1       3.383   2.894  -3.331  0.00  0.00    +0.071 C 
ATOM      6  C   UNL     1       4.004   1.568  -3.091  0.00  0.00    +0.238 C 
ENDROOT
BRANCH   6   7
ATOM      7  N   UNL     1       2.932   0.589  -2.935  0.00  0.00    -0.104 NA
ATOM      8  C   UNL     1       2.554  -0.136  -3.918  0.00  0.00    +0.377 C 
ATOM      9  N   UNL     1       1.577  -1.048  -3.736  0.00  0.00    -0.289 N 
ATOM     10  H   UNL     1       1.779  -1.952  -4.141  0.00  0.00    +0.255 HD
ATOM     11  H   UNL     1       1.359  -1.127  -2.746  0.00  0.00    +0.255 HD
ATOM     12  N   UNL     1       2.973  -0.151  -5.203  0.00  0.00    -0.289 N 
ATOM     13  H   UNL     1       2.255  -0.471  -5.842  0.00  0.00    +0.255 HD
ATOM     14  H   UNL     1       3.350   0.734  -5.523  0.00  0.00    +0.255 HD
ENDBRANCH   6   7
BRANCH   1  15
ATOM     15  N   UNL     1       4.533   0.921  -0.621  0.00  0.00    -0.141 NA
ATOM     16  H   UNL     1       5.287   0.932   0.072  0.00  0.00    +0.168 HD
BRANCH  15  17
ATOM     17  O   UNL     1       4.432  -0.525  -0.912  0.00  0.00    -0.369 OA
BRANCH  17  19
ATOM     18  C   UNL     1       5.496  -2.622  -0.995  0.00  0.00    +0.138 C 
ATOM     19  C   UNL     1       5.575  -1.197  -0.542  0.00  0.00    +0.323 C 
ATOM     20  O   UNL     1       6.537  -0.682   0.018  0.00  0.00    -0.249 OA
ENDBRANCH  17  19
ENDBRANCH  15  17
ENDBRANCH   1  15
BRANCH   4  21
ATOM     21  C   UNL     1       3.299   5.323  -3.335  0.00  0.00    +0.372 C 
ATOM     22  O   UNL     1       2.331   5.432  -4.066  0.00  0.00    -0.242 OA
BRANCH  21  23
ATOM     23  O   UNL     1       3.978   6.376  -2.821  0.00  0.00    -0.475 OA
ATOM     24  H   UNL     1       4.721   6.067  -2.257  0.00  0.00    +0.296 HD
ENDBRANCH  21  23
ENDBRANCH   4  21
BRANCH   2  25
ATOM     25  C   UNL     1       7.175   2.931  -1.778  0.00  0.00    +0.187 C 
BRANCH  25  26
ATOM     26  O   UNL     1       7.789   1.748  -1.266  0.00  0.00    -0.385 OA
ATOM     27  H   UNL     1       7.497   1.580  -0.350  0.00  0.00    +0.210 HD
ENDBRANCH  25  26
BRANCH  25  28
ATOM     28  C   UNL     1       7.898   4.171  -1.202  0.00  0.00    +0.172 C 
BRANCH  28  29
ATOM     29  O   UNL     1       7.424   5.399  -1.777  0.00  0.00    -0.387 OA
ATOM     30  H   UNL     1       7.559   5.344  -2.741  0.00  0.00    +0.210 HD
ENDBRANCH  28  29
BRANCH  28  31
ATOM     31  C   UNL     1       9.417   4.093  -1.434  0.00  0.00    +0.189 C 
BRANCH  31  32
ATOM     32  O   UNL     1      10.053   5.245  -0.881  0.00  0.00    -0.392 OA
ATOM     33  H   UNL     1       9.454   5.998  -1.047  0.00  0.00    +0.210 HD
ENDBRANCH  31  32
ENDBRANCH  28  31
ENDBRANCH  25  28
ENDBRANCH   2  25
TORSDOF 12
