REMARK  Name = 
REMARK  18 active torsions:
REMARK  status: ('A' for Active; 'I' for Inactive)
REMARK    1  A    between atoms: C_1  and  C_2
REMARK    2  A    between atoms: C_2  and  C_41
REMARK    3  A    between atoms: C_7  and  C_27
REMARK    4  A    between atoms: C_11  and  C_13
REMARK    5  A    between atoms: C_13  and  C_15
REMARK    6  A    between atoms: C_13  and  N_19
REMARK    7  A    between atoms: C_15  and  C_16
REMARK    8  A    between atoms: C_15  and  C_17
REMARK    9  A    between atoms: C_15  and  C_18
REMARK   10  A    between atoms: N_22  and  C_23
REMARK   11  A    between atoms: C_23  and  C_24
REMARK   12  A    between atoms: C_23  and  C_25
REMARK   13  A    between atoms: C_23  and  C_26
REMARK   14  A    between atoms: N_29  and  C_30
REMARK   15  A    between atoms: C_30  and  C_31
REMARK   16  A    between atoms: C_30  and  C_36
REMARK   17  A    between atoms: C_31  and  C_32
REMARK   18  A    between atoms: C_36  and  C_38
REMARK                            x       y       z     vdW  Elec       q    Type
REMARK                         _______ _______ _______ _____ _____    ______ ____
ROOT
ATOM      1  C   UNL     1       0.673   0.221   0.688  0.00  0.00    +0.011 C 
ATOM      2  C   UNL     1       2.140   0.292   0.316  0.00  0.00    -0.025 C 
ATOM      3  C   UNL     1       2.331   0.662  -1.133  0.00  0.00    +0.011 C 
ATOM      4  C   UNL     1       3.012  -0.649   1.165  0.00  0.00    +0.030 C 
ATOM      5  C   UNL     1       4.382  -1.244   0.880  0.00  0.00    +0.166 C 
ATOM      6  N   UNL     1       5.293  -0.119   1.162  0.00  0.00    -0.288 N 
ATOM      7  C   UNL     1       6.508  -0.082   1.840  0.00  0.00    +0.237 C 
ATOM      8  O   UNL     1       6.998   1.033   2.073  0.00  0.00    -0.274 OA
ATOM      9  C   UNL     1       4.595   1.155   0.983  0.00  0.00    +0.113 C 
ATOM     10  C   UNL     1       3.158   0.837   1.300  0.00  0.00    +0.018 C 
ENDROOT
BRANCH   5  11
ATOM     11  C   UNL     1       4.360  -1.993  -0.501  0.00  0.00    +0.234 C 
ATOM     12  N   UNL     1       3.696  -3.216  -0.432  0.00  0.00    -0.304 N 
ATOM     13  H   UNL     1       3.624  -3.606   0.499  0.00  0.00    +0.149 HD
ATOM     14  O   UNL     1       4.815  -1.545  -1.550  0.00  0.00    -0.274 OA
BRANCH  12  15
ATOM     15  C   UNL     1       3.545  -4.157  -1.559  0.00  0.00    +0.149 C 
BRANCH  15  16
ATOM     16  C   UNL     1       2.478  -3.755  -2.595  0.00  0.00    +0.237 C 
ATOM     17  O   UNL     1       1.485  -3.070  -2.379  0.00  0.00    -0.285 OA
BRANCH  16  18
ATOM     18  C   UNL     1       2.617  -4.425  -3.961  0.00  0.00    +0.279 C 
ATOM     19  N   UNL     1       1.564  -4.267  -4.825  0.00  0.00    -0.323 N 
ATOM     20  H   UNL     1       1.602  -4.665  -5.758  0.00  0.00    +0.145 HD
ATOM     21  H   UNL     1       0.775  -3.685  -4.563  0.00  0.00    +0.145 HD
ATOM     22  O   UNL     1       3.592  -5.109  -4.246  0.00  0.00    -0.267 OA
ENDBRANCH  16  18
ENDBRANCH  15  16
BRANCH  15  23
ATOM     23  C   UNL     1       3.237  -5.587  -1.033  0.00  0.00    +0.034 C 
BRANCH  23  24
ATOM     24  C   UNL     1       1.895  -5.683  -0.301  0.00  0.00    -0.009 C 
ATOM     25  C   UNL     1       1.809  -5.171   1.170  0.00  0.00    +0.003 C 
ATOM     26  C   UNL     1       0.732  -6.254   1.386  0.00  0.00    +0.001 C 
ATOM     27  C   UNL     1       1.474  -7.064   0.295  0.00  0.00    +0.003 C 
ENDBRANCH  23  24
ENDBRANCH  15  23
ENDBRANCH  12  15
ENDBRANCH   5  11
BRANCH   7  28
ATOM     28  C   UNL     1       7.248  -1.360   2.419  0.00  0.00    +0.166 C 
BRANCH  28  29
ATOM     29  N   UNL     1       6.796  -1.689   3.795  0.00  0.00    -0.288 N 
ATOM     30  H   UNL     1       7.229  -1.191   4.563  0.00  0.00    +0.151 HD
ATOM     31  C   UNL     1       5.921  -2.701   4.062  0.00  0.00    +0.301 C 
ATOM     32  N   UNL     1       5.707  -2.915   5.400  0.00  0.00    -0.295 N 
ATOM     33  H   UNL     1       6.252  -2.390   6.069  0.00  0.00    +0.151 HD
ATOM     34  O   UNL     1       5.382  -3.354   3.178  0.00  0.00    -0.253 OA
BRANCH  32  35
ATOM     35  C   UNL     1       4.745  -3.918   5.917  0.00  0.00    +0.028 C 
ATOM     36  C   UNL     1       3.308  -3.533   5.522  0.00  0.00    +0.031 C 
ATOM     37  C   UNL     1       4.810  -3.965   7.458  0.00  0.00    +0.031 C 
ATOM     38  C   UNL     1       5.071  -5.334   5.403  0.00  0.00    +0.031 C 
ENDBRANCH  32  35
ENDBRANCH  28  29
BRANCH  28  39
ATOM     39  C   UNL     1       8.841  -1.196   2.408  0.00  0.00    -0.011 C 
ATOM     40  C   UNL     1       9.307  -1.049   0.945  0.00  0.00    +0.013 C 
ATOM     41  C   UNL     1       9.561  -2.446   2.982  0.00  0.00    +0.013 C 
ATOM     42  C   UNL     1       9.386  -0.008   3.243  0.00  0.00    +0.013 C 
ENDBRANCH  28  39
ENDBRANCH   7  28
TORSDOF 10
