REMARK  Name = 
REMARK  13 active torsions:
REMARK  status: ('A' for Active; 'I' for Inactive)
REMARK    1  A    between atoms: C_1  and  C_2
REMARK    2  A    between atoms: C_3  and  O_54
REMARK    3  A    between atoms: C_9  and  C_46
REMARK    4  A    between atoms: C_11  and  O_12
REMARK    5  A    between atoms: O_12  and  C_13
REMARK    6  A    between atoms: N_23  and  C_45
REMARK    7  A    between atoms: C_32  and  C_36
REMARK    8  A    between atoms: N_38  and  S_39
REMARK    9  A    between atoms: S_39  and  C_42
REMARK   10  A    between atoms: C_48  and  C_51
REMARK   11  A    between atoms: C_51  and  C_52
REMARK   12  A    between atoms: C_51  and  C_53
REMARK   13  A    between atoms: O_54  and  C_55
REMARK                            x       y       z     vdW  Elec       q    Type
REMARK                         _______ _______ _______ _____ _____    ______ ____
ROOT
ATOM      1  C   UNL     1      -0.000  -0.000  -0.000  0.00  0.00    +0.175 C 
ATOM      2  C   UNL     1      -0.000  -0.000  -0.000  0.00  0.00    +0.058 C 
ATOM      3  C   UNL     1      -0.000  -0.000  -0.000  0.00  0.00    +0.091 C 
ATOM      4  C   UNL     1      -0.000  -0.000  -0.000  0.00  0.00    +0.219 C 
ATOM      5  O   UNL     1      -0.000  -0.000  -0.000  0.00  0.00    -0.275 OA
ATOM      6  N   UNL     1      -0.000  -0.000  -0.000  0.00  0.00    -0.304 N 
ATOM      7  C   UNL     1      -0.000  -0.000  -0.000  0.00  0.00    +0.132 C 
ATOM      8  C   UNL     1      -0.000  -0.000  -0.000  0.00  0.00    +0.107 C 
ATOM      9  C   UNL     1      -0.000  -0.000  -0.000  0.00  0.00    +0.019 C 
ATOM     10  C   UNL     1      -0.000  -0.000  -0.000  0.00  0.00    +0.006 C 
ATOM     11  C   UNL     1      -0.000  -0.000  -0.000  0.00  0.00    +0.027 C 
ATOM     12  C   UNL     1      -0.000  -0.000  -0.000  0.00  0.00    -0.031 C 
ATOM     13  C   UNL     1      -0.000  -0.000  -0.000  0.00  0.00    -0.025 C 
ATOM     14  C   UNL     1      -0.000  -0.000  -0.000  0.00  0.00    +0.046 C 
ATOM     15  C   UNL     1      -0.000  -0.000  -0.000  0.00  0.00    +0.119 C 
ATOM     16  N   UNL     1      -0.000  -0.000  -0.000  0.00  0.00    -0.301 N 
ATOM     17  H   UNL     1       0.000   0.000   0.000  0.00  0.00    +0.150 HD
ATOM     18  C   UNL     1      -0.000  -0.000  -0.000  0.00  0.00    +0.218 C 
ATOM     19  O   UNL     1      -0.000  -0.000  -0.000  0.00  0.00    -0.275 OA
ATOM     20  C   UNL     1      -0.000  -0.000  -0.000  0.00  0.00    +0.046 C 
ATOM     21  C   UNL     1      -0.000  -0.000  -0.000  0.00  0.00    +0.090 C 
ATOM     22  C   UNL     1      -0.000  -0.000  -0.000  0.00  0.00    +0.058 C 
ENDROOT
BRANCH  15  23
ATOM     23  C   UNL     1      -0.000  -0.000  -0.000  0.00  0.00    +0.256 C 
ATOM     24  N   UNL     1      -0.000  -0.000  -0.000  0.00  0.00    -0.188 N 
ATOM     25  H   UNL     1      -0.000  -0.000  -0.000  0.00  0.00    +0.176 HD
ATOM     26  O   UNL     1      -0.000  -0.000  -0.000  0.00  0.00    -0.272 OA
BRANCH  24  27
ATOM     27  S   UNL     1      -0.000  -0.000  -0.000  0.00  0.00    +0.048 S 
ATOM     28  O   UNL     1      -0.000  -0.000  -0.000  0.00  0.00    -0.155 OA
ATOM     29  O   UNL     1      -0.000  -0.000  -0.000  0.00  0.00    -0.155 OA
BRANCH  27  30
ATOM     30  C   UNL     1      -0.000  -0.000  -0.000  0.00  0.00    +0.151 C 
ATOM     31  C   UNL     1      -0.000  -0.000  -0.000  0.00  0.00    +0.030 C 
ATOM     32  C   UNL     1      -0.000  -0.000  -0.000  0.00  0.00    +0.030 C 
ENDBRANCH  27  30
ENDBRANCH  24  27
ENDBRANCH  15  23
BRANCH   1  33
ATOM     33  O   UNL     1      -0.000  -0.000  -0.000  0.00  0.00    -0.488 OA
BRANCH  33  40
ATOM     34  C   UNL     1       0.000   0.000  -0.000  0.00  0.00    +0.050 C 
ATOM     35  C   UNL     1      -0.000  -0.000  -0.000  0.00  0.00    +0.017 A 
ATOM     36  C   UNL     1      -0.000  -0.000  -0.000  0.00  0.00    +0.082 A 
ATOM     37  N   UNL     1      -0.000  -0.000  -0.000  0.00  0.00    -0.244 NA
ATOM     38  C   UNL     1      -0.000  -0.000  -0.000  0.00  0.00    +0.100 A 
ATOM     39  C   UNL     1      -0.000  -0.000  -0.000  0.00  0.00    +0.076 A 
ATOM     40  C   UNL     1      -0.000  -0.000  -0.000  0.00  0.00    +0.132 A 
ATOM     41  C   UNL     1      -0.000  -0.000  -0.000  0.00  0.00    +0.043 A 
ATOM     42  C   UNL     1      -0.000  -0.000  -0.000  0.00  0.00    +0.017 A 
ATOM     43  C   UNL     1      -0.000  -0.000  -0.000  0.00  0.00    +0.047 A 
ATOM     44  C   UNL     1      -0.000  -0.000  -0.000  0.00  0.00    +0.125 A 
BRANCH  38  45
ATOM     45  C   UNL     1      -0.000  -0.000  -0.000  0.00  0.00    +0.127 A 
ATOM     46  S   UNL     1      -0.000  -0.000  -0.000  0.00  0.00    -0.074 S 
ATOM     47  C   UNL     1      -0.000  -0.000  -0.000  0.00  0.00    +0.070 A 
ATOM     48  C   UNL     1      -0.000  -0.000  -0.000  0.00  0.00    +0.052 A 
ATOM     49  N   UNL     1      -0.000  -0.000  -0.000  0.00  0.00    -0.242 NA
BRANCH  48  50
ATOM     50  C   UNL     1      -0.000  -0.000  -0.000  0.00  0.00    +0.032 C 
ATOM     51  C   UNL     1      -0.000  -0.000  -0.000  0.00  0.00    +0.014 C 
ATOM     52  C   UNL     1      -0.000  -0.000  -0.000  0.00  0.00    +0.014 C 
ENDBRANCH  48  50
ENDBRANCH  38  45
BRANCH  44  53
ATOM     53  O   UNL     1      -0.000  -0.000  -0.000  0.00  0.00    -0.495 OA
ATOM     54  C   UNL     1       0.000   0.000  -0.000  0.00  0.00    +0.277 C 
ENDBRANCH  44  53
ENDBRANCH  33  40
ENDBRANCH   1  33
TORSDOF 8
