REMARK  Name = 
REMARK  12 active torsions:
REMARK  status: ('A' for Active; 'I' for Inactive)
REMARK    1  A    between atoms: C_1  and  C_2
REMARK    2  A    between atoms: C_2  and  C_3
REMARK    3  A    between atoms: C_3  and  C_4
REMARK    4  A    between atoms: C_3  and  C_6
REMARK    5  A    between atoms: C_4  and  C_5
REMARK    6  A    between atoms: C_6  and  C_8
REMARK    7  A    between atoms: C_6  and  N_25
REMARK    8  A    between atoms: C_10  and  N_21
REMARK    9  A    between atoms: C_13  and  C_18
REMARK   10  A    between atoms: C_15  and  O_17
REMARK   11  A    between atoms: C_18  and  O_20
REMARK   12  A    between atoms: C_26  and  C_28
REMARK                            x       y       z     vdW  Elec       q    Type
REMARK                         _______ _______ _______ _____ _____    ______ ____
ROOT
ATOM      1  C   UNL     1       4.931  -0.921  -0.911  0.00  0.00    +0.079 C 
ATOM      2  C   UNL     1       4.543  -1.643   0.397  0.00  0.00    +0.137 C 
ATOM      3  C   UNL     1       5.540  -2.777   0.625  0.00  0.00    +0.130 C 
ATOM      4  C   UNL     1       6.533  -2.713  -0.515  0.00  0.00    +0.062 C 
ATOM      5  C   UNL     1       6.449  -1.279  -1.052  0.00  0.00    +0.196 C 
ENDROOT
BRANCH   5   6
ATOM      6  N   UNL     1       6.821  -1.253  -2.469  0.00  0.00    -0.110 NA
ATOM      7  C   UNL     1       8.002  -1.550  -2.869  0.00  0.00    +0.377 C 
ATOM      8  N   UNL     1       8.277  -1.528  -4.192  0.00  0.00    -0.289 N 
ATOM      9  H   UNL     1       9.181  -1.115  -4.402  0.00  0.00    +0.255 HD
ATOM     10  H   UNL     1       7.540  -1.078  -4.722  0.00  0.00    +0.255 HD
ATOM     11  N   UNL     1       9.115  -1.925  -2.206  0.00  0.00    -0.289 N 
ATOM     12  H   UNL     1       9.642  -2.629  -2.702  0.00  0.00    +0.255 HD
ATOM     13  H   UNL     1       8.992  -2.176  -1.235  0.00  0.00    +0.255 HD
ENDBRANCH   5   6
BRANCH   2  14
ATOM     14  O   UNL     1       4.568  -0.809   1.545  0.00  0.00    -0.391 OA
ATOM     15  H   UNL     1       5.461  -0.434   1.654  0.00  0.00    +0.210 HD
ENDBRANCH   2  14
BRANCH   3  16
ATOM     16  C   UNL     1       4.884  -4.130   0.764  0.00  0.00    +0.310 C 
ATOM     17  O   UNL     1       5.057  -4.845   1.747  0.00  0.00    -0.251 OA
BRANCH  16  18
ATOM     18  O   UNL     1       4.112  -4.527  -0.265  0.00  0.00    -0.480 OA
ATOM     19  H   UNL     1       3.999  -3.903  -1.013  0.00  0.00    +0.295 HD
ENDBRANCH  16  18
ENDBRANCH   3  16
BRANCH   1  20
ATOM     20  C   UNL     1       4.580   0.619  -1.102  0.00  0.00    +0.085 C 
BRANCH  20  21
ATOM     21  N   UNL     1       5.108   1.002  -2.436  0.00  0.00    -0.312 N 
ATOM     22  H   UNL     1       5.560   0.247  -2.953  0.00  0.00    +0.149 HD
ATOM     23  C   UNL     1       5.454   2.276  -2.824  0.00  0.00    +0.210 C 
ATOM     24  C   UNL     1       5.841   2.393  -4.278  0.00  0.00    +0.109 C 
ATOM     25  O   UNL     1       5.404   3.262  -2.097  0.00  0.00    -0.276 OA
ENDBRANCH  20  21
BRANCH  20  26
ATOM     26  C   UNL     1       3.021   0.990  -1.014  0.00  0.00    +0.009 C 
BRANCH  26  28
ATOM     27  C   UNL     1       2.877   1.615   1.520  0.00  0.00    +0.004 C 
ATOM     28  C   UNL     1       2.375   0.758   0.367  0.00  0.00    +0.002 C 
ENDBRANCH  26  28
BRANCH  26  29
ATOM     29  C   UNL     1       2.671   2.435  -1.490  0.00  0.00    +0.002 C 
ATOM     30  C   UNL     1       1.197   2.842  -1.468  0.00  0.00    +0.004 C 
ENDBRANCH  26  29
ENDBRANCH  20  26
ENDBRANCH   1  20
TORSDOF 9
REMARK  Name = 
REMARK  12 active torsions:
REMARK  status: ('A' for Active; 'I' for Inactive)
REMARK    1  A    between atoms: C_1  and  C_2
REMARK    2  A    between atoms: C_2  and  C_3
REMARK    3  A    between atoms: C_3  and  C_4
REMARK    4  A    between atoms: C_3  and  C_6
REMARK    5  A    between atoms: C_4  and  C_5
REMARK    6  A    between atoms: C_6  and  C_8
REMARK    7  A    between atoms: C_6  and  N_25
REMARK    8  A    between atoms: C_10  and  N_21
REMARK    9  A    between atoms: C_13  and  C_18
REMARK   10  A    between atoms: C_15  and  O_17
REMARK   11  A    between atoms: C_18  and  O_20
REMARK   12  A    between atoms: C_26  and  C_28
REMARK                            x       y       z     vdW  Elec       q    Type
REMARK                         _______ _______ _______ _____ _____    ______ ____
ROOT
ATOM      1  O   HOH     1       0.658  -1.870   0.932  0.00  0.00    -0.410 OA
ATOM      2  H   HOH     0      -0.117  -1.853   1.521  0.00  0.00    +0.205 HD
ATOM      3  H   HOH     0       1.386  -1.933   1.582  0.00  0.00    +0.205 HD
ENDROOT
TORSDOF 0
REMARK  Name = 
REMARK  12 active torsions:
REMARK  status: ('A' for Active; 'I' for Inactive)
REMARK    1  A    between atoms: C_1  and  C_2
REMARK    2  A    between atoms: C_2  and  C_3
REMARK    3  A    between atoms: C_3  and  C_4
REMARK    4  A    between atoms: C_3  and  C_6
REMARK    5  A    between atoms: C_4  and  C_5
REMARK    6  A    between atoms: C_6  and  C_8
REMARK    7  A    between atoms: C_6  and  N_25
REMARK    8  A    between atoms: C_10  and  N_21
REMARK    9  A    between atoms: C_13  and  C_18
REMARK   10  A    between atoms: C_15  and  O_17
REMARK   11  A    between atoms: C_18  and  O_20
REMARK   12  A    between atoms: C_26  and  C_28
REMARK                            x       y       z     vdW  Elec       q    Type
REMARK                         _______ _______ _______ _____ _____    ______ ____
ROOT
ATOM      1  O   HOH     1      -0.164  -0.626  -1.606  0.00  0.00    -0.410 OA
ATOM      2  H   HOH     0      -0.052  -0.922  -0.679  0.00  0.00    +0.205 HD
ATOM      3  H   HOH     0      -0.101   0.339  -1.524  0.00  0.00    +0.205 HD
ENDROOT
TORSDOF 0
REMARK  Name = 
REMARK  12 active torsions:
REMARK  status: ('A' for Active; 'I' for Inactive)
REMARK    1  A    between atoms: C_1  and  C_2
REMARK    2  A    between atoms: C_2  and  C_3
REMARK    3  A    between atoms: C_3  and  C_4
REMARK    4  A    between atoms: C_3  and  C_6
REMARK    5  A    between atoms: C_4  and  C_5
REMARK    6  A    between atoms: C_6  and  C_8
REMARK    7  A    between atoms: C_6  and  N_25
REMARK    8  A    between atoms: C_10  and  N_21
REMARK    9  A    between atoms: C_13  and  C_18
REMARK   10  A    between atoms: C_15  and  O_17
REMARK   11  A    between atoms: C_18  and  O_20
REMARK   12  A    between atoms: C_26  and  C_28
REMARK                            x       y       z     vdW  Elec       q    Type
REMARK                         _______ _______ _______ _____ _____    ______ ____
ROOT
ATOM      1  O   HOH     1       1.933  -2.400  -1.914  0.00  0.00    -0.410 OA
ATOM      2  H   HOH     0       1.240  -1.888  -2.384  0.00  0.00    +0.205 HD
ATOM      3  H   HOH     0       1.558  -2.341  -1.015  0.00  0.00    +0.205 HD
ENDROOT
TORSDOF 0
