REMARK  Name = 
REMARK  17 active torsions:
REMARK  status: ('A' for Active; 'I' for Inactive)
REMARK    1  A    between atoms: C_1  and  C_2
REMARK    2  A    between atoms: C_2  and  C_3
REMARK    3  A    between atoms: C_2  and  C_4
REMARK    4  A    between atoms: C_4  and  N_5
REMARK    5  A    between atoms: N_5  and  C_6
REMARK    6  A    between atoms: N_5  and  S_33
REMARK    7  A    between atoms: C_6  and  C_7
REMARK    8  A    between atoms: C_7  and  C_9
REMARK    9  A    between atoms: C_7  and  O_28
REMARK   10  A    between atoms: C_9  and  C_11
REMARK   11  A    between atoms: C_9  and  N_18
REMARK   12  A    between atoms: C_11  and  C_12
REMARK   13  A    between atoms: C_19  and  O_21
REMARK   14  A    between atoms: O_21  and  C_22
REMARK   15  A    between atoms: O_28  and  P_29
REMARK   16  A    between atoms: S_33  and  C_36
REMARK   17  A    between atoms: C_39  and  N_42
REMARK                            x       y       z     vdW  Elec       q    Type
REMARK                         _______ _______ _______ _____ _____    ______ ____
ROOT
ATOM      1  C   UNL     1       2.416   0.049   2.325  0.00  0.00    +0.158 C 
ENDROOT
BRANCH   1   2
ATOM      2  C   UNL     1       1.254  -0.999   2.214  0.00  0.00    +0.143 C 
BRANCH   2   3
ATOM      3  N   UNL     1       0.674  -1.584   3.581  0.00  0.00    -0.174 NA
BRANCH   3   4
ATOM      4  S   UNL     1      -0.541  -2.778   3.290  0.00  0.00    +0.061 S 
ATOM      5  O   UNL     1      -1.462  -1.977   2.469  0.00  0.00    -0.153 OA
ATOM      6  O   UNL     1      -1.131  -3.098   4.593  0.00  0.00    -0.153 OA
BRANCH   4   7
ATOM      7  C   UNL     1      -0.106  -4.232   2.424  0.00  0.00    +0.106 A 
ATOM      8  C   UNL     1      -1.158  -4.978   1.879  0.00  0.00    +0.030 A 
ATOM      9  C   UNL     1      -0.907  -6.108   1.090  0.00  0.00    +0.024 A 
ATOM     10  C   UNL     1       0.405  -6.516   0.840  0.00  0.00    +0.025 A 
ATOM     11  C   UNL     1       1.444  -5.764   1.379  0.00  0.00    +0.024 A 
ATOM     12  C   UNL     1       1.197  -4.649   2.195  0.00  0.00    +0.030 A 
BRANCH  10  13
ATOM     13  N   UNL     1       0.662  -7.508  -0.110  0.00  0.00    -0.358 N 
ATOM     14  H   UNL     1      -0.014  -8.260  -0.157  0.00  0.00    +0.142 HD
ATOM     15  H   UNL     1       1.625  -7.836  -0.102  0.00  0.00    +0.142 HD
ENDBRANCH  10  13
ENDBRANCH   4   7
ENDBRANCH   3   4
BRANCH   3  16
ATOM     16  C   UNL     1       1.835  -2.055   4.522  0.00  0.00    +0.112 C 
BRANCH  16  18
ATOM     17  C   UNL     1       2.731  -3.054   6.658  0.00  0.00    +0.008 C 
ATOM     18  C   UNL     1       1.466  -2.552   5.926  0.00  0.00    -0.001 C 
ATOM     19  C   UNL     1       0.832  -1.447   6.756  0.00  0.00    +0.008 C 
ENDBRANCH  16  18
ENDBRANCH   3  16
ENDBRANCH   2   3
ENDBRANCH   1   2
BRANCH   1  20
ATOM     20  C   UNL     1       2.769   0.868   0.935  0.00  0.00    +0.111 C 
BRANCH  20  21
ATOM     21  N   UNL     1       1.637   1.365   0.106  0.00  0.00    -0.275 N 
ATOM     22  H   UNL     1       1.841   1.366  -0.894  0.00  0.00    +0.152 HD
ATOM     23  C   UNL     1       0.404   1.820   0.438  0.00  0.00    +0.401 C 
ATOM     24  O   UNL     1      -0.063   1.802   1.578  0.00  0.00    -0.226 OA
BRANCH  23  25
ATOM     25  O   UNL     1      -0.295   2.188  -0.684  0.00  0.00    -0.445 OA
BRANCH  25  26
ATOM     26  C   UNL     1      -1.604   2.769  -0.543  0.00  0.00    +0.206 C 
ATOM     27  C   UNL     1      -2.471   2.067   0.484  0.00  0.00    +0.204 C 
ATOM     28  O   UNL     1      -3.839   2.204   0.136  0.00  0.00    -0.376 OA
ATOM     29  C   UNL     1      -3.899   2.628  -1.235  0.00  0.00    +0.163 C 
ATOM     30  C   UNL     1      -2.477   2.652  -1.783  0.00  0.00    +0.075 C 
ENDBRANCH  25  26
ENDBRANCH  23  25
ENDBRANCH  20  21
BRANCH  20  31
ATOM     31  C   UNL     1       3.802   2.008   1.233  0.00  0.00    +0.060 C 
BRANCH  31  32
ATOM     32  C   UNL     1       4.495   2.753   0.089  0.00  0.00    -0.046 A 
ATOM     33  C   UNL     1       5.484   2.135  -0.699  0.00  0.00    +0.004 A 
ATOM     34  C   UNL     1       6.269   2.875  -1.599  0.00  0.00    +0.000 A 
ATOM     35  C   UNL     1       6.073   4.250  -1.739  0.00  0.00    +0.000 A 
ATOM     36  C   UNL     1       5.089   4.877  -0.990  0.00  0.00    +0.000 A 
ATOM     37  C   UNL     1       4.303   4.140  -0.086  0.00  0.00    +0.004 A 
ENDBRANCH  31  32
ENDBRANCH  20  31
ENDBRANCH   1  20
BRANCH   1  38
ATOM     38  O   UNL     1       3.551  -0.656   2.925  0.00  0.00    -0.361 OA
BRANCH  38  39
ATOM     39  P   UNL     1       3.804  -2.102   2.010  0.00  0.00    -0.015 P 
ATOM     40  O   UNL     1       4.057  -3.549   1.096  0.00  0.00    -0.577 OA
ATOM     41  O   UNL     1       4.492  -2.611   3.278  0.00  0.00    -0.577 OA
ATOM     42  O   UNL     1       4.483  -1.213   0.972  0.00  0.00    -0.638 OA
ENDBRANCH  38  39
ENDBRANCH   1  38
TORSDOF 15
REMARK  Name = 
REMARK  17 active torsions:
REMARK  status: ('A' for Active; 'I' for Inactive)
REMARK    1  A    between atoms: C_1  and  C_2
REMARK    2  A    between atoms: C_2  and  C_3
REMARK    3  A    between atoms: C_2  and  C_4
REMARK    4  A    between atoms: C_4  and  N_5
REMARK    5  A    between atoms: N_5  and  C_6
REMARK    6  A    between atoms: N_5  and  S_33
REMARK    7  A    between atoms: C_6  and  C_7
REMARK    8  A    between atoms: C_7  and  C_9
REMARK    9  A    between atoms: C_7  and  O_28
REMARK   10  A    between atoms: C_9  and  C_11
REMARK   11  A    between atoms: C_9  and  N_18
REMARK   12  A    between atoms: C_11  and  C_12
REMARK   13  A    between atoms: C_19  and  O_21
REMARK   14  A    between atoms: O_21  and  C_22
REMARK   15  A    between atoms: O_28  and  P_29
REMARK   16  A    between atoms: S_33  and  C_36
REMARK   17  A    between atoms: C_39  and  N_42
REMARK                            x       y       z     vdW  Elec       q    Type
REMARK                         _______ _______ _______ _____ _____    ______ ____
ROOT
ATOM      1  O   HOH     1       1.283  -1.535  -0.828  0.00  0.00    -0.410 OA
ATOM      2  H   HOH     0       1.349  -2.057  -1.646  0.00  0.00    +0.205 HD
ATOM      3  H   HOH     0       2.208  -1.668  -0.505  0.00  0.00    +0.205 HD
ENDROOT
TORSDOF 0
REMARK  Name = 
REMARK  17 active torsions:
REMARK  status: ('A' for Active; 'I' for Inactive)
REMARK    1  A    between atoms: C_1  and  C_2
REMARK    2  A    between atoms: C_2  and  C_3
REMARK    3  A    between atoms: C_2  and  C_4
REMARK    4  A    between atoms: C_4  and  N_5
REMARK    5  A    between atoms: N_5  and  C_6
REMARK    6  A    between atoms: N_5  and  S_33
REMARK    7  A    between atoms: C_6  and  C_7
REMARK    8  A    between atoms: C_7  and  C_9
REMARK    9  A    between atoms: C_7  and  O_28
REMARK   10  A    between atoms: C_9  and  C_11
REMARK   11  A    between atoms: C_9  and  N_18
REMARK   12  A    between atoms: C_11  and  C_12
REMARK   13  A    between atoms: C_19  and  O_21
REMARK   14  A    between atoms: O_21  and  C_22
REMARK   15  A    between atoms: O_28  and  P_29
REMARK   16  A    between atoms: S_33  and  C_36
REMARK   17  A    between atoms: C_39  and  N_42
REMARK                            x       y       z     vdW  Elec       q    Type
REMARK                         _______ _______ _______ _____ _____    ______ ____
ROOT
ATOM      1 CA   UNL     1      -1.646   0.109   3.422  0.00  0.00    +0.000 Ca
ENDROOT
TORSDOF 0
