REMARK  Name = 
REMARK  30 active torsions:
REMARK  status: ('A' for Active; 'I' for Inactive)
REMARK    1  A    between atoms: C_1  and  C_2
REMARK    2  A    between atoms: C_2  and  C_4
REMARK    3  A    between atoms: C_2  and  O_15
REMARK    4  A    between atoms: C_4  and  N_5
REMARK    5  A    between atoms: C_9  and  N_14
REMARK    6  A    between atoms: O_15  and  C_16
REMARK    7  A    between atoms: C_16  and  P_17
REMARK    8  A    between atoms: P_17  and  O_19
REMARK    9  A    between atoms: P_17  and  O_28
REMARK   10  A    between atoms: O_19  and  C_20
REMARK   11  A    between atoms: C_20  and  O_21
REMARK   12  A    between atoms: O_21  and  C_22
REMARK   13  A    between atoms: C_22  and  O_24
REMARK   14  A    between atoms: O_24  and  C_25
REMARK   15  A    between atoms: C_25  and  C_26
REMARK   16  A    between atoms: C_25  and  C_27
REMARK   17  A    between atoms: O_28  and  C_29
REMARK   18  A    between atoms: C_29  and  O_30
REMARK   19  A    between atoms: O_30  and  C_31
REMARK   20  A    between atoms: C_31  and  O_33
REMARK   21  A    between atoms: O_33  and  C_34
REMARK   22  A    between atoms: C_34  and  C_35
REMARK   23  A    between atoms: C_34  and  C_36
REMARK   24  A    between atoms: C_38  and  N_46
REMARK   25  A    between atoms: C_41  and  C_44
REMARK   26  A    between atoms: C_44  and  O_45
REMARK   27  A    between atoms: C_55  and  C_60
REMARK   28  A    between atoms: C_56  and  C_57
REMARK   29  A    between atoms: C_57  and  O_59
REMARK   30  A    between atoms: C_60  and  O_62
REMARK                            x       y       z     vdW  Elec       q    Type
REMARK                         _______ _______ _______ _____ _____    ______ ____
ROOT
ATOM      1  P   UNL     1      -4.660  -3.818  -3.964  0.00  0.00    +0.364 P 
ATOM      2  O   UNL     1      -6.159  -3.547  -4.070  0.00  0.00    -0.256 OA
ENDROOT
BRANCH   1   3
ATOM      3  O   UNL     1      -4.464  -2.957  -5.451  0.00  0.00    -0.268 OA
BRANCH   3   4
ATOM      4  C   UNL     1      -3.835  -3.709  -6.452  0.00  0.00    +0.410 C 
BRANCH   4   5
ATOM      5  O   UNL     1      -2.535  -4.092  -6.039  0.00  0.00    -0.406 OA
BRANCH   5   6
ATOM      6  C   UNL     1      -1.551  -3.283  -6.494  0.00  0.00    +0.512 C 
ATOM      7  O   UNL     1      -1.686  -2.249  -7.128  0.00  0.00    -0.203 OA
BRANCH   6   8
ATOM      8  O   UNL     1      -0.379  -3.902  -6.237  0.00  0.00    -0.431 OA
BRANCH   8   9
ATOM      9  C   UNL     1       0.627  -3.735  -7.249  0.00  0.00    +0.174 C 
ATOM     10  C   UNL     1       1.108  -5.139  -7.576  0.00  0.00    +0.052 C 
ATOM     11  C   UNL     1       1.750  -2.848  -6.739  0.00  0.00    +0.052 C 
ENDBRANCH   8   9
ENDBRANCH   6   8
ENDBRANCH   5   6
ENDBRANCH   4   5
ENDBRANCH   3   4
ENDBRANCH   1   3
BRANCH   1  12
ATOM     12  O   UNL     1      -3.834  -2.653  -3.159  0.00  0.00    -0.268 OA
BRANCH  12  13
ATOM     13  C   UNL     1      -4.106  -1.276  -3.297  0.00  0.00    +0.410 C 
BRANCH  13  14
ATOM     14  O   UNL     1      -5.273  -0.877  -2.602  0.00  0.00    -0.406 OA
BRANCH  14  15
ATOM     15  C   UNL     1      -6.280  -0.358  -3.330  0.00  0.00    +0.512 C 
ATOM     16  O   UNL     1      -6.324  -0.216  -4.541  0.00  0.00    -0.203 OA
BRANCH  15  17
ATOM     17  O   UNL     1      -7.253  -0.020  -2.440  0.00  0.00    -0.431 OA
BRANCH  17  18
ATOM     18  C   UNL     1      -8.594   0.288  -2.848  0.00  0.00    +0.174 C 
ATOM     19  C   UNL     1      -9.313  -0.941  -3.389  0.00  0.00    +0.052 C 
ATOM     20  C   UNL     1      -8.758   1.498  -3.764  0.00  0.00    +0.052 C 
ENDBRANCH  17  18
ENDBRANCH  15  17
ENDBRANCH  14  15
ENDBRANCH  13  14
ENDBRANCH  12  13
ENDBRANCH   1  12
BRANCH   1  21
ATOM     21  C   UNL     1      -4.868  -4.729  -2.390  0.00  0.00    +0.287 C 
BRANCH  21  22
ATOM     22  O   UNL     1      -5.712  -4.288  -1.337  0.00  0.00    -0.363 OA
BRANCH  22  24
ATOM     23  C   UNL     1      -7.509  -3.272  -0.288  0.00  0.00    +0.040 C 
ATOM     24  C   UNL     1      -7.087  -4.002  -1.557  0.00  0.00    +0.136 C 
BRANCH  24  25
ATOM     25  C   UNL     1      -8.025  -5.154  -2.013  0.00  0.00    +0.156 C 
BRANCH  25  26
ATOM     26  N   UNL     1      -7.951  -6.414  -1.303  0.00  0.00    -0.312 N 
ATOM     27  C   UNL     1      -7.259  -7.527  -1.711  0.00  0.00    +0.165 A 
ATOM     28  C   UNL     1      -7.379  -8.424  -0.660  0.00  0.00    +0.147 A 
ATOM     29  C   UNL     1      -6.574  -9.577  -0.725  0.00  0.00    +0.147 A 
ATOM     30  N   UNL     1      -5.821  -9.779  -1.832  0.00  0.00    -0.219 NA
ATOM     31  C   UNL     1      -5.862  -8.853  -2.810  0.00  0.00    +0.225 A 
ATOM     32  N   UNL     1      -8.274  -7.951   0.280  0.00  0.00    -0.231 NA
ATOM     33  N   UNL     1      -6.544  -7.692  -2.838  0.00  0.00    -0.216 NA
ATOM     34  C   UNL     1      -8.616  -6.754  -0.154  0.00  0.00    +0.201 A 
BRANCH  29  35
ATOM     35  N   UNL     1      -6.459 -10.493   0.304  0.00  0.00    -0.341 N 
ATOM     36  H   UNL     1      -5.978 -11.348   0.069  0.00  0.00    +0.144 HD
ATOM     37  H   UNL     1      -7.192 -10.488   1.000  0.00  0.00    +0.144 HD
ENDBRANCH  29  35
ENDBRANCH  25  26
ENDBRANCH  24  25
ENDBRANCH  22  24
ENDBRANCH  21  22
ENDBRANCH   1  21
TORSDOF 18
REMARK  Name = 
REMARK  30 active torsions:
REMARK  status: ('A' for Active; 'I' for Inactive)
REMARK    1  A    between atoms: C_1  and  C_2
REMARK    2  A    between atoms: C_2  and  C_4
REMARK    3  A    between atoms: C_2  and  O_15
REMARK    4  A    between atoms: C_4  and  N_5
REMARK    5  A    between atoms: C_9  and  N_14
REMARK    6  A    between atoms: O_15  and  C_16
REMARK    7  A    between atoms: C_16  and  P_17
REMARK    8  A    between atoms: P_17  and  O_19
REMARK    9  A    between atoms: P_17  and  O_28
REMARK   10  A    between atoms: O_19  and  C_20
REMARK   11  A    between atoms: C_20  and  O_21
REMARK   12  A    between atoms: O_21  and  C_22
REMARK   13  A    between atoms: C_22  and  O_24
REMARK   14  A    between atoms: O_24  and  C_25
REMARK   15  A    between atoms: C_25  and  C_26
REMARK   16  A    between atoms: C_25  and  C_27
REMARK   17  A    between atoms: O_28  and  C_29
REMARK   18  A    between atoms: C_29  and  O_30
REMARK   19  A    between atoms: O_30  and  C_31
REMARK   20  A    between atoms: C_31  and  O_33
REMARK   21  A    between atoms: O_33  and  C_34
REMARK   22  A    between atoms: C_34  and  C_35
REMARK   23  A    between atoms: C_34  and  C_36
REMARK   24  A    between atoms: C_38  and  N_46
REMARK   25  A    between atoms: C_41  and  C_44
REMARK   26  A    between atoms: C_44  and  O_45
REMARK   27  A    between atoms: C_55  and  C_60
REMARK   28  A    between atoms: C_56  and  C_57
REMARK   29  A    between atoms: C_57  and  O_59
REMARK   30  A    between atoms: C_60  and  O_62
REMARK                            x       y       z     vdW  Elec       q    Type
REMARK                         _______ _______ _______ _____ _____    ______ ____
ROOT
ATOM      1  N   UNL     1      -2.295   0.569   2.636  0.00  0.00    -0.269 N 
ATOM      2  C   UNL     1      -3.079  -0.387   3.305  0.00  0.00    +0.352 A 
ATOM      3  O   UNL     1      -3.055  -1.574   2.997  0.00  0.00    -0.244 OA
ATOM      4  N   UNL     1      -3.913   0.016   4.320  0.00  0.00    -0.175 NA
ATOM      5  C   UNL     1      -4.040   1.280   4.602  0.00  0.00    +0.159 A 
ATOM      6  N   UNL     1      -4.976   1.612   5.541  0.00  0.00    -0.341 N 
ATOM      7  H   UNL     1      -5.334   0.836   6.086  0.00  0.00    +0.144 HD
ATOM      8  H   UNL     1      -4.923   2.511   5.998  0.00  0.00    +0.144 HD
ATOM      9  C   UNL     1      -3.232   2.312   3.936  0.00  0.00    +0.179 A 
ATOM     10  F   UNL     1      -3.398   3.594   4.302  0.00  0.00    -0.200 F 
ATOM     11  C   UNL     1      -2.419   1.913   2.967  0.00  0.00    +0.135 A 
ENDROOT
BRANCH   1  16
ATOM     12  C   UNL     1      -1.061  -1.152   1.097  0.00  0.00    +0.126 C 
ATOM     13  S   UNL     1       0.653  -0.970   1.609  0.00  0.00    -0.123 S 
ATOM     14  C   UNL     1       0.604   0.815   1.370  0.00  0.00    +0.203 C 
ATOM     15  O   UNL     1      -0.715   1.217   0.961  0.00  0.00    -0.340 OA
ATOM     16  C   UNL     1      -1.702   0.224   1.332  0.00  0.00    +0.235 C 
BRANCH  14  17
ATOM     17  C   UNL     1       1.054   1.545   2.643  0.00  0.00    +0.198 C 
BRANCH  17  18
ATOM     18  O   UNL     1       1.056   2.960   2.431  0.00  0.00    -0.392 OA
ATOM     19  H   UNL     1       1.058   3.377   3.310  0.00  0.00    +0.210 HD
ENDBRANCH  17  18
ENDBRANCH  14  17
ENDBRANCH   1  16
TORSDOF 3
REMARK  Name = 
REMARK  30 active torsions:
REMARK  status: ('A' for Active; 'I' for Inactive)
REMARK    1  A    between atoms: C_1  and  C_2
REMARK    2  A    between atoms: C_2  and  C_4
REMARK    3  A    between atoms: C_2  and  O_15
REMARK    4  A    between atoms: C_4  and  N_5
REMARK    5  A    between atoms: C_9  and  N_14
REMARK    6  A    between atoms: O_15  and  C_16
REMARK    7  A    between atoms: C_16  and  P_17
REMARK    8  A    between atoms: P_17  and  O_19
REMARK    9  A    between atoms: P_17  and  O_28
REMARK   10  A    between atoms: O_19  and  C_20
REMARK   11  A    between atoms: C_20  and  O_21
REMARK   12  A    between atoms: O_21  and  C_22
REMARK   13  A    between atoms: C_22  and  O_24
REMARK   14  A    between atoms: O_24  and  C_25
REMARK   15  A    between atoms: C_25  and  C_26
REMARK   16  A    between atoms: C_25  and  C_27
REMARK   17  A    between atoms: O_28  and  C_29
REMARK   18  A    between atoms: C_29  and  O_30
REMARK   19  A    between atoms: O_30  and  C_31
REMARK   20  A    between atoms: C_31  and  O_33
REMARK   21  A    between atoms: O_33  and  C_34
REMARK   22  A    between atoms: C_34  and  C_35
REMARK   23  A    between atoms: C_34  and  C_36
REMARK   24  A    between atoms: C_38  and  N_46
REMARK   25  A    between atoms: C_41  and  C_44
REMARK   26  A    between atoms: C_44  and  O_45
REMARK   27  A    between atoms: C_55  and  C_60
REMARK   28  A    between atoms: C_56  and  C_57
REMARK   29  A    between atoms: C_57  and  O_59
REMARK   30  A    between atoms: C_60  and  O_62
REMARK                            x       y       z     vdW  Elec       q    Type
REMARK                         _______ _______ _______ _____ _____    ______ ____
ROOT
ATOM      1  C   UNL     1       0.029   0.575  -2.072  0.00  0.00    +0.098 C 
ATOM      2  C   UNL     1      -0.364   1.789  -2.475  0.00  0.00    +0.098 C 
ENDROOT
BRANCH   1   3
ATOM      3  C   UNL     1       1.428   0.171  -2.195  0.00  0.00    +0.330 C 
ATOM      4  O   UNL     1       2.382   0.900  -2.378  0.00  0.00    -0.246 OA
BRANCH   3   5
ATOM      5  O   UNL     1       1.538  -1.157  -2.051  0.00  0.00    -0.478 OA
ATOM      6  H   UNL     1       2.498  -1.340  -2.119  0.00  0.00    +0.295 HD
ENDBRANCH   3   5
ENDBRANCH   1   3
BRANCH   2   7
ATOM      7  C   UNL     1      -1.753   2.195  -2.208  0.00  0.00    +0.330 C 
ATOM      8  O   UNL     1      -2.629   1.447  -1.806  0.00  0.00    -0.246 OA
BRANCH   7   9
ATOM      9  O   UNL     1      -1.941   3.509  -2.435  0.00  0.00    -0.478 OA
ATOM     10  H   UNL     1      -1.140   4.006  -2.684  0.00  0.00    +0.295 HD
ENDBRANCH   7   9
ENDBRANCH   2   7
TORSDOF 4
