REMARK  Name = 
REMARK  17 active torsions:
REMARK  status: ('A' for Active; 'I' for Inactive)
REMARK    1  A    between atoms: C_1  and  C_2
REMARK    2  A    between atoms: C_2  and  C_3
REMARK    3  A    between atoms: C_2  and  C_4
REMARK    4  A    between atoms: C_4  and  N_5
REMARK    5  A    between atoms: N_5  and  C_6
REMARK    6  A    between atoms: N_5  and  S_33
REMARK    7  A    between atoms: C_6  and  C_7
REMARK    8  A    between atoms: C_7  and  C_9
REMARK    9  A    between atoms: C_7  and  O_28
REMARK   10  A    between atoms: C_9  and  C_11
REMARK   11  A    between atoms: C_9  and  N_18
REMARK   12  A    between atoms: C_11  and  C_12
REMARK   13  A    between atoms: C_19  and  O_21
REMARK   14  A    between atoms: O_21  and  C_22
REMARK   15  A    between atoms: O_28  and  P_29
REMARK   16  A    between atoms: S_33  and  C_36
REMARK   17  A    between atoms: C_39  and  N_42
REMARK                            x       y       z     vdW  Elec       q    Type
REMARK                         _______ _______ _______ _____ _____    ______ ____
ROOT
ATOM      1  C   UNL     1       2.617  -0.156  -2.307  0.00  0.00    +0.158 C 
ENDROOT
BRANCH   1   2
ATOM      2  C   UNL     1       1.431   0.886  -2.187  0.00  0.00    +0.143 C 
BRANCH   2   3
ATOM      3  N   UNL     1       0.104   0.530  -1.605  0.00  0.00    -0.174 NA
BRANCH   3   4
ATOM      4  S   UNL     1      -0.758  -0.614  -2.532  0.00  0.00    +0.061 S 
ATOM      5  O   UNL     1      -0.270  -1.913  -2.085  0.00  0.00    -0.153 OA
ATOM      6  O   UNL     1      -0.701  -0.226  -3.926  0.00  0.00    -0.153 OA
BRANCH   4   7
ATOM      7  C   UNL     1      -2.459  -0.464  -2.023  0.00  0.00    +0.106 A 
ATOM      8  C   UNL     1      -3.055  -1.551  -1.374  0.00  0.00    +0.030 A 
ATOM      9  C   UNL     1      -4.383  -1.464  -0.966  0.00  0.00    +0.024 A 
ATOM     10  C   UNL     1      -5.147  -0.323  -1.232  0.00  0.00    +0.025 A 
ATOM     11  C   UNL     1      -4.535   0.765  -1.868  0.00  0.00    +0.024 A 
ATOM     12  C   UNL     1      -3.197   0.693  -2.291  0.00  0.00    +0.030 A 
BRANCH  10  13
ATOM     13  N   UNL     1      -6.418  -0.195  -0.661  0.00  0.00    -0.358 N 
ATOM     14  H   UNL     1      -6.886  -1.079  -0.484  0.00  0.00    +0.142 HD
ATOM     15  H   UNL     1      -7.024   0.477  -1.120  0.00  0.00    +0.142 HD
ENDBRANCH  10  13
ENDBRANCH   4   7
ENDBRANCH   3   4
BRANCH   3  16
ATOM     16  C   UNL     1       0.007   0.430  -0.116  0.00  0.00    +0.112 C 
BRANCH  16  18
ATOM     17  C   UNL     1      -0.146   2.911   0.589  0.00  0.00    +0.008 C 
ATOM     18  C   UNL     1       0.633   1.605   0.676  0.00  0.00    -0.001 C 
ATOM     19  C   UNL     1       0.786   1.233   2.155  0.00  0.00    +0.008 C 
ENDBRANCH  16  18
ENDBRANCH   3  16
ENDBRANCH   2   3
ENDBRANCH   1   2
BRANCH   1  20
ATOM     20  C   UNL     1       3.067  -1.030  -1.006  0.00  0.00    +0.111 C 
BRANCH  20  21
ATOM     21  N   UNL     1       3.871  -2.223  -1.371  0.00  0.00    -0.275 N 
ATOM     22  H   UNL     1       3.443  -2.929  -1.968  0.00  0.00    +0.152 HD
ATOM     23  C   UNL     1       5.173  -2.521  -1.000  0.00  0.00    +0.401 C 
ATOM     24  O   UNL     1       5.877  -1.827  -0.287  0.00  0.00    -0.226 OA
BRANCH  23  25
ATOM     25  O   UNL     1       5.573  -3.710  -1.458  0.00  0.00    -0.445 OA
BRANCH  25  26
ATOM     26  C   UNL     1       6.887  -4.089  -0.957  0.00  0.00    +0.206 C 
ATOM     27  C   UNL     1       7.989  -3.112  -1.344  0.00  0.00    +0.204 C 
ATOM     28  O   UNL     1       9.171  -3.873  -1.637  0.00  0.00    -0.376 OA
ATOM     29  C   UNL     1       8.879  -5.242  -1.349  0.00  0.00    +0.163 C 
ATOM     30  C   UNL     1       7.385  -5.394  -1.535  0.00  0.00    +0.075 C 
ENDBRANCH  25  26
ENDBRANCH  23  25
ENDBRANCH  20  21
BRANCH  20  31
ATOM     31  C   UNL     1       3.642  -0.274   0.244  0.00  0.00    +0.060 C 
BRANCH  31  32
ATOM     32  C   UNL     1       3.730  -0.923   1.617  0.00  0.00    -0.046 A 
ATOM     33  C   UNL     1       2.767  -1.799   2.098  0.00  0.00    +0.004 A 
ATOM     34  C   UNL     1       2.912  -2.422   3.338  0.00  0.00    +0.000 A 
ATOM     35  C   UNL     1       4.024  -2.154   4.131  0.00  0.00    +0.000 A 
ATOM     36  C   UNL     1       4.968  -1.228   3.703  0.00  0.00    +0.000 A 
ATOM     37  C   UNL     1       4.814  -0.609   2.462  0.00  0.00    +0.004 A 
ENDBRANCH  31  32
ENDBRANCH  20  31
ENDBRANCH   1  20
BRANCH   1  38
ATOM     38  O   UNL     1       3.716   0.577  -2.968  0.00  0.00    -0.361 OA
BRANCH  38  39
ATOM     39  P   UNL     1       4.029   1.995  -2.027  0.00  0.00    -0.015 P 
ATOM     40  O   UNL     1       4.341   3.413  -1.087  0.00  0.00    -0.577 OA
ATOM     41  O   UNL     1       4.712   2.679  -3.205  0.00  0.00    -0.577 OA
ATOM     42  O   UNL     1       5.186   1.321  -1.259  0.00  0.00    -0.638 OA
ENDBRANCH  38  39
ENDBRANCH   1  38
TORSDOF 15
REMARK  Name = 
REMARK  17 active torsions:
REMARK  status: ('A' for Active; 'I' for Inactive)
REMARK    1  A    between atoms: C_1  and  C_2
REMARK    2  A    between atoms: C_2  and  C_3
REMARK    3  A    between atoms: C_2  and  C_4
REMARK    4  A    between atoms: C_4  and  N_5
REMARK    5  A    between atoms: N_5  and  C_6
REMARK    6  A    between atoms: N_5  and  S_33
REMARK    7  A    between atoms: C_6  and  C_7
REMARK    8  A    between atoms: C_7  and  C_9
REMARK    9  A    between atoms: C_7  and  O_28
REMARK   10  A    between atoms: C_9  and  C_11
REMARK   11  A    between atoms: C_9  and  N_18
REMARK   12  A    between atoms: C_11  and  C_12
REMARK   13  A    between atoms: C_19  and  O_21
REMARK   14  A    between atoms: O_21  and  C_22
REMARK   15  A    between atoms: O_28  and  P_29
REMARK   16  A    between atoms: S_33  and  C_36
REMARK   17  A    between atoms: C_39  and  N_42
REMARK                            x       y       z     vdW  Elec       q    Type
REMARK                         _______ _______ _______ _____ _____    ______ ____
ROOT
ATOM      1  O   HOH     1       0.069  -3.320   0.877  0.00  0.00    -0.410 OA
ATOM      2  H   HOH     0      -0.102  -2.917   0.008  0.00  0.00    +0.205 HD
ATOM      3  H   HOH     0       0.944  -3.727   0.757  0.00  0.00    +0.205 HD
ENDROOT
TORSDOF 0
REMARK  Name = 
REMARK  17 active torsions:
REMARK  status: ('A' for Active; 'I' for Inactive)
REMARK    1  A    between atoms: C_1  and  C_2
REMARK    2  A    between atoms: C_2  and  C_3
REMARK    3  A    between atoms: C_2  and  C_4
REMARK    4  A    between atoms: C_4  and  N_5
REMARK    5  A    between atoms: N_5  and  C_6
REMARK    6  A    between atoms: N_5  and  S_33
REMARK    7  A    between atoms: C_6  and  C_7
REMARK    8  A    between atoms: C_7  and  C_9
REMARK    9  A    between atoms: C_7  and  O_28
REMARK   10  A    between atoms: C_9  and  C_11
REMARK   11  A    between atoms: C_9  and  N_18
REMARK   12  A    between atoms: C_11  and  C_12
REMARK   13  A    between atoms: C_19  and  O_21
REMARK   14  A    between atoms: O_21  and  C_22
REMARK   15  A    between atoms: O_28  and  P_29
REMARK   16  A    between atoms: S_33  and  C_36
REMARK   17  A    between atoms: C_39  and  N_42
REMARK                            x       y       z     vdW  Elec       q    Type
REMARK                         _______ _______ _______ _____ _____    ______ ____
ROOT
ATOM      1 CA   UNL     1       6.231   2.947  -0.834  0.00  0.00    +0.000 Ca
ENDROOT
TORSDOF 0
