REMARK  Name = 
REMARK  12 active torsions:
REMARK  status: ('A' for Active; 'I' for Inactive)
REMARK    1  A    between atoms: C_1  and  C_2
REMARK    2  A    between atoms: C_2  and  C_3
REMARK    3  A    between atoms: C_3  and  C_4
REMARK    4  A    between atoms: C_3  and  C_6
REMARK    5  A    between atoms: C_4  and  C_5
REMARK    6  A    between atoms: C_6  and  C_8
REMARK    7  A    between atoms: C_6  and  N_25
REMARK    8  A    between atoms: C_10  and  N_21
REMARK    9  A    between atoms: C_13  and  C_18
REMARK   10  A    between atoms: C_15  and  O_17
REMARK   11  A    between atoms: C_18  and  O_20
REMARK   12  A    between atoms: C_26  and  C_28
REMARK                            x       y       z     vdW  Elec       q    Type
REMARK                         _______ _______ _______ _____ _____    ______ ____
ROOT
ATOM      1  C   UNL     1       5.047  -0.549   1.384  0.00  0.00    +0.079 C 
ATOM      2  C   UNL     1       4.838  -1.091   2.829  0.00  0.00    +0.137 C 
ATOM      3  C   UNL     1       4.467   0.114   3.703  0.00  0.00    +0.130 C 
ATOM      4  C   UNL     1       4.936   1.310   2.902  0.00  0.00    +0.062 C 
ATOM      5  C   UNL     1       4.586   0.928   1.461  0.00  0.00    +0.196 C 
ENDROOT
BRANCH   5   6
ATOM      6  N   UNL     1       5.313   1.747   0.502  0.00  0.00    -0.110 NA
ATOM      7  C   UNL     1       5.004   2.972   0.301  0.00  0.00    +0.377 C 
ATOM      8  N   UNL     1       5.627   3.665  -0.674  0.00  0.00    -0.289 N 
ATOM      9  H   UNL     1       5.909   4.610  -0.456  0.00  0.00    +0.255 HD
ATOM     10  H   UNL     1       6.407   3.136  -1.056  0.00  0.00    +0.255 HD
ATOM     11  N   UNL     1       4.055   3.729   0.901  0.00  0.00    -0.289 N 
ATOM     12  H   UNL     1       4.196   4.727   0.796  0.00  0.00    +0.255 HD
ATOM     13  H   UNL     1       3.895   3.499   1.872  0.00  0.00    +0.255 HD
ENDBRANCH   5   6
BRANCH   2  14
ATOM     14  O   UNL     1       3.831  -2.084   2.984  0.00  0.00    -0.391 OA
ATOM     15  H   UNL     1       2.971  -1.694   2.752  0.00  0.00    +0.210 HD
ENDBRANCH   2  14
BRANCH   3  16
ATOM     16  C   UNL     1       5.092   0.054   5.079  0.00  0.00    +0.310 C 
ATOM     17  O   UNL     1       5.771   0.944   5.570  0.00  0.00    -0.251 OA
BRANCH  16  18
ATOM     18  O   UNL     1       4.733  -1.056   5.763  0.00  0.00    -0.480 OA
ATOM     19  H   UNL     1       4.179  -1.682   5.250  0.00  0.00    +0.295 HD
ENDBRANCH  16  18
ENDBRANCH   3  16
BRANCH   1  20
ATOM     20  C   UNL     1       4.633  -1.461   0.180  0.00  0.00    +0.085 C 
BRANCH  20  21
ATOM     21  N   UNL     1       5.297  -2.766   0.386  0.00  0.00    -0.312 N 
ATOM     22  H   UNL     1       4.961  -3.337   1.154  0.00  0.00    +0.149 HD
ATOM     23  C   UNL     1       6.306  -3.252  -0.414  0.00  0.00    +0.210 C 
ATOM     24  C   UNL     1       6.777  -4.635  -0.044  0.00  0.00    +0.109 C 
ATOM     25  O   UNL     1       6.798  -2.634  -1.352  0.00  0.00    -0.276 OA
ENDBRANCH  20  21
BRANCH  20  26
ATOM     26  C   UNL     1       3.117  -1.727  -0.122  0.00  0.00    +0.009 C 
BRANCH  26  28
ATOM     27  C   UNL     1       2.758   0.408  -1.573  0.00  0.00    +0.004 C 
ATOM     28  C   UNL     1       2.248  -0.501  -0.465  0.00  0.00    +0.002 C 
ENDBRANCH  26  28
BRANCH  26  29
ATOM     29  C   UNL     1       2.853  -2.874  -1.150  0.00  0.00    +0.002 C 
ATOM     30  C   UNL     1       3.363  -2.691  -2.570  0.00  0.00    +0.004 C 
ENDBRANCH  26  29
ENDBRANCH  20  26
ENDBRANCH   1  20
TORSDOF 9
REMARK  Name = 
REMARK  12 active torsions:
REMARK  status: ('A' for Active; 'I' for Inactive)
REMARK    1  A    between atoms: C_1  and  C_2
REMARK    2  A    between atoms: C_2  and  C_3
REMARK    3  A    between atoms: C_3  and  C_4
REMARK    4  A    between atoms: C_3  and  C_6
REMARK    5  A    between atoms: C_4  and  C_5
REMARK    6  A    between atoms: C_6  and  C_8
REMARK    7  A    between atoms: C_6  and  N_25
REMARK    8  A    between atoms: C_10  and  N_21
REMARK    9  A    between atoms: C_13  and  C_18
REMARK   10  A    between atoms: C_15  and  O_17
REMARK   11  A    between atoms: C_18  and  O_20
REMARK   12  A    between atoms: C_26  and  C_28
REMARK                            x       y       z     vdW  Elec       q    Type
REMARK                         _______ _______ _______ _____ _____    ______ ____
ROOT
ATOM      1  O   HOH     1       0.050  -3.157   1.133  0.00  0.00    -0.410 OA
ATOM      2  H   HOH     0      -0.424  -2.502   0.596  0.00  0.00    +0.205 HD
ATOM      3  H   HOH     0       0.634  -2.628   1.690  0.00  0.00    +0.205 HD
ENDROOT
TORSDOF 0
REMARK  Name = 
REMARK  12 active torsions:
REMARK  status: ('A' for Active; 'I' for Inactive)
REMARK    1  A    between atoms: C_1  and  C_2
REMARK    2  A    between atoms: C_2  and  C_3
REMARK    3  A    between atoms: C_3  and  C_4
REMARK    4  A    between atoms: C_3  and  C_6
REMARK    5  A    between atoms: C_4  and  C_5
REMARK    6  A    between atoms: C_6  and  C_8
REMARK    7  A    between atoms: C_6  and  N_25
REMARK    8  A    between atoms: C_10  and  N_21
REMARK    9  A    between atoms: C_13  and  C_18
REMARK   10  A    between atoms: C_15  and  O_17
REMARK   11  A    between atoms: C_18  and  O_20
REMARK   12  A    between atoms: C_26  and  C_28
REMARK                            x       y       z     vdW  Elec       q    Type
REMARK                         _______ _______ _______ _____ _____    ______ ____
ROOT
ATOM      1  O   HOH     1       1.362   2.758   0.246  0.00  0.00    -0.410 OA
ATOM      2  H   HOH     0       1.393   3.042   1.172  0.00  0.00    +0.205 HD
ATOM      3  H   HOH     0       2.291   2.904  -0.029  0.00  0.00    +0.205 HD
ENDROOT
TORSDOF 0
REMARK  Name = 
REMARK  12 active torsions:
REMARK  status: ('A' for Active; 'I' for Inactive)
REMARK    1  A    between atoms: C_1  and  C_2
REMARK    2  A    between atoms: C_2  and  C_3
REMARK    3  A    between atoms: C_3  and  C_4
REMARK    4  A    between atoms: C_3  and  C_6
REMARK    5  A    between atoms: C_4  and  C_5
REMARK    6  A    between atoms: C_6  and  C_8
REMARK    7  A    between atoms: C_6  and  N_25
REMARK    8  A    between atoms: C_10  and  N_21
REMARK    9  A    between atoms: C_13  and  C_18
REMARK   10  A    between atoms: C_15  and  O_17
REMARK   11  A    between atoms: C_18  and  O_20
REMARK   12  A    between atoms: C_26  and  C_28
REMARK                            x       y       z     vdW  Elec       q    Type
REMARK                         _______ _______ _______ _____ _____    ______ ____
ROOT
ATOM      1  O   HOH     1      -0.619   1.326  -1.834  0.00  0.00    -0.410 OA
ATOM      2  H   HOH     0      -0.152   1.990  -1.292  0.00  0.00    +0.205 HD
ATOM      3  H   HOH     0       0.108   0.869  -2.286  0.00  0.00    +0.205 HD
ENDROOT
TORSDOF 0
