REMARK  Name = 
REMARK  9 active torsions:
REMARK  status: ('A' for Active; 'I' for Inactive)
REMARK    1  A    between atoms: C_1  and  C_2
REMARK    2  A    between atoms: N_4  and  C_5
REMARK    3  A    between atoms: C_7  and  N_24
REMARK    4  A    between atoms: C_10  and  C_21
REMARK    5  A    between atoms: C_13  and  C_16
REMARK    6  A    between atoms: C_16  and  C_18
REMARK    7  A    between atoms: C_16  and  O_20
REMARK    8  A    between atoms: C_18  and  O_19
REMARK    9  A    between atoms: C_21  and  O_23
REMARK                            x       y       z     vdW  Elec       q    Type
REMARK                         _______ _______ _______ _____ _____    ______ ____
ROOT
ATOM      1  C   UNL     1       4.945  -0.169  -1.308  0.00  0.00    +0.192 C 
ATOM      2  C   UNL     1       5.257  -1.652  -1.269  0.00  0.00    +0.264 C 
ATOM      3  O   UNL     1       4.178  -2.537  -1.610  0.00  0.00    -0.323 OA
ATOM      4  C   UNL     1       5.198  -2.393  -2.601  0.00  0.00    +0.227 C 
ATOM      5  O   UNL     1       6.202  -2.162  -0.301  0.00  0.00    -0.449 OA
ATOM      6  C   UNL     1       6.288  -1.469   0.892  0.00  0.00    +0.207 C 
ATOM      7  C   UNL     1       5.773  -0.252   1.104  0.00  0.00    +0.072 C 
ATOM      8  C   UNL     1       5.051   0.538   0.069  0.00  0.00    +0.241 C 
ENDROOT
BRANCH   8   9
ATOM      9  N   UNL     1       3.693   0.826   0.553  0.00  0.00    -0.104 NA
ATOM     10  C   UNL     1       3.454   1.850   1.278  0.00  0.00    +0.377 C 
ATOM     11  N   UNL     1       2.195   2.111   1.687  0.00  0.00    -0.289 N 
ATOM     12  H   UNL     1       2.143   2.419   2.652  0.00  0.00    +0.255 HD
ATOM     13  H   UNL     1       1.592   1.308   1.534  0.00  0.00    +0.255 HD
ATOM     14  N   UNL     1       4.287   2.791   1.774  0.00  0.00    -0.289 N 
ATOM     15  H   UNL     1       3.888   3.723   1.772  0.00  0.00    +0.255 HD
ATOM     16  H   UNL     1       5.236   2.790   1.429  0.00  0.00    +0.255 HD
ENDBRANCH   8   9
BRANCH   1  19
ATOM     17  C   UNL     1       7.623   1.224  -3.648  0.00  0.00    +0.109 C 
ATOM     18  C   UNL     1       7.082   0.411  -2.505  0.00  0.00    +0.210 C 
ATOM     19  N   UNL     1       5.720   0.515  -2.360  0.00  0.00    -0.303 N 
ATOM     20  H   UNL     1       5.215   1.170  -2.944  0.00  0.00    +0.149 HD
ATOM     21  O   UNL     1       7.798  -0.285  -1.795  0.00  0.00    -0.276 OA
ENDBRANCH   1  19
BRANCH   6  22
ATOM     22  C   UNL     1       7.067  -2.096   2.004  0.00  0.00    +0.372 C 
ATOM     23  O   UNL     1       7.306  -1.573   3.081  0.00  0.00    -0.242 OA
BRANCH  22  24
ATOM     24  O   UNL     1       7.496  -3.333   1.671  0.00  0.00    -0.475 OA
ATOM     25  H   UNL     1       7.221  -3.558   0.762  0.00  0.00    +0.296 HD
ENDBRANCH  22  24
ENDBRANCH   6  22
BRANCH   4  26
ATOM     26  C   UNL     1       6.066  -3.569  -2.896  0.00  0.00    +0.175 C 
BRANCH  26  27
ATOM     27  O   UNL     1       5.952  -3.871  -4.297  0.00  0.00    -0.387 OA
ATOM     28  H   UNL     1       6.171  -4.821  -4.384  0.00  0.00    +0.210 HD
ENDBRANCH  26  27
BRANCH  26  29
ATOM     29  C   UNL     1       5.725  -4.838  -2.108  0.00  0.00    +0.190 C 
BRANCH  29  30
ATOM     30  O   UNL     1       6.542  -5.915  -2.581  0.00  0.00    -0.392 OA
ATOM     31  H   UNL     1       7.472  -5.676  -2.420  0.00  0.00    +0.210 HD
ENDBRANCH  29  30
ENDBRANCH  26  29
ENDBRANCH   4  26
TORSDOF 8
