REMARK  Name = 
REMARK  9 active torsions:
REMARK  status: ('A' for Active; 'I' for Inactive)
REMARK    1  A    between atoms: C_1  and  C_2
REMARK    2  A    between atoms: N_4  and  C_5
REMARK    3  A    between atoms: C_7  and  N_24
REMARK    4  A    between atoms: C_10  and  C_21
REMARK    5  A    between atoms: C_13  and  C_16
REMARK    6  A    between atoms: C_16  and  C_18
REMARK    7  A    between atoms: C_16  and  O_20
REMARK    8  A    between atoms: C_18  and  O_19
REMARK    9  A    between atoms: C_21  and  O_23
REMARK                            x       y       z     vdW  Elec       q    Type
REMARK                         _______ _______ _______ _____ _____    ______ ____
ROOT
ATOM      1  C   UNL     1       4.869  -1.151  -0.222  0.00  0.00    +0.192 C 
ATOM      2  C   UNL     1       5.393  -0.396  -1.444  0.00  0.00    +0.264 C 
ATOM      3  O   UNL     1       4.429   0.614  -1.829  0.00  0.00    -0.323 OA
ATOM      4  C   UNL     1       5.690   1.112  -1.391  0.00  0.00    +0.227 C 
ATOM      5  O   UNL     1       5.972  -1.114  -2.556  0.00  0.00    -0.449 OA
ATOM      6  C   UNL     1       6.351  -2.423  -2.354  0.00  0.00    +0.207 C 
ATOM      7  C   UNL     1       5.978  -3.176  -1.313  0.00  0.00    +0.072 C 
ATOM      8  C   UNL     1       5.164  -2.674  -0.180  0.00  0.00    +0.241 C 
ENDROOT
BRANCH   8   9
ATOM      9  N   UNL     1       3.873  -3.379  -0.149  0.00  0.00    -0.104 NA
ATOM     10  C   UNL     1       3.752  -4.494   0.460  0.00  0.00    +0.377 C 
ATOM     11  N   UNL     1       2.543  -5.092   0.534  0.00  0.00    -0.289 N 
ATOM     12  H   UNL     1       2.589  -6.093   0.380  0.00  0.00    +0.255 HD
ATOM     13  H   UNL     1       1.888  -4.656  -0.108  0.00  0.00    +0.255 HD
ATOM     14  N   UNL     1       4.672  -5.257   1.087  0.00  0.00    -0.289 N 
ATOM     15  H   UNL     1       4.329  -5.686   1.938  0.00  0.00    +0.255 HD
ATOM     16  H   UNL     1       5.589  -4.849   1.217  0.00  0.00    +0.255 HD
ENDBRANCH   8   9
BRANCH   1  19
ATOM     17  C   UNL     1       6.683   0.260   2.821  0.00  0.00    +0.109 C 
ATOM     18  C   UNL     1       6.534  -0.455   1.508  0.00  0.00    +0.210 C 
ATOM     19  N   UNL     1       5.244  -0.483   1.038  0.00  0.00    -0.303 N 
ATOM     20  H   UNL     1       4.489  -0.157   1.628  0.00  0.00    +0.149 HD
ATOM     21  O   UNL     1       7.483  -0.940   0.904  0.00  0.00    -0.276 OA
ENDBRANCH   1  19
BRANCH   6  22
ATOM     22  C   UNL     1       7.217  -3.060  -3.398  0.00  0.00    +0.372 C 
ATOM     23  O   UNL     1       7.591  -4.219  -3.398  0.00  0.00    -0.242 OA
BRANCH  22  24
ATOM     24  O   UNL     1       7.544  -2.172  -4.364  0.00  0.00    -0.475 OA
ATOM     25  H   UNL     1       7.170  -1.292  -4.154  0.00  0.00    +0.296 HD
ENDBRANCH  22  24
ENDBRANCH   6  22
BRANCH   4  26
ATOM     26  C   UNL     1       6.352   1.934  -2.453  0.00  0.00    +0.175 C 
BRANCH  26  27
ATOM     27  O   UNL     1       7.652   1.413  -2.733  0.00  0.00    -0.387 OA
ATOM     28  H   UNL     1       7.783   1.511  -3.693  0.00  0.00    +0.210 HD
ENDBRANCH  26  27
BRANCH  26  29
ATOM     29  C   UNL     1       6.479   3.397  -1.993  0.00  0.00    +0.190 C 
BRANCH  29  30
ATOM     30  O   UNL     1       7.021   4.210  -3.031  0.00  0.00    -0.392 OA
ATOM     31  H   UNL     1       7.958   3.954  -3.113  0.00  0.00    +0.210 HD
ENDBRANCH  29  30
ENDBRANCH  26  29
ENDBRANCH   4  26
TORSDOF 8
