REMARK  Name = 
REMARK  44 active torsions:
REMARK  status: ('A' for Active; 'I' for Inactive)
REMARK    1  A    between atoms: C_1  and  C_2
REMARK    2  A    between atoms: C_3  and  O_9
REMARK    3  A    between atoms: C_4  and  C_8
REMARK    4  A    between atoms: O_9  and  C_10
REMARK    5  A    between atoms: C_10  and  C_11
REMARK    6  A    between atoms: N_13  and  C_14
REMARK    7  A    between atoms: C_14  and  C_16
REMARK    8  A    between atoms: C_14  and  C_23
REMARK    9  A    between atoms: C_16  and  C_17
REMARK   10  A    between atoms: C_23  and  C_25
REMARK   11  A    between atoms: C_23  and  O_50
REMARK   12  A    between atoms: C_25  and  C_26
REMARK   13  A    between atoms: C_26  and  C_28
REMARK   14  A    between atoms: C_26  and  N_35
REMARK   15  A    between atoms: C_28  and  C_29
REMARK   16  A    between atoms: C_36  and  C_38
REMARK   17  A    between atoms: C_38  and  C_40
REMARK   18  A    between atoms: C_38  and  N_43
REMARK   19  A    between atoms: C_40  and  C_41
REMARK   20  A    between atoms: C_40  and  C_42
REMARK   21  A    between atoms: C_51  and  C_52
REMARK   22  A    between atoms: C_52  and  C_53
REMARK   23  A    between atoms: C_52  and  C_54
REMARK   24  A    between atoms: C_56  and  C_59
REMARK   25  A    between atoms: C_59  and  N_60
REMARK   26  A    between atoms: N_60  and  C_61
REMARK   27  A    between atoms: N_64  and  C_65
REMARK   28  A    between atoms: C_65  and  C_67
REMARK   29  A    between atoms: C_65  and  C_70
REMARK   30  A    between atoms: C_67  and  C_68
REMARK   31  A    between atoms: C_67  and  C_69
REMARK   32  A    between atoms: N_72  and  C_73
REMARK   33  A    between atoms: C_73  and  C_75
REMARK   34  A    between atoms: C_73  and  C_82
REMARK   35  A    between atoms: C_75  and  C_76
REMARK   36  A    between atoms: C_82  and  C_83
REMARK   37  A    between atoms: C_83  and  C_85
REMARK   38  A    between atoms: C_83  and  O_104
REMARK   39  A    between atoms: C_85  and  C_87
REMARK   40  A    between atoms: C_85  and  N_94
REMARK   41  A    between atoms: C_87  and  C_88
REMARK   42  A    between atoms: C_95  and  O_97
REMARK   43  A    between atoms: O_97  and  C_98
REMARK   44  A    between atoms: C_98  and  C_99
REMARK                            x       y       z     vdW  Elec       q    Type
REMARK                         _______ _______ _______ _____ _____    ______ ____
ROOT
ATOM      1  C   UNL     1       3.920  -5.753 -25.999  0.00  0.00    +0.137 C 
ENDROOT
BRANCH   1   2
ATOM      2  O   UNL     1       3.422  -7.094 -26.209  0.00  0.00    -0.390 OA
ATOM      3  H   UNL     1       3.896  -7.429 -26.977  0.00  0.00    +0.210 HD
ENDBRANCH   1   2
BRANCH   1   4
ATOM      4  C   UNL     1       4.177  -5.718 -24.476  0.00  0.00    +0.106 C 
BRANCH   4   6
ATOM      5  C   UNL     1       5.819  -7.013 -23.035  0.00  0.00    +0.251 C 
ATOM      6  N   UNL     1       5.220  -6.747 -24.228  0.00  0.00    -0.307 N 
ATOM      7  H   UNL     1       5.233  -7.501 -24.904  0.00  0.00    +0.149 HD
ATOM      8  O   UNL     1       5.851  -6.231 -22.086  0.00  0.00    -0.272 OA
BRANCH   5   9
ATOM      9  C   UNL     1       6.573  -8.334 -22.941  0.00  0.00    +0.324 C 
BRANCH   9  10
ATOM     10  O   UNL     1       6.107  -9.589 -23.366  0.00  0.00    -0.482 OA
BRANCH  10  18
ATOM     11  C   UNL     1       9.068  -9.361 -22.079  0.00  0.00    +0.047 C 
ATOM     12  C   UNL     1       8.324 -10.553 -22.643  0.00  0.00    -0.009 A 
ATOM     13  C   UNL     1       9.147 -11.698 -22.703  0.00  0.00    +0.007 A 
ATOM     14  C   UNL     1       8.682 -12.919 -23.164  0.00  0.00    +0.001 A 
ATOM     15  C   UNL     1       7.364 -13.030 -23.571  0.00  0.00    +0.007 A 
ATOM     16  C   UNL     1       6.511 -11.908 -23.581  0.00  0.00    -0.009 A 
ATOM     17  C   UNL     1       5.110 -12.158 -24.083  0.00  0.00    +0.047 C 
ATOM     18  C   UNL     1       6.998 -10.638 -23.162  0.00  0.00    +0.127 A 
ENDBRANCH  10  18
ENDBRANCH   9  10
ENDBRANCH   5   9
ENDBRANCH   4   6
BRANCH   4  19
ATOM     19  C   UNL     1       4.422  -4.307 -23.878  0.00  0.00    +0.060 C 
BRANCH  19  20
ATOM     20  C   UNL     1       5.641  -3.693 -24.505  0.00  0.00    -0.046 A 
ATOM     21  C   UNL     1       6.901  -3.997 -23.988  0.00  0.00    +0.004 A 
ATOM     22  C   UNL     1       8.038  -3.788 -24.751  0.00  0.00    +0.000 A 
ATOM     23  C   UNL     1       7.928  -3.227 -26.019  0.00  0.00    +0.000 A 
ATOM     24  C   UNL     1       6.686  -2.827 -26.502  0.00  0.00    +0.000 A 
ATOM     25  C   UNL     1       5.551  -3.021 -25.728  0.00  0.00    +0.004 A 
ENDBRANCH  19  20
ENDBRANCH   4  19
ENDBRANCH   1   4
BRANCH   1  26
ATOM     26  C   UNL     1       2.856  -4.778 -26.475  0.00  0.00    +0.055 C 
BRANCH  26  27
ATOM     27  C   UNL     1       2.554  -4.703 -27.977  0.00  0.00    +0.080 C 
BRANCH  27  28
ATOM     28  N   UNL     1       2.251  -6.059 -28.523  0.00  0.00    -0.311 N 
ATOM     29  H   UNL     1       1.400  -6.537 -28.246  0.00  0.00    +0.149 HD
ATOM     30  C   UNL     1       3.269  -6.819 -29.057  0.00  0.00    +0.234 C 
ATOM     31  O   UNL     1       4.336  -6.268 -29.340  0.00  0.00    -0.274 OA
BRANCH  30  32
ATOM     32  C   UNL     1       3.073  -8.386 -29.251  0.00  0.00    +0.166 C 
BRANCH  32  33
ATOM     33  N   UNL     1       2.284  -8.687 -30.429  0.00  0.00    -0.274 N 
ATOM     34  C   UNL     1       1.400  -9.728 -30.509  0.00  0.00    +0.303 C 
ATOM     35  O   UNL     1       0.981 -10.312 -29.537  0.00  0.00    -0.253 OA
ATOM     36  N   UNL     1       1.009 -10.137 -31.771  0.00  0.00    -0.299 N 
ATOM     37  H   UNL     1       0.324 -10.879 -31.816  0.00  0.00    +0.150 HD
ATOM     38  C   UNL     1       1.343  -9.465 -32.993  0.00  0.00    +0.107 C 
ATOM     39  C   UNL     1       2.707  -8.883 -32.827  0.00  0.00    +0.038 C 
ATOM     40  C   UNL     1       2.795  -8.040 -31.582  0.00  0.00    +0.111 C 
ENDBRANCH  32  33
BRANCH  32  41
ATOM     41  C   UNL     1       4.480  -9.017 -29.548  0.00  0.00    +0.012 C 
ATOM     42  C   UNL     1       4.403 -10.416 -30.150  0.00  0.00    +0.009 C 
ATOM     43  C   UNL     1       5.380  -8.987 -28.338  0.00  0.00    +0.009 C 
ENDBRANCH  32  41
ENDBRANCH  30  32
ENDBRANCH  27  28
BRANCH  27  44
ATOM     44  C   UNL     1       1.428  -3.685 -28.332  0.00  0.00    +0.057 C 
BRANCH  44  45
ATOM     45  C   UNL     1       1.495  -2.260 -27.822  0.00  0.00    -0.046 A 
ATOM     46  C   UNL     1       0.372  -1.667 -27.216  0.00  0.00    +0.004 A 
ATOM     47  C   UNL     1       0.362  -0.305 -26.898  0.00  0.00    +0.000 A 
ATOM     48  C   UNL     1       1.477   0.480 -27.173  0.00  0.00    +0.000 A 
ATOM     49  C   UNL     1       2.603  -0.098 -27.754  0.00  0.00    +0.000 A 
ATOM     50  C   UNL     1       2.612  -1.457 -28.083  0.00  0.00    +0.004 A 
ENDBRANCH  44  45
ENDBRANCH  27  44
ENDBRANCH  26  27
ENDBRANCH   1  26
TORSDOF 16
REMARK  Name = 
REMARK  44 active torsions:
REMARK  status: ('A' for Active; 'I' for Inactive)
REMARK    1  A    between atoms: C_1  and  C_2
REMARK    2  A    between atoms: C_3  and  O_9
REMARK    3  A    between atoms: C_4  and  C_8
REMARK    4  A    between atoms: O_9  and  C_10
REMARK    5  A    between atoms: C_10  and  C_11
REMARK    6  A    between atoms: N_13  and  C_14
REMARK    7  A    between atoms: C_14  and  C_16
REMARK    8  A    between atoms: C_14  and  C_23
REMARK    9  A    between atoms: C_16  and  C_17
REMARK   10  A    between atoms: C_23  and  C_25
REMARK   11  A    between atoms: C_23  and  O_50
REMARK   12  A    between atoms: C_25  and  C_26
REMARK   13  A    between atoms: C_26  and  C_28
REMARK   14  A    between atoms: C_26  and  N_35
REMARK   15  A    between atoms: C_28  and  C_29
REMARK   16  A    between atoms: C_36  and  C_38
REMARK   17  A    between atoms: C_38  and  C_40
REMARK   18  A    between atoms: C_38  and  N_43
REMARK   19  A    between atoms: C_40  and  C_41
REMARK   20  A    between atoms: C_40  and  C_42
REMARK   21  A    between atoms: C_51  and  C_52
REMARK   22  A    between atoms: C_52  and  C_53
REMARK   23  A    between atoms: C_52  and  C_54
REMARK   24  A    between atoms: C_56  and  C_59
REMARK   25  A    between atoms: C_59  and  N_60
REMARK   26  A    between atoms: N_60  and  C_61
REMARK   27  A    between atoms: N_64  and  C_65
REMARK   28  A    between atoms: C_65  and  C_67
REMARK   29  A    between atoms: C_65  and  C_70
REMARK   30  A    between atoms: C_67  and  C_68
REMARK   31  A    between atoms: C_67  and  C_69
REMARK   32  A    between atoms: N_72  and  C_73
REMARK   33  A    between atoms: C_73  and  C_75
REMARK   34  A    between atoms: C_73  and  C_82
REMARK   35  A    between atoms: C_75  and  C_76
REMARK   36  A    between atoms: C_82  and  C_83
REMARK   37  A    between atoms: C_83  and  C_85
REMARK   38  A    between atoms: C_83  and  O_104
REMARK   39  A    between atoms: C_85  and  C_87
REMARK   40  A    between atoms: C_85  and  N_94
REMARK   41  A    between atoms: C_87  and  C_88
REMARK   42  A    between atoms: C_95  and  O_97
REMARK   43  A    between atoms: O_97  and  C_98
REMARK   44  A    between atoms: C_98  and  C_99
REMARK                            x       y       z     vdW  Elec       q    Type
REMARK                         _______ _______ _______ _____ _____    ______ ____
ROOT
ATOM      1  C   UNL     1       0.039  -5.572 -30.995  0.00  0.00    +0.080 C 
ENDROOT
BRANCH   1   3
ATOM      2  C   UNL     1      -1.599  -7.118 -29.636  0.00  0.00    +0.234 C 
ATOM      3  N   UNL     1      -0.712  -6.058 -29.776  0.00  0.00    -0.311 N 
ATOM      4  H   UNL     1      -0.790  -5.379 -29.030  0.00  0.00    +0.149 HD
ATOM      5  O   UNL     1      -1.803  -7.909 -30.552  0.00  0.00    -0.274 OA
BRANCH   2   6
ATOM      6  C   UNL     1      -2.480  -7.121 -28.291  0.00  0.00    +0.163 C 
BRANCH   6   9
ATOM      7  N   UNL     1      -1.166  -5.978 -24.967  0.00  0.00    -0.283 N 
ATOM      8  C   UNL     1      -2.128  -6.519 -25.822  0.00  0.00    +0.303 C 
ATOM      9  N   UNL     1      -1.682  -6.636 -27.145  0.00  0.00    -0.288 N 
ATOM     10  H   UNL     1      -0.737  -6.982 -27.183  0.00  0.00    +0.151 HD
ATOM     11  O   UNL     1      -3.261  -6.803 -25.457  0.00  0.00    -0.253 OA
ATOM     12  C   UNL     1       0.035  -5.489 -25.517  0.00  0.00    +0.134 C 
BRANCH   7  13
ATOM     13  C   UNL     1      -1.408  -5.538 -23.594  0.00  0.00    +0.164 C 
BRANCH  13  17
ATOM     14  C   UNL     1       1.552  -6.586 -21.574  0.00  0.00    +0.081 A 
ATOM     15  S   UNL     1       0.468  -6.860 -20.273  0.00  0.00    -0.080 S 
ATOM     16  C   UNL     1      -0.803  -6.261 -21.225  0.00  0.00    +0.071 A 
ATOM     17  C   UNL     1      -0.417  -6.046 -22.536  0.00  0.00    +0.066 A 
ATOM     18  N   UNL     1       0.975  -6.193 -22.709  0.00  0.00    -0.247 NA
BRANCH  14  20
ATOM     19  C   UNL     1       3.581  -6.410 -19.985  0.00  0.00    +0.014 C 
ATOM     20  C   UNL     1       3.034  -6.812 -21.361  0.00  0.00    +0.038 C 
ATOM     21  C   UNL     1       3.419  -8.255 -21.701  0.00  0.00    +0.014 C 
ENDBRANCH  14  20
ENDBRANCH  13  17
ENDBRANCH   7  13
ENDBRANCH   6   9
BRANCH   6  22
ATOM     22  C   UNL     1      -3.782  -6.302 -28.489  0.00  0.00    +0.012 C 
ATOM     23  C   UNL     1      -4.710  -6.972 -29.506  0.00  0.00    +0.009 C 
ATOM     24  C   UNL     1      -3.517  -4.847 -28.883  0.00  0.00    +0.009 C 
ENDBRANCH   6  22
ENDBRANCH   2   6
ENDBRANCH   1   3
BRANCH   1  25
ATOM     25  C   UNL     1      -0.663  -4.339 -31.585  0.00  0.00    +0.055 C 
BRANCH  25  26
ATOM     26  C   UNL     1       0.284  -3.825 -32.647  0.00  0.00    +0.137 C 
BRANCH  26  27
ATOM     27  O   UNL     1       1.461  -3.393 -31.975  0.00  0.00    -0.390 OA
ATOM     28  H   UNL     1       2.149  -4.060 -32.118  0.00  0.00    +0.210 HD
ENDBRANCH  26  27
BRANCH  26  29
ATOM     29  C   UNL     1      -0.143  -2.970 -33.807  0.00  0.00    +0.109 C 
BRANCH  29  30
ATOM     30  N   UNL     1       0.980  -2.816 -34.753  0.00  0.00    -0.275 N 
ATOM     31  H   UNL     1       0.967  -3.244 -35.671  0.00  0.00    +0.152 HD
ATOM     32  C   UNL     1       1.972  -1.924 -34.499  0.00  0.00    +0.401 C 
ATOM     33  O   UNL     1       2.107  -1.307 -33.453  0.00  0.00    -0.226 OA
BRANCH  32  34
ATOM     34  O   UNL     1       2.723  -1.721 -35.603  0.00  0.00    -0.445 OA
BRANCH  34  35
ATOM     35  C   UNL     1       3.336  -0.432 -35.570  0.00  0.00    +0.278 C 
BRANCH  35  36
ATOM     36  C   UNL     1       4.809  -0.589 -35.521  0.00  0.00    +0.046 A 
ATOM     37  S   UNL     1       5.741  -0.586 -36.957  0.00  0.00    -0.077 S 
ATOM     38  C   UNL     1       7.164  -0.643 -36.007  0.00  0.00    +0.156 A 
ATOM     39  N   UNL     1       6.996  -0.690 -34.704  0.00  0.00    -0.255 NA
ATOM     40  C   UNL     1       5.642  -0.670 -34.422  0.00  0.00    +0.125 A 
ENDBRANCH  35  36
ENDBRANCH  34  35
ENDBRANCH  32  34
ENDBRANCH  29  30
BRANCH  29  41
ATOM     41  C   UNL     1      -1.341  -3.623 -34.549  0.00  0.00    +0.060 C 
BRANCH  41  42
ATOM     42  C   UNL     1      -2.020  -2.558 -35.353  0.00  0.00    -0.046 A 
ATOM     43  C   UNL     1      -2.378  -1.378 -34.719  0.00  0.00    +0.004 A 
ATOM     44  C   UNL     1      -2.785  -0.281 -35.459  0.00  0.00    +0.000 A 
ATOM     45  C   UNL     1      -2.893  -0.371 -36.843  0.00  0.00    +0.000 A 
ATOM     46  C   UNL     1      -2.624  -1.591 -37.471  0.00  0.00    +0.000 A 
ATOM     47  C   UNL     1      -2.172  -2.681 -36.734  0.00  0.00    +0.004 A 
ENDBRANCH  41  42
ENDBRANCH  29  41
ENDBRANCH  26  29
ENDBRANCH  25  26
ENDBRANCH   1  25
BRANCH   1  48
ATOM     48  C   UNL     1       0.347  -6.544 -32.204  0.00  0.00    +0.057 C 
BRANCH  48  49
ATOM     49  C   UNL     1       1.528  -6.326 -33.417  0.00  0.00    -0.046 A 
ATOM     50  C   UNL     1       1.143  -6.770 -34.694  0.00  0.00    +0.004 A 
ATOM     51  C   UNL     1       2.093  -7.056 -35.693  0.00  0.00    +0.000 A 
ATOM     52  C   UNL     1       3.459  -6.842 -35.484  0.00  0.00    +0.000 A 
ATOM     53  C   UNL     1       3.873  -6.227 -34.306  0.00  0.00    +0.000 A 
ATOM     54  C   UNL     1       2.917  -5.918 -33.299  0.00  0.00    +0.004 A 
ENDBRANCH  48  49
ENDBRANCH   1  48
TORSDOF 19
