REMARK  Name = 
REMARK  44 active torsions:
REMARK  status: ('A' for Active; 'I' for Inactive)
REMARK    1  A    between atoms: C_1  and  C_2
REMARK    2  A    between atoms: C_3  and  O_9
REMARK    3  A    between atoms: C_4  and  C_8
REMARK    4  A    between atoms: O_9  and  C_10
REMARK    5  A    between atoms: C_10  and  C_11
REMARK    6  A    between atoms: N_13  and  C_14
REMARK    7  A    between atoms: C_14  and  C_16
REMARK    8  A    between atoms: C_14  and  C_23
REMARK    9  A    between atoms: C_16  and  C_17
REMARK   10  A    between atoms: C_23  and  C_25
REMARK   11  A    between atoms: C_23  and  O_50
REMARK   12  A    between atoms: C_25  and  C_26
REMARK   13  A    between atoms: C_26  and  C_28
REMARK   14  A    between atoms: C_26  and  N_35
REMARK   15  A    between atoms: C_28  and  C_29
REMARK   16  A    between atoms: C_36  and  C_38
REMARK   17  A    between atoms: C_38  and  C_40
REMARK   18  A    between atoms: C_38  and  N_43
REMARK   19  A    between atoms: C_40  and  C_41
REMARK   20  A    between atoms: C_40  and  C_42
REMARK   21  A    between atoms: C_51  and  C_52
REMARK   22  A    between atoms: C_52  and  C_53
REMARK   23  A    between atoms: C_52  and  C_54
REMARK   24  A    between atoms: C_56  and  C_59
REMARK   25  A    between atoms: C_59  and  N_60
REMARK   26  A    between atoms: N_60  and  C_61
REMARK   27  A    between atoms: N_64  and  C_65
REMARK   28  A    between atoms: C_65  and  C_67
REMARK   29  A    between atoms: C_65  and  C_70
REMARK   30  A    between atoms: C_67  and  C_68
REMARK   31  A    between atoms: C_67  and  C_69
REMARK   32  A    between atoms: N_72  and  C_73
REMARK   33  A    between atoms: C_73  and  C_75
REMARK   34  A    between atoms: C_73  and  C_82
REMARK   35  A    between atoms: C_75  and  C_76
REMARK   36  A    between atoms: C_82  and  C_83
REMARK   37  A    between atoms: C_83  and  C_85
REMARK   38  A    between atoms: C_83  and  O_104
REMARK   39  A    between atoms: C_85  and  C_87
REMARK   40  A    between atoms: C_85  and  N_94
REMARK   41  A    between atoms: C_87  and  C_88
REMARK   42  A    between atoms: C_95  and  O_97
REMARK   43  A    between atoms: O_97  and  C_98
REMARK   44  A    between atoms: C_98  and  C_99
REMARK                            x       y       z     vdW  Elec       q    Type
REMARK                         _______ _______ _______ _____ _____    ______ ____
ROOT
ATOM      1  C   UNL     1       3.944  -2.719  -0.613  0.00  0.00    +0.137 C 
ENDROOT
BRANCH   1   2
ATOM      2  O   UNL     1       2.838  -2.603  -1.521  0.00  0.00    -0.390 OA
ATOM      3  H   UNL     1       2.772  -1.674  -1.803  0.00  0.00    +0.210 HD
ENDBRANCH   1   2
BRANCH   1   4
ATOM      4  C   UNL     1       3.520  -2.197   0.768  0.00  0.00    +0.055 C 
BRANCH   4   5
ATOM      5  C   UNL     1       3.288  -0.666   0.838  0.00  0.00    +0.080 C 
BRANCH   5   6
ATOM      6  N   UNL     1       2.730  -0.339   2.146  0.00  0.00    -0.311 N 
ATOM      7  H   UNL     1       3.329  -0.026   2.895  0.00  0.00    +0.149 HD
ATOM      8  C   UNL     1       1.387  -0.515   2.358  0.00  0.00    +0.234 C 
ATOM      9  O   UNL     1       0.652  -0.858   1.442  0.00  0.00    -0.274 OA
BRANCH   8  10
ATOM     10  C   UNL     1       0.890  -0.326   3.824  0.00  0.00    +0.166 C 
BRANCH  10  11
ATOM     11  N   UNL     1      -0.481   0.231   3.937  0.00  0.00    -0.274 N 
ATOM     12  C   UNL     1      -0.753   1.125   4.949  0.00  0.00    +0.303 C 
ATOM     13  O   UNL     1       0.094   1.574   5.716  0.00  0.00    -0.253 OA
ATOM     14  N   UNL     1      -2.059   1.473   5.116  0.00  0.00    -0.299 N 
ATOM     15  H   UNL     1      -2.214   2.144   5.857  0.00  0.00    +0.150 HD
ATOM     16  C   UNL     1      -3.156   1.084   4.266  0.00  0.00    +0.107 C 
ATOM     17  C   UNL     1      -2.867  -0.212   3.555  0.00  0.00    +0.038 C 
ATOM     18  C   UNL     1      -1.494  -0.100   2.936  0.00  0.00    +0.111 C 
ENDBRANCH  10  11
BRANCH  10  19
ATOM     19  C   UNL     1       1.016  -1.626   4.680  0.00  0.00    +0.012 C 
ATOM     20  C   UNL     1       2.452  -2.138   4.806  0.00  0.00    +0.009 C 
ATOM     21  C   UNL     1       0.119  -2.769   4.195  0.00  0.00    +0.009 C 
ENDBRANCH  10  19
ENDBRANCH   8  10
ENDBRANCH   5   6
BRANCH   5  22
ATOM     22  C   UNL     1       4.548   0.182   0.573  0.00  0.00    +0.057 C 
BRANCH  22  23
ATOM     23  C   UNL     1       4.363   1.681   0.470  0.00  0.00    -0.046 A 
ATOM     24  C   UNL     1       3.195   2.264  -0.037  0.00  0.00    +0.004 A 
ATOM     25  C   UNL     1       3.105   3.645  -0.210  0.00  0.00    +0.000 A 
ATOM     26  C   UNL     1       4.185   4.460   0.118  0.00  0.00    +0.000 A 
ATOM     27  C   UNL     1       5.352   3.894   0.628  0.00  0.00    +0.000 A 
ATOM     28  C   UNL     1       5.443   2.514   0.799  0.00  0.00    +0.004 A 
ENDBRANCH  22  23
ENDBRANCH   5  22
ENDBRANCH   4   5
ENDBRANCH   1   4
BRANCH   1  29
ATOM     29  C   UNL     1       4.421  -4.206  -0.603  0.00  0.00    +0.106 C 
BRANCH  29  31
ATOM     30  C   UNL     1       4.851  -5.917  -2.403  0.00  0.00    +0.251 C 
ATOM     31  N   UNL     1       4.723  -4.614  -1.990  0.00  0.00    -0.307 N 
ATOM     32  H   UNL     1       4.739  -3.888  -2.696  0.00  0.00    +0.149 HD
ATOM     33  O   UNL     1       4.829  -6.875  -1.633  0.00  0.00    -0.272 OA
BRANCH  30  34
ATOM     34  C   UNL     1       5.177  -6.093  -3.887  0.00  0.00    +0.324 C 
BRANCH  34  35
ATOM     35  O   UNL     1       4.210  -5.710  -4.838  0.00  0.00    -0.482 OA
BRANCH  35  43
ATOM     36  C   UNL     1       7.021  -6.642  -6.109  0.00  0.00    +0.047 C 
ATOM     37  C   UNL     1       5.708  -6.309  -6.773  0.00  0.00    -0.009 A 
ATOM     38  C   UNL     1       5.795  -6.346  -8.187  0.00  0.00    +0.007 A 
ATOM     39  C   UNL     1       4.712  -6.062  -9.005  0.00  0.00    +0.001 A 
ATOM     40  C   UNL     1       3.504  -5.720  -8.427  0.00  0.00    +0.007 A 
ATOM     41  C   UNL     1       3.376  -5.630  -7.027  0.00  0.00    -0.009 A 
ATOM     42  C   UNL     1       2.019  -5.211  -6.516  0.00  0.00    +0.047 C 
ATOM     43  C   UNL     1       4.485  -5.908  -6.177  0.00  0.00    +0.127 A 
ENDBRANCH  35  43
ENDBRANCH  34  35
ENDBRANCH  30  34
ENDBRANCH  29  31
BRANCH  29  44
ATOM     44  C   UNL     1       5.601  -4.514   0.374  0.00  0.00    +0.060 C 
BRANCH  44  45
ATOM     45  C   UNL     1       6.878  -3.767   0.048  0.00  0.00    -0.046 A 
ATOM     46  C   UNL     1       7.998  -4.429  -0.451  0.00  0.00    +0.004 A 
ATOM     47  C   UNL     1       9.079  -3.697  -0.952  0.00  0.00    +0.000 A 
ATOM     48  C   UNL     1       9.036  -2.303  -0.987  0.00  0.00    +0.000 A 
ATOM     49  C   UNL     1       7.967  -1.637  -0.410  0.00  0.00    +0.000 A 
ATOM     50  C   UNL     1       6.942  -2.377   0.168  0.00  0.00    +0.004 A 
ENDBRANCH  44  45
ENDBRANCH  29  44
ENDBRANCH   1  29
TORSDOF 16
REMARK  Name = 
REMARK  44 active torsions:
REMARK  status: ('A' for Active; 'I' for Inactive)
REMARK    1  A    between atoms: C_1  and  C_2
REMARK    2  A    between atoms: C_3  and  O_9
REMARK    3  A    between atoms: C_4  and  C_8
REMARK    4  A    between atoms: O_9  and  C_10
REMARK    5  A    between atoms: C_10  and  C_11
REMARK    6  A    between atoms: N_13  and  C_14
REMARK    7  A    between atoms: C_14  and  C_16
REMARK    8  A    between atoms: C_14  and  C_23
REMARK    9  A    between atoms: C_16  and  C_17
REMARK   10  A    between atoms: C_23  and  C_25
REMARK   11  A    between atoms: C_23  and  O_50
REMARK   12  A    between atoms: C_25  and  C_26
REMARK   13  A    between atoms: C_26  and  C_28
REMARK   14  A    between atoms: C_26  and  N_35
REMARK   15  A    between atoms: C_28  and  C_29
REMARK   16  A    between atoms: C_36  and  C_38
REMARK   17  A    between atoms: C_38  and  C_40
REMARK   18  A    between atoms: C_38  and  N_43
REMARK   19  A    between atoms: C_40  and  C_41
REMARK   20  A    between atoms: C_40  and  C_42
REMARK   21  A    between atoms: C_51  and  C_52
REMARK   22  A    between atoms: C_52  and  C_53
REMARK   23  A    between atoms: C_52  and  C_54
REMARK   24  A    between atoms: C_56  and  C_59
REMARK   25  A    between atoms: C_59  and  N_60
REMARK   26  A    between atoms: N_60  and  C_61
REMARK   27  A    between atoms: N_64  and  C_65
REMARK   28  A    between atoms: C_65  and  C_67
REMARK   29  A    between atoms: C_65  and  C_70
REMARK   30  A    between atoms: C_67  and  C_68
REMARK   31  A    between atoms: C_67  and  C_69
REMARK   32  A    between atoms: N_72  and  C_73
REMARK   33  A    between atoms: C_73  and  C_75
REMARK   34  A    between atoms: C_73  and  C_82
REMARK   35  A    between atoms: C_75  and  C_76
REMARK   36  A    between atoms: C_82  and  C_83
REMARK   37  A    between atoms: C_83  and  C_85
REMARK   38  A    between atoms: C_83  and  O_104
REMARK   39  A    between atoms: C_85  and  C_87
REMARK   40  A    between atoms: C_85  and  N_94
REMARK   41  A    between atoms: C_87  and  C_88
REMARK   42  A    between atoms: C_95  and  O_97
REMARK   43  A    between atoms: O_97  and  C_98
REMARK   44  A    between atoms: C_98  and  C_99
REMARK                            x       y       z     vdW  Elec       q    Type
REMARK                         _______ _______ _______ _____ _____    ______ ____
ROOT
ATOM      1  C   UNL     1       1.756 -12.001   0.557  0.00  0.00    +0.080 C 
ENDROOT
BRANCH   1   3
ATOM      2  C   UNL     1      -0.308 -13.397  -0.090  0.00  0.00    +0.234 C 
ATOM      3  N   UNL     1       1.027 -13.288   0.263  0.00  0.00    -0.311 N 
ATOM      4  H   UNL     1       1.574 -14.140   0.299  0.00  0.00    +0.149 HD
ATOM      5  O   UNL     1      -1.095 -12.445  -0.145  0.00  0.00    -0.274 OA
BRANCH   2   6
ATOM      6  C   UNL     1      -0.846 -14.776  -0.512  0.00  0.00    +0.163 C 
BRANCH   6   9
ATOM      7  N   UNL     1      -4.403 -15.157   0.574  0.00  0.00    -0.283 N 
ATOM      8  C   UNL     1      -3.127 -15.590   0.237  0.00  0.00    +0.303 C 
ATOM      9  N   UNL     1      -2.274 -14.618  -0.178  0.00  0.00    -0.288 N 
ATOM     10  H   UNL     1      -2.558 -13.651  -0.095  0.00  0.00    +0.151 HD
ATOM     11  O   UNL     1      -2.777 -16.767   0.249  0.00  0.00    -0.253 OA
ATOM     12  C   UNL     1      -4.829 -13.762   0.638  0.00  0.00    +0.134 C 
BRANCH   7  13
ATOM     13  C   UNL     1      -5.418 -16.174   0.831  0.00  0.00    +0.164 C 
BRANCH  13  17
ATOM     14  C   UNL     1      -6.113 -16.195   4.415  0.00  0.00    +0.081 A 
ATOM     15  S   UNL     1      -7.798 -16.257   4.042  0.00  0.00    -0.080 S 
ATOM     16  C   UNL     1      -7.432 -16.011   2.396  0.00  0.00    +0.071 A 
ATOM     17  C   UNL     1      -6.067 -16.090   2.187  0.00  0.00    +0.066 A 
ATOM     18  N   UNL     1      -5.319 -16.171   3.360  0.00  0.00    -0.247 NA
BRANCH  14  20
ATOM     19  C   UNL     1      -4.153 -15.961   5.984  0.00  0.00    +0.014 C 
ATOM     20  C   UNL     1      -5.666 -16.163   5.863  0.00  0.00    +0.038 C 
ATOM     21  C   UNL     1      -6.379 -15.041   6.632  0.00  0.00    +0.014 C 
ENDBRANCH  14  20
ENDBRANCH  13  17
ENDBRANCH   7  13
ENDBRANCH   6   9
BRANCH   6  22
ATOM     22  C   UNL     1      -0.618 -14.946  -2.034  0.00  0.00    +0.012 C 
ATOM     23  C   UNL     1      -1.360 -16.152  -2.611  0.00  0.00    +0.009 C 
ATOM     24  C   UNL     1       0.872 -15.049  -2.384  0.00  0.00    +0.009 C 
ENDBRANCH   6  22
ENDBRANCH   2   6
ENDBRANCH   1   3
BRANCH   1  25
ATOM     25  C   UNL     1       2.401 -12.114   1.963  0.00  0.00    +0.055 C 
BRANCH  25  26
ATOM     26  C   UNL     1       3.289 -10.938   2.418  0.00  0.00    +0.137 C 
BRANCH  26  27
ATOM     27  O   UNL     1       4.390 -10.838   1.500  0.00  0.00    -0.390 OA
ATOM     28  H   UNL     1       4.103 -10.285   0.749  0.00  0.00    +0.210 HD
ENDBRANCH  26  27
BRANCH  26  29
ATOM     29  C   UNL     1       3.875 -11.098   3.860  0.00  0.00    +0.109 C 
BRANCH  29  30
ATOM     30  N   UNL     1       4.918 -10.087   4.104  0.00  0.00    -0.275 N 
ATOM     31  H   UNL     1       5.053  -9.370   3.403  0.00  0.00    +0.152 HD
ATOM     32  C   UNL     1       5.902 -10.122   5.044  0.00  0.00    +0.401 C 
ATOM     33  O   UNL     1       6.783  -9.273   5.080  0.00  0.00    -0.226 OA
BRANCH  32  34
ATOM     34  O   UNL     1       5.822 -11.204   5.853  0.00  0.00    -0.445 OA
BRANCH  34  35
ATOM     35  C   UNL     1       6.997 -11.480   6.622  0.00  0.00    +0.278 C 
BRANCH  35  36
ATOM     36  C   UNL     1       6.689 -11.275   8.063  0.00  0.00    +0.046 A 
ATOM     37  S   UNL     1       6.006 -12.523   9.024  0.00  0.00    -0.077 S 
ATOM     38  C   UNL     1       6.118 -11.504  10.399  0.00  0.00    +0.156 A 
ATOM     39  N   UNL     1       6.613 -10.304  10.193  0.00  0.00    -0.255 NA
ATOM     40  C   UNL     1       6.928 -10.168   8.854  0.00  0.00    +0.125 A 
ENDBRANCH  35  36
ENDBRANCH  34  35
ENDBRANCH  32  34
ENDBRANCH  29  30
BRANCH  29  41
ATOM     41  C   UNL     1       2.810 -11.123   4.994  0.00  0.00    +0.060 C 
BRANCH  41  42
ATOM     42  C   UNL     1       2.165  -9.840   5.492  0.00  0.00    -0.046 A 
ATOM     43  C   UNL     1       1.397  -9.904   6.671  0.00  0.00    +0.004 A 
ATOM     44  C   UNL     1       0.866  -8.750   7.254  0.00  0.00    +0.000 A 
ATOM     45  C   UNL     1       1.086  -7.509   6.666  0.00  0.00    +0.000 A 
ATOM     46  C   UNL     1       1.806  -7.430   5.478  0.00  0.00    +0.000 A 
ATOM     47  C   UNL     1       2.329  -8.587   4.892  0.00  0.00    +0.004 A 
ENDBRANCH  41  42
ENDBRANCH  29  41
ENDBRANCH  26  29
ENDBRANCH  25  26
ENDBRANCH   1  25
BRANCH   1  48
ATOM     48  C   UNL     1       0.811 -10.799   0.361  0.00  0.00    +0.057 C 
BRANCH  48  49
ATOM     49  C   UNL     1       1.185  -9.364   0.548  0.00  0.00    -0.046 A 
ATOM     50  C   UNL     1       0.530  -8.645   1.578  0.00  0.00    +0.004 A 
ATOM     51  C   UNL     1       0.659  -7.269   1.671  0.00  0.00    +0.000 A 
ATOM     52  C   UNL     1       1.419  -6.592   0.727  0.00  0.00    +0.000 A 
ATOM     53  C   UNL     1       2.062  -7.302  -0.286  0.00  0.00    +0.000 A 
ATOM     54  C   UNL     1       1.980  -8.690  -0.369  0.00  0.00    +0.004 A 
ENDBRANCH  48  49
ENDBRANCH   1  48
TORSDOF 19
