REMARK  Name = 
REMARK  23 active torsions:
REMARK  status: ('A' for Active; 'I' for Inactive)
REMARK    1  A    between atoms: C_1  and  C_2
REMARK    2  A    between atoms: C_2  and  C_4
REMARK    3  A    between atoms: C_2  and  O_15
REMARK    4  A    between atoms: C_4  and  N_5
REMARK    5  A    between atoms: C_9  and  N_14
REMARK    6  A    between atoms: O_15  and  C_16
REMARK    7  A    between atoms: C_16  and  P_17
REMARK    8  A    between atoms: P_17  and  O_19
REMARK    9  A    between atoms: P_17  and  O_28
REMARK   10  A    between atoms: O_19  and  C_20
REMARK   11  A    between atoms: C_20  and  O_21
REMARK   12  A    between atoms: O_21  and  C_22
REMARK   13  A    between atoms: C_22  and  O_24
REMARK   14  A    between atoms: O_24  and  C_25
REMARK   15  A    between atoms: C_25  and  C_26
REMARK   16  A    between atoms: C_25  and  C_27
REMARK   17  A    between atoms: O_28  and  C_29
REMARK   18  A    between atoms: C_29  and  O_30
REMARK   19  A    between atoms: O_30  and  C_31
REMARK   20  A    between atoms: C_31  and  O_33
REMARK   21  A    between atoms: O_33  and  C_34
REMARK   22  A    between atoms: C_34  and  C_35
REMARK   23  A    between atoms: C_34  and  C_36
REMARK                            x       y       z     vdW  Elec       q    Type
REMARK                         _______ _______ _______ _____ _____    ______ ____
ROOT
ATOM      1  P   UNL     1       5.089   1.155  -2.864  0.00  0.00    +0.364 P 
ATOM      2  O   UNL     1       6.142   0.037  -2.861  0.00  0.00    -0.256 OA
ENDROOT
BRANCH   1   3
ATOM      3  O   UNL     1       5.665   1.729  -4.391  0.00  0.00    -0.268 OA
BRANCH   3   4
ATOM      4  C   UNL     1       5.830   3.132  -4.385  0.00  0.00    +0.410 C 
BRANCH   4   5
ATOM      5  O   UNL     1       6.298   3.717  -5.598  0.00  0.00    -0.406 OA
BRANCH   5   6
ATOM      6  C   UNL     1       5.345   3.780  -6.553  0.00  0.00    +0.512 C 
ATOM      7  O   UNL     1       4.517   2.923  -6.803  0.00  0.00    -0.203 OA
BRANCH   6   8
ATOM      8  O   UNL     1       5.354   5.030  -7.085  0.00  0.00    -0.431 OA
BRANCH   8   9
ATOM      9  C   UNL     1       4.248   5.330  -7.959  0.00  0.00    +0.174 C 
ATOM     10  C   UNL     1       4.591   6.625  -8.683  0.00  0.00    +0.052 C 
ATOM     11  C   UNL     1       2.948   5.501  -7.170  0.00  0.00    +0.052 C 
ENDBRANCH   8   9
ENDBRANCH   6   8
ENDBRANCH   5   6
ENDBRANCH   4   5
ENDBRANCH   3   4
ENDBRANCH   1   3
BRANCH   1  12
ATOM     12  O   UNL     1       3.746   0.646  -3.691  0.00  0.00    -0.268 OA
BRANCH  12  13
ATOM     13  C   UNL     1       3.860  -0.341  -4.727  0.00  0.00    +0.410 C 
BRANCH  13  14
ATOM     14  O   UNL     1       4.288   0.056  -6.033  0.00  0.00    -0.406 OA
BRANCH  14  15
ATOM     15  C   UNL     1       3.292   0.443  -6.854  0.00  0.00    +0.512 C 
ATOM     16  O   UNL     1       2.159   0.750  -6.505  0.00  0.00    -0.203 OA
BRANCH  15  17
ATOM     17  O   UNL     1       3.722   0.356  -8.146  0.00  0.00    -0.431 OA
BRANCH  17  18
ATOM     18  C   UNL     1       2.762   0.769  -9.135  0.00  0.00    +0.174 C 
ATOM     19  C   UNL     1       1.992  -0.435  -9.669  0.00  0.00    +0.052 C 
ATOM     20  C   UNL     1       3.506   1.470 -10.265  0.00  0.00    +0.052 C 
ENDBRANCH  17  18
ENDBRANCH  15  17
ENDBRANCH  14  15
ENDBRANCH  13  14
ENDBRANCH  12  13
ENDBRANCH   1  12
BRANCH   1  21
ATOM     21  C   UNL     1       4.479   0.547  -1.249  0.00  0.00    +0.287 C 
BRANCH  21  22
ATOM     22  O   UNL     1       3.452  -0.479  -1.242  0.00  0.00    -0.363 OA
BRANCH  22  24
ATOM     23  C   UNL     1       5.003  -2.382  -0.944  0.00  0.00    +0.040 C 
ATOM     24  C   UNL     1       3.824  -1.781  -1.707  0.00  0.00    +0.136 C 
BRANCH  24  25
ATOM     25  C   UNL     1       2.628  -2.757  -1.640  0.00  0.00    +0.156 C 
BRANCH  25  26
ATOM     26  N   UNL     1       1.428  -2.357  -2.352  0.00  0.00    -0.312 N 
ATOM     27  C   UNL     1       1.028  -2.779  -3.599  0.00  0.00    +0.165 A 
ATOM     28  C   UNL     1      -0.275  -2.328  -3.720  0.00  0.00    +0.147 A 
ATOM     29  C   UNL     1      -0.955  -2.669  -4.909  0.00  0.00    +0.147 A 
ATOM     30  N   UNL     1      -0.298  -3.376  -5.850  0.00  0.00    -0.219 NA
ATOM     31  C   UNL     1       0.981  -3.752  -5.590  0.00  0.00    +0.225 A 
ATOM     32  N   UNL     1      -0.668  -1.633  -2.597  0.00  0.00    -0.231 NA
ATOM     33  N   UNL     1       1.726  -3.498  -4.490  0.00  0.00    -0.216 NA
ATOM     34  C   UNL     1       0.372  -1.681  -1.792  0.00  0.00    +0.201 A 
BRANCH  29  35
ATOM     35  N   UNL     1      -2.277  -2.318  -5.164  0.00  0.00    -0.341 N 
ATOM     36  H   UNL     1      -2.478  -2.306  -6.155  0.00  0.00    +0.144 HD
ATOM     37  H   UNL     1      -2.589  -1.527  -4.614  0.00  0.00    +0.144 HD
ENDBRANCH  29  35
ENDBRANCH  25  26
ENDBRANCH  24  25
ENDBRANCH  22  24
ENDBRANCH  21  22
ENDBRANCH   1  21
TORSDOF 18
