REMARK  Name = 
REMARK  23 active torsions:
REMARK  status: ('A' for Active; 'I' for Inactive)
REMARK    1  A    between atoms: C_1  and  C_2
REMARK    2  A    between atoms: C_2  and  C_4
REMARK    3  A    between atoms: C_2  and  O_15
REMARK    4  A    between atoms: C_4  and  N_5
REMARK    5  A    between atoms: C_9  and  N_14
REMARK    6  A    between atoms: O_15  and  C_16
REMARK    7  A    between atoms: C_16  and  P_17
REMARK    8  A    between atoms: P_17  and  O_19
REMARK    9  A    between atoms: P_17  and  O_28
REMARK   10  A    between atoms: O_19  and  C_20
REMARK   11  A    between atoms: C_20  and  O_21
REMARK   12  A    between atoms: O_21  and  C_22
REMARK   13  A    between atoms: C_22  and  O_24
REMARK   14  A    between atoms: O_24  and  C_25
REMARK   15  A    between atoms: C_25  and  C_26
REMARK   16  A    between atoms: C_25  and  C_27
REMARK   17  A    between atoms: O_28  and  C_29
REMARK   18  A    between atoms: C_29  and  O_30
REMARK   19  A    between atoms: O_30  and  C_31
REMARK   20  A    between atoms: C_31  and  O_33
REMARK   21  A    between atoms: O_33  and  C_34
REMARK   22  A    between atoms: C_34  and  C_35
REMARK   23  A    between atoms: C_34  and  C_36
REMARK                            x       y       z     vdW  Elec       q    Type
REMARK                         _______ _______ _______ _____ _____    ______ ____
ROOT
ATOM      1  P   UNL     1       5.003   2.531   1.645  0.00  0.00    +0.364 P 
ATOM      2  O   UNL     1       4.412   3.437   0.557  0.00  0.00    -0.256 OA
ENDROOT
BRANCH   1   3
ATOM      3  O   UNL     1       5.579   3.923   2.495  0.00  0.00    -0.268 OA
BRANCH   3   4
ATOM      4  C   UNL     1       6.975   3.860   2.721  0.00  0.00    +0.410 C 
BRANCH   4   5
ATOM      5  O   UNL     1       7.393   2.747   3.519  0.00  0.00    -0.406 OA
BRANCH   5   6
ATOM      6  C   UNL     1       6.946   2.858   4.796  0.00  0.00    +0.512 C 
ATOM      7  O   UNL     1       6.153   3.699   5.171  0.00  0.00    -0.203 OA
BRANCH   6   8
ATOM      8  O   UNL     1       7.542   1.935   5.595  0.00  0.00    -0.431 OA
BRANCH   8   9
ATOM      9  C   UNL     1       7.271   2.104   7.006  0.00  0.00    +0.174 C 
ATOM     10  C   UNL     1       8.231   1.214   7.786  0.00  0.00    +0.052 C 
ATOM     11  C   UNL     1       5.831   1.738   7.365  0.00  0.00    +0.052 C 
ENDBRANCH   8   9
ENDBRANCH   6   8
ENDBRANCH   5   6
ENDBRANCH   4   5
ENDBRANCH   3   4
ENDBRANCH   1   3
BRANCH   1  12
ATOM     12  O   UNL     1       3.908   2.338   2.880  0.00  0.00    -0.268 OA
BRANCH  12  13
ATOM     13  C   UNL     1       2.958   3.353   3.228  0.00  0.00    +0.410 C 
BRANCH  13  14
ATOM     14  O   UNL     1       3.454   4.559   3.800  0.00  0.00    -0.406 OA
BRANCH  14  15
ATOM     15  C   UNL     1       3.508   4.623   5.143  0.00  0.00    +0.512 C 
ATOM     16  O   UNL     1       3.179   3.742   5.921  0.00  0.00    -0.203 OA
BRANCH  15  17
ATOM     17  O   UNL     1       3.989   5.850   5.467  0.00  0.00    -0.431 OA
BRANCH  17  18
ATOM     18  C   UNL     1       4.510   6.031   6.793  0.00  0.00    +0.174 C 
ATOM     19  C   UNL     1       4.041   7.378   7.319  0.00  0.00    +0.052 C 
ATOM     20  C   UNL     1       6.035   6.051   6.708  0.00  0.00    +0.052 C 
ENDBRANCH  17  18
ENDBRANCH  15  17
ENDBRANCH  14  15
ENDBRANCH  13  14
ENDBRANCH  12  13
ENDBRANCH   1  12
BRANCH   1  21
ATOM     21  C   UNL     1       4.393   1.058   0.746  0.00  0.00    +0.287 C 
BRANCH  21  22
ATOM     22  O   UNL     1       3.031   0.684   0.976  0.00  0.00    -0.363 OA
BRANCH  22  24
ATOM     23  C   UNL     1       2.057   1.888  -0.982  0.00  0.00    +0.040 C 
ATOM     24  C   UNL     1       2.033   1.595   0.513  0.00  0.00    +0.136 C 
BRANCH  24  25
ATOM     25  C   UNL     1       0.690   1.102   1.063  0.00  0.00    +0.156 C 
BRANCH  25  26
ATOM     26  N   UNL     1       0.271  -0.137   0.460  0.00  0.00    -0.312 N 
ATOM     27  C   UNL     1      -0.457  -0.237  -0.690  0.00  0.00    +0.165 A 
ATOM     28  C   UNL     1      -0.486  -1.593  -0.967  0.00  0.00    +0.147 A 
ATOM     29  C   UNL     1      -1.111  -1.967  -2.165  0.00  0.00    +0.147 A 
ATOM     30  N   UNL     1      -1.597  -0.995  -2.973  0.00  0.00    -0.219 NA
ATOM     31  C   UNL     1      -1.489   0.289  -2.565  0.00  0.00    +0.225 A 
ATOM     32  N   UNL     1       0.162  -2.314   0.019  0.00  0.00    -0.231 NA
ATOM     33  N   UNL     1      -0.933   0.771  -1.435  0.00  0.00    -0.216 NA
ATOM     34  C   UNL     1       0.605  -1.402   0.861  0.00  0.00    +0.201 A 
BRANCH  29  35
ATOM     35  N   UNL     1      -1.216  -3.290  -2.588  0.00  0.00    -0.341 N 
ATOM     36  H   UNL     1      -1.306  -3.354  -3.590  0.00  0.00    +0.144 HD
ATOM     37  H   UNL     1      -0.535  -3.891  -2.139  0.00  0.00    +0.144 HD
ENDBRANCH  29  35
ENDBRANCH  25  26
ENDBRANCH  24  25
ENDBRANCH  22  24
ENDBRANCH  21  22
ENDBRANCH   1  21
TORSDOF 18
