REMARK  Name = 
REMARK  16 active torsions:
REMARK  status: ('A' for Active; 'I' for Inactive)
REMARK    1  A    between atoms: C_1  and  C_2
REMARK    2  A    between atoms: C_3  and  C_9
REMARK    3  A    between atoms: C_7  and  O_8
REMARK    4  A    between atoms: N_11  and  C_12
REMARK    5  A    between atoms: C_12  and  C_14
REMARK    6  A    between atoms: C_12  and  C_22
REMARK    7  A    between atoms: C_14  and  S_15
REMARK    8  A    between atoms: S_15  and  C_16
REMARK    9  A    between atoms: C_22  and  C_24
REMARK   10  A    between atoms: C_22  and  O_44
REMARK   11  A    between atoms: C_24  and  N_25
REMARK   12  A    between atoms: C_36  and  C_37
REMARK   13  A    between atoms: N_39  and  C_40
REMARK   14  A    between atoms: C_40  and  C_41
REMARK   15  A    between atoms: C_40  and  C_42
REMARK   16  A    between atoms: C_40  and  C_43
REMARK                            x       y       z     vdW  Elec       q    Type
REMARK                         _______ _______ _______ _____ _____    ______ ____
ROOT
ATOM      1  C   UNL     1      -2.280   4.110  -0.680  0.00  0.00    +0.113 C 
ENDROOT
BRANCH   1   3
ATOM      2  C   UNL     1      -3.974   4.620   1.093  0.00  0.00    +0.245 C 
ATOM      3  N   UNL     1      -2.808   4.955   0.418  0.00  0.00    -0.305 N 
ATOM      4  H   UNL     1      -2.188   5.642   0.822  0.00  0.00    +0.149 HD
ATOM      5  O   UNL     1      -4.630   3.640   0.766  0.00  0.00    -0.270 OA
BRANCH   2  12
ATOM      6  C   UNL     1      -5.849   3.620   3.218  0.00  0.00    +0.048 C 
ATOM      7  C   UNL     1      -5.354   5.044   3.188  0.00  0.00    +0.003 A 
ATOM      8  C   UNL     1      -5.863   5.970   4.114  0.00  0.00    +0.120 A 
ATOM      9  C   UNL     1      -5.412   7.287   4.161  0.00  0.00    +0.046 A 
ATOM     10  C   UNL     1      -4.447   7.713   3.257  0.00  0.00    +0.004 A 
ATOM     11  C   UNL     1      -3.963   6.833   2.287  0.00  0.00    +0.013 A 
ATOM     12  C   UNL     1      -4.416   5.502   2.227  0.00  0.00    +0.043 A 
BRANCH   8  13
ATOM     13  O   UNL     1      -6.847   5.576   4.978  0.00  0.00    -0.506 OA
ATOM     14  H   UNL     1      -7.350   6.360   5.253  0.00  0.00    +0.292 HD
ENDBRANCH   8  13
ENDBRANCH   2  12
ENDBRANCH   1   3
BRANCH   1  15
ATOM     15  C   UNL     1      -1.130   3.193  -0.146  0.00  0.00    +0.149 C 
BRANCH  15  16
ATOM     16  O   UNL     1      -0.469   2.426  -1.157  0.00  0.00    -0.389 OA
ATOM     17  H   UNL     1      -0.369   2.967  -1.960  0.00  0.00    +0.210 HD
ENDBRANCH  15  16
BRANCH  15  18
ATOM     18  C   UNL     1      -1.621   2.175   0.927  0.00  0.00    +0.118 C 
BRANCH  18  19
ATOM     19  N   UNL     1      -0.550   1.348   1.547  0.00  0.00    -0.289 NA
ATOM     20  C   UNL     1      -1.135   0.368   2.507  0.00  0.00    +0.143 C 
ATOM     21  C   UNL     1      -1.440   0.975   3.893  0.00  0.00    +0.032 C 
ATOM     22  C   UNL     1      -0.198   1.668   4.482  0.00  0.00    -0.005 C 
ATOM     23  C   UNL     1       0.292   2.757   3.532  0.00  0.00    +0.006 C 
ATOM     24  C   UNL     1      -0.570   4.037   3.557  0.00  0.00    +0.005 C 
ATOM     25  C   UNL     1      -1.572   4.229   4.708  0.00  0.00    +0.000 C 
ATOM     26  C   UNL     1      -1.551   3.256   5.885  0.00  0.00    +0.000 C 
ATOM     27  C   UNL     1      -0.401   2.272   5.864  0.00  0.00    +0.004 C 
ATOM     28  C   UNL     1       0.545   2.128   2.146  0.00  0.00    +0.089 C 
BRANCH  20  29
ATOM     29  C   UNL     1      -0.246  -0.887   2.690  0.00  0.00    +0.231 C 
ATOM     30  N   UNL     1       0.477  -1.300   1.586  0.00  0.00    -0.309 N 
ATOM     31  H   UNL     1       0.554  -0.604   0.845  0.00  0.00    +0.149 HD
ATOM     32  O   UNL     1      -0.246  -1.515   3.751  0.00  0.00    -0.274 OA
BRANCH  30  33
ATOM     33  C   UNL     1       1.388  -2.459   1.632  0.00  0.00    +0.026 C 
ATOM     34  C   UNL     1       2.495  -2.230   2.679  0.00  0.00    +0.031 C 
ATOM     35  C   UNL     1       2.076  -2.663   0.270  0.00  0.00    +0.031 C 
ATOM     36  C   UNL     1       0.600  -3.751   1.932  0.00  0.00    +0.031 C 
ENDBRANCH  30  33
ENDBRANCH  20  29
ENDBRANCH  18  19
ENDBRANCH  15  18
ENDBRANCH   1  15
BRANCH   1  37
ATOM     37  C   UNL     1      -1.848   5.049  -1.841  0.00  0.00    +0.099 C 
BRANCH  37  38
ATOM     38  S   UNL     1      -1.383   4.150  -3.368  0.00  0.00    -0.123 S 
BRANCH  38  39
ATOM     39  C   UNL     1      -0.751   5.478  -4.366  0.00  0.00    +0.008 A 
ATOM     40  C   UNL     1      -1.620   6.419  -4.922  0.00  0.00    +0.015 A 
ATOM     41  C   UNL     1      -1.132   7.404  -5.781  0.00  0.00    +0.001 A 
ATOM     42  C   UNL     1       0.227   7.452  -6.088  0.00  0.00    +0.000 A 
ATOM     43  C   UNL     1       1.100   6.517  -5.535  0.00  0.00    +0.001 A 
ATOM     44  C   UNL     1       0.613   5.528  -4.676  0.00  0.00    +0.015 A 
ENDBRANCH  38  39
ENDBRANCH  37  38
ENDBRANCH   1  37
TORSDOF 12
