REMARK  Name = 
REMARK  16 active torsions:
REMARK  status: ('A' for Active; 'I' for Inactive)
REMARK    1  A    between atoms: C_1  and  C_2
REMARK    2  A    between atoms: C_3  and  C_9
REMARK    3  A    between atoms: C_7  and  O_8
REMARK    4  A    between atoms: N_11  and  C_12
REMARK    5  A    between atoms: C_12  and  C_14
REMARK    6  A    between atoms: C_12  and  C_22
REMARK    7  A    between atoms: C_14  and  S_15
REMARK    8  A    between atoms: S_15  and  C_16
REMARK    9  A    between atoms: C_22  and  C_24
REMARK   10  A    between atoms: C_22  and  O_44
REMARK   11  A    between atoms: C_24  and  N_25
REMARK   12  A    between atoms: C_36  and  C_37
REMARK   13  A    between atoms: N_39  and  C_40
REMARK   14  A    between atoms: C_40  and  C_41
REMARK   15  A    between atoms: C_40  and  C_42
REMARK   16  A    between atoms: C_40  and  C_43
REMARK                            x       y       z     vdW  Elec       q    Type
REMARK                         _______ _______ _______ _____ _____    ______ ____
ROOT
ATOM      1  C   UNL     1      -2.204   4.110  -0.782  0.00  0.00    +0.113 C 
ENDROOT
BRANCH   1   3
ATOM      2  C   UNL     1      -3.907   4.684   0.964  0.00  0.00    +0.245 C 
ATOM      3  N   UNL     1      -2.723   4.977   0.306  0.00  0.00    -0.305 N 
ATOM      4  H   UNL     1      -2.100   5.666   0.698  0.00  0.00    +0.149 HD
ATOM      5  O   UNL     1      -4.572   3.704   0.638  0.00  0.00    -0.270 OA
BRANCH   2  12
ATOM      6  C   UNL     1      -5.848   3.773   3.072  0.00  0.00    +0.048 C 
ATOM      7  C   UNL     1      -5.336   5.190   3.011  0.00  0.00    +0.003 A 
ATOM      8  C   UNL     1      -5.855   6.150   3.892  0.00  0.00    +0.120 A 
ATOM      9  C   UNL     1      -5.382   7.459   3.919  0.00  0.00    +0.046 A 
ATOM     10  C   UNL     1      -4.386   7.846   3.026  0.00  0.00    +0.004 A 
ATOM     11  C   UNL     1      -3.893   6.932   2.099  0.00  0.00    +0.013 A 
ATOM     12  C   UNL     1      -4.367   5.604   2.063  0.00  0.00    +0.043 A 
BRANCH   8  13
ATOM     13  O   UNL     1      -6.871   5.796   4.741  0.00  0.00    -0.506 OA
ATOM     14  H   UNL     1      -7.377   6.595   4.966  0.00  0.00    +0.292 HD
ENDBRANCH   8  13
ENDBRANCH   2  12
ENDBRANCH   1   3
BRANCH   1  15
ATOM     15  C   UNL     1      -1.068   3.178  -0.239  0.00  0.00    +0.149 C 
BRANCH  15  16
ATOM     16  O   UNL     1      -0.417   2.395  -1.246  0.00  0.00    -0.389 OA
ATOM     17  H   UNL     1      -0.310   2.929  -2.053  0.00  0.00    +0.210 HD
ENDBRANCH  15  16
BRANCH  15  18
ATOM     18  C   UNL     1      -1.570   2.170   0.838  0.00  0.00    +0.118 C 
BRANCH  18  19
ATOM     19  N   UNL     1      -0.502   1.337   1.458  0.00  0.00    -0.289 NA
ATOM     20  C   UNL     1      -1.091   0.352   2.412  0.00  0.00    +0.143 C 
ATOM     21  C   UNL     1      -1.395   0.952   3.801  0.00  0.00    +0.032 C 
ATOM     22  C   UNL     1      -0.153   1.643   4.393  0.00  0.00    -0.005 C 
ATOM     23  C   UNL     1       0.341   2.734   3.449  0.00  0.00    +0.006 C 
ATOM     24  C   UNL     1      -0.516   4.016   3.477  0.00  0.00    +0.005 C 
ATOM     25  C   UNL     1      -1.524   4.205   4.624  0.00  0.00    +0.000 C 
ATOM     26  C   UNL     1      -1.504   3.230   5.800  0.00  0.00    +0.000 C 
ATOM     27  C   UNL     1      -0.358   2.241   5.778  0.00  0.00    +0.004 C 
ATOM     28  C   UNL     1       0.594   2.110   2.061  0.00  0.00    +0.089 C 
BRANCH  20  29
ATOM     29  C   UNL     1      -0.207  -0.909   2.588  0.00  0.00    +0.231 C 
ATOM     30  N   UNL     1       0.520  -1.315   1.485  0.00  0.00    -0.309 N 
ATOM     31  H   UNL     1       0.610  -0.612   0.753  0.00  0.00    +0.149 HD
ATOM     32  O   UNL     1      -0.218  -1.548   3.642  0.00  0.00    -0.274 OA
BRANCH  30  33
ATOM     33  C   UNL     1       1.427  -2.477   1.523  0.00  0.00    +0.026 C 
ATOM     34  C   UNL     1       2.535  -2.255   2.568  0.00  0.00    +0.031 C 
ATOM     35  C   UNL     1       2.110  -2.673   0.156  0.00  0.00    +0.031 C 
ATOM     36  C   UNL     1       0.640  -3.772   1.817  0.00  0.00    +0.031 C 
ENDBRANCH  30  33
ENDBRANCH  20  29
ENDBRANCH  18  19
ENDBRANCH  15  18
ENDBRANCH   1  15
BRANCH   1  37
ATOM     37  C   UNL     1      -1.757   5.029  -1.951  0.00  0.00    +0.099 C 
BRANCH  37  38
ATOM     38  S   UNL     1      -1.286   4.121  -3.472  0.00  0.00    -0.123 S 
BRANCH  38  39
ATOM     39  C   UNL     1      -0.625   5.444  -4.460  0.00  0.00    +0.008 A 
ATOM     40  C   UNL     1      -1.479   6.388  -5.035  0.00  0.00    +0.015 A 
ATOM     41  C   UNL     1      -0.968   7.379  -5.874  0.00  0.00    +0.001 A 
ATOM     42  C   UNL     1       0.399   7.430  -6.144  0.00  0.00    +0.000 A 
ATOM     43  C   UNL     1       1.257   6.488  -5.577  0.00  0.00    +0.001 A 
ATOM     44  C   UNL     1       0.746   5.493  -4.740  0.00  0.00    +0.015 A 
ENDBRANCH  38  39
ENDBRANCH  37  38
ENDBRANCH   1  37
TORSDOF 12
