REMARK  Name = 
REMARK  17 active torsions:
REMARK  status: ('A' for Active; 'I' for Inactive)
REMARK    1  A    between atoms: C_1  and  C_2
REMARK    2  A    between atoms: C_2  and  C_3
REMARK    3  A    between atoms: C_2  and  C_4
REMARK    4  A    between atoms: C_2  and  N_5
REMARK    5  A    between atoms: C_6  and  C_8
REMARK    6  A    between atoms: N_10  and  C_43
REMARK    7  A    between atoms: N_13  and  C_14
REMARK    8  A    between atoms: C_14  and  C_15
REMARK    9  A    between atoms: C_15  and  C_17
REMARK   10  A    between atoms: C_15  and  O_42
REMARK   11  A    between atoms: C_17  and  C_18
REMARK   12  A    between atoms: C_18  and  C_20
REMARK   13  A    between atoms: C_18  and  C_27
REMARK   14  A    between atoms: C_20  and  C_21
REMARK   15  A    between atoms: N_29  and  C_30
REMARK   16  A    between atoms: C_32  and  O_41
REMARK   17  A    between atoms: C_43  and  C_44
REMARK                            x       y       z     vdW  Elec       q    Type
REMARK                         _______ _______ _______ _____ _____    ______ ____
ROOT
ATOM      1  C   UNL     1       5.537   0.275  -5.959  0.00  0.00    +0.129 C 
ENDROOT
BRANCH   1   2
ATOM      2  O   UNL     1       6.256   0.292  -7.205  0.00  0.00    -0.391 OA
ATOM      3  H   UNL     1       6.553  -0.616  -7.389  0.00  0.00    +0.210 HD
ENDBRANCH   1   2
BRANCH   1   4
ATOM      4  C   UNL     1       4.862   1.682  -5.799  0.00  0.00    +0.116 C 
BRANCH   4   6
ATOM      5  C   UNL     1       3.909   2.070  -8.138  0.00  0.00    +0.157 C 
ATOM      6  N   UNL     1       3.642   2.015  -6.638  0.00  0.00    -0.287 NA
ATOM      7  C   UNL     1       3.122   3.346  -6.193  0.00  0.00    +0.100 C 
ATOM      8  C   UNL     1       3.888   4.587  -6.706  0.00  0.00    +0.100 C 
ATOM      9  N   UNL     1       3.807   4.589  -8.166  0.00  0.00    -0.295 NA
ATOM     10  C   UNL     1       4.532   3.404  -8.675  0.00  0.00    +0.113 C 
BRANCH   5  13
ATOM     11  N   UNL     1       1.431   1.610  -8.370  0.00  0.00    -0.309 N 
ATOM     12  H   UNL     1       1.500   1.642  -7.361  0.00  0.00    +0.149 HD
ATOM     13  C   UNL     1       2.640   1.764  -9.025  0.00  0.00    +0.232 C 
ATOM     14  O   UNL     1       2.717   1.672 -10.249  0.00  0.00    -0.274 OA
BRANCH  11  16
ATOM     15  C   UNL     1       0.134  -0.052  -9.714  0.00  0.00    +0.031 C 
ATOM     16  C   UNL     1       0.121   1.307  -8.992  0.00  0.00    +0.026 C 
ATOM     17  C   UNL     1      -0.932   1.238  -7.870  0.00  0.00    +0.031 C 
ATOM     18  C   UNL     1      -0.327   2.392  -9.991  0.00  0.00    +0.031 C 
ENDBRANCH  11  16
ENDBRANCH   5  13
BRANCH   9  19
ATOM     19  C   UNL     1       4.194   5.865  -8.772  0.00  0.00    +0.121 C 
BRANCH  19  20
ATOM     20  C   UNL     1       3.729   6.036 -10.203  0.00  0.00    -0.015 A 
ATOM     21  C   UNL     1       2.610   5.375 -10.724  0.00  0.00    +0.008 A 
ATOM     22  C   UNL     1       2.214   5.598 -12.039  0.00  0.00    +0.020 A 
ATOM     23  C   UNL     1       2.932   6.508 -12.792  0.00  0.00    +0.111 A 
ATOM     24  N   UNL     1       3.995   7.197 -12.323  0.00  0.00    -0.263 NA
ATOM     25  C   UNL     1       4.364   6.945 -11.044  0.00  0.00    +0.115 A 
ENDBRANCH  19  20
ENDBRANCH   9  19
ENDBRANCH   4   6
ENDBRANCH   1   4
BRANCH   1  26
ATOM     26  C   UNL     1       6.602  -0.125  -4.884  0.00  0.00    +0.045 C 
BRANCH  26  27
ATOM     27  C   UNL     1       6.208  -0.241  -3.388  0.00  0.00    +0.082 C 
BRANCH  27  28
ATOM     28  C   UNL     1       7.445  -0.338  -2.461  0.00  0.00    +0.217 C 
ATOM     29  N   UNL     1       7.175  -0.181  -1.117  0.00  0.00    -0.306 N 
ATOM     30  H   UNL     1       6.220  -0.215  -0.796  0.00  0.00    +0.149 HD
ATOM     31  O   UNL     1       8.601  -0.397  -2.868  0.00  0.00    -0.275 OA
BRANCH  29  32
ATOM     32  C   UNL     1       8.190  -0.021  -0.071  0.00  0.00    +0.132 C 
ATOM     33  C   UNL     1       7.528   0.116   1.278  0.00  0.00    -0.022 A 
ATOM     34  C   UNL     1       7.829   1.328   1.902  0.00  0.00    -0.040 A 
ATOM     35  C   UNL     1       7.278   1.662   3.134  0.00  0.00    +0.004 A 
ATOM     36  C   UNL     1       6.409   0.757   3.746  0.00  0.00    +0.000 A 
ATOM     37  C   UNL     1       6.116  -0.465   3.132  0.00  0.00    +0.000 A 
ATOM     38  C   UNL     1       8.760   2.162   1.089  0.00  0.00    +0.069 C 
ATOM     39  C   UNL     1       6.682  -0.797   1.897  0.00  0.00    +0.006 A 
ATOM     40  C   UNL     1       9.063   1.286  -0.148  0.00  0.00    +0.143 C 
BRANCH  40  41
ATOM     41  O   UNL     1       8.838   2.057  -1.331  0.00  0.00    -0.389 OA
ATOM     42  H   UNL     1       9.052   1.460  -2.076  0.00  0.00    +0.210 HD
ENDBRANCH  40  41
ENDBRANCH  29  32
ENDBRANCH  27  28
BRANCH  27  43
ATOM     43  C   UNL     1       5.079  -1.242  -3.055  0.00  0.00    +0.048 C 
BRANCH  43  44
ATOM     44  C   UNL     1       5.049  -2.705  -3.455  0.00  0.00    -0.047 A 
ATOM     45  C   UNL     1       3.770  -3.281  -3.623  0.00  0.00    +0.003 A 
ATOM     46  C   UNL     1       3.600  -4.626  -3.956  0.00  0.00    +0.000 A 
ATOM     47  C   UNL     1       4.713  -5.442  -4.098  0.00  0.00    +0.000 A 
ATOM     48  C   UNL     1       5.985  -4.911  -3.876  0.00  0.00    +0.000 A 
ATOM     49  C   UNL     1       6.157  -3.552  -3.548  0.00  0.00    +0.003 A 
ENDBRANCH  43  44
ENDBRANCH  27  43
ENDBRANCH  26  27
ENDBRANCH   1  26
TORSDOF 14
