REMARK  Name = 
REMARK  7 active torsions:
REMARK  status: ('A' for Active; 'I' for Inactive)
REMARK    1  A    between atoms: N_11  and  C_12
REMARK    2  A    between atoms: C_12  and  C_13
REMARK    3  A    between atoms: C_13  and  C_14
REMARK    4  A    between atoms: C_14  and  C_15
REMARK    5  A    between atoms: C_14  and  C_17
REMARK    6  A    between atoms: C_15  and  O_16
REMARK    7  A    between atoms: C_17  and  O_18
REMARK                            x       y       z     vdW  Elec       q    Type
REMARK                         _______ _______ _______ _____ _____    ______ ____
ROOT
ATOM      1  C   UNL     1       1.385   1.117  -0.259  0.00  0.00    +0.302 C 
ATOM      2  N   UNL     1       0.464   0.128  -0.441  0.00  0.00    -0.179 N 
ATOM      3  C   UNL     1       1.138  -1.027  -0.719  0.00  0.00    +0.337 C 
ATOM      4  N   UNL     1       0.763  -2.106  -1.311  0.00  0.00    +0.023 NA
ATOM      5  C   UNL     1       1.758  -2.924  -1.769  0.00  0.00    +0.450 C 
ATOM      6  N   UNL     1       1.379  -4.087  -2.341  0.00  0.00    -0.241 N 
ATOM      7  H   UNL     1       2.157  -4.700  -2.551  0.00  0.00    +0.242 HD
ATOM      8  H   UNL     1       0.580  -4.540  -1.919  0.00  0.00    +0.242 HD
ATOM      9  N   UNL     1       3.025  -2.643  -1.762  0.00  0.00    +0.008 NA
ATOM     10  C   UNL     1       3.479  -1.456  -1.244  0.00  0.00    +0.347 C 
ATOM     11  O   UNL     1       4.624  -1.064  -1.445  0.00  0.00    -0.251 OA
ATOM     12  C   UNL     1       2.553  -0.770  -0.285  0.00  0.00    +0.329 C 
ATOM     13  N   UNL     1       2.639   0.748  -0.225  0.00  0.00    -0.228 NA
ENDROOT
BRANCH   2  14
ATOM     14  C   UNL     1      -0.959   0.341  -0.582  0.00  0.00    +0.233 C 
BRANCH  14  15
ATOM     15  C   UNL     1      -1.356   0.908  -1.949  0.00  0.00    +0.052 C 
BRANCH  15  16
ATOM     16  C   UNL     1      -1.101  -0.028  -3.152  0.00  0.00    +0.043 C 
BRANCH  16  17
ATOM     17  C   UNL     1      -1.430   0.696  -4.469  0.00  0.00    +0.161 C 
BRANCH  17  18
ATOM     18  O   UNL     1      -2.799   1.068  -4.545  0.00  0.00    -0.395 OA
ATOM     19  H   UNL     1      -3.315   0.238  -4.458  0.00  0.00    +0.209 HD
ENDBRANCH  17  18
ENDBRANCH  16  17
BRANCH  16  20
ATOM     20  C   UNL     1      -1.876  -1.356  -3.061  0.00  0.00    +0.161 C 
BRANCH  20  21
ATOM     21  O   UNL     1      -3.284  -1.144  -3.098  0.00  0.00    -0.395 OA
ATOM     22  H   UNL     1      -3.553  -0.774  -2.239  0.00  0.00    +0.209 HD
ENDBRANCH  20  21
ENDBRANCH  16  20
ENDBRANCH  15  16
ENDBRANCH  14  15
ENDBRANCH   2  14
TORSDOF 7
