REMARK  Name = 
REMARK  17 active torsions:
REMARK  status: ('A' for Active; 'I' for Inactive)
REMARK    1  A    between atoms: C_1  and  C_2
REMARK    2  A    between atoms: C_2  and  C_3
REMARK    3  A    between atoms: C_2  and  C_4
REMARK    4  A    between atoms: C_2  and  N_5
REMARK    5  A    between atoms: C_6  and  C_8
REMARK    6  A    between atoms: N_10  and  C_43
REMARK    7  A    between atoms: N_13  and  C_14
REMARK    8  A    between atoms: C_14  and  C_15
REMARK    9  A    between atoms: C_15  and  C_17
REMARK   10  A    between atoms: C_15  and  O_42
REMARK   11  A    between atoms: C_17  and  C_18
REMARK   12  A    between atoms: C_18  and  C_20
REMARK   13  A    between atoms: C_18  and  C_27
REMARK   14  A    between atoms: C_20  and  C_21
REMARK   15  A    between atoms: N_29  and  C_30
REMARK   16  A    between atoms: C_32  and  O_41
REMARK   17  A    between atoms: C_43  and  C_44
REMARK                            x       y       z     vdW  Elec       q    Type
REMARK                         _______ _______ _______ _____ _____    ______ ____
ROOT
ATOM      1  C   UNL     1       6.314   6.067   1.442  0.00  0.00    +0.129 C 
ENDROOT
BRANCH   1   2
ATOM      2  O   UNL     1       7.484   6.640   2.034  0.00  0.00    -0.391 OA
ATOM      3  H   UNL     1       8.251   6.124   1.729  0.00  0.00    +0.210 HD
ENDBRANCH   1   2
BRANCH   1   4
ATOM      4  C   UNL     1       5.074   6.994   1.634  0.00  0.00    +0.116 C 
BRANCH   4   6
ATOM      5  C   UNL     1       6.150   9.235   1.720  0.00  0.00    +0.157 C 
ATOM      6  N   UNL     1       5.078   8.394   1.082  0.00  0.00    -0.287 NA
ATOM      7  C   UNL     1       3.744   8.990   1.365  0.00  0.00    +0.100 C 
ATOM      8  C   UNL     1       3.501   9.463   2.831  0.00  0.00    +0.100 C 
ATOM      9  N   UNL     1       4.607  10.294   3.355  0.00  0.00    -0.295 NA
ATOM     10  C   UNL     1       5.877   9.560   3.195  0.00  0.00    +0.113 C 
BRANCH   5  13
ATOM     11  N   UNL     1       5.583  11.518   0.760  0.00  0.00    -0.309 N 
ATOM     12  H   UNL     1       4.765  11.408   1.347  0.00  0.00    +0.149 HD
ATOM     13  C   UNL     1       6.551  10.556   0.996  0.00  0.00    +0.232 C 
ATOM     14  O   UNL     1       7.746  10.767   0.768  0.00  0.00    -0.274 OA
BRANCH  11  16
ATOM     15  C   UNL     1       6.844  12.966  -0.864  0.00  0.00    +0.031 C 
ATOM     16  C   UNL     1       5.885  12.908   0.340  0.00  0.00    +0.026 C 
ATOM     17  C   UNL     1       4.572  13.596  -0.088  0.00  0.00    +0.031 C 
ATOM     18  C   UNL     1       6.476  13.712   1.511  0.00  0.00    +0.031 C 
ENDBRANCH  11  16
ENDBRANCH   5  13
BRANCH   9  19
ATOM     19  C   UNL     1       4.380  10.700   4.750  0.00  0.00    +0.121 C 
BRANCH  19  20
ATOM     20  C   UNL     1       5.437  11.647   5.274  0.00  0.00    -0.015 A 
ATOM     21  C   UNL     1       6.561  11.183   5.969  0.00  0.00    +0.008 A 
ATOM     22  C   UNL     1       7.551  12.076   6.373  0.00  0.00    +0.020 A 
ATOM     23  C   UNL     1       7.376  13.417   6.085  0.00  0.00    +0.111 A 
ATOM     24  N   UNL     1       6.304  13.910   5.428  0.00  0.00    -0.263 NA
ATOM     25  C   UNL     1       5.371  13.014   5.027  0.00  0.00    +0.115 A 
ENDBRANCH  19  20
ENDBRANCH   9  19
ENDBRANCH   4   6
ENDBRANCH   1   4
BRANCH   1  26
ATOM     26  C   UNL     1       6.165   4.714   2.166  0.00  0.00    +0.045 C 
BRANCH  26  27
ATOM     27  C   UNL     1       4.964   3.801   1.846  0.00  0.00    +0.082 C 
BRANCH  27  28
ATOM     28  C   UNL     1       4.978   2.616   2.836  0.00  0.00    +0.217 C 
ATOM     29  N   UNL     1       3.960   1.702   2.713  0.00  0.00    -0.306 N 
ATOM     30  H   UNL     1       3.144   1.935   2.165  0.00  0.00    +0.149 HD
ATOM     31  O   UNL     1       5.785   2.528   3.760  0.00  0.00    -0.275 OA
BRANCH  29  32
ATOM     32  C   UNL     1       3.818   0.607   3.671  0.00  0.00    +0.132 C 
ATOM     33  C   UNL     1       2.958  -0.479   3.103  0.00  0.00    -0.022 A 
ATOM     34  C   UNL     1       1.750  -0.603   3.787  0.00  0.00    -0.040 A 
ATOM     35  C   UNL     1       0.781  -1.500   3.362  0.00  0.00    +0.004 A 
ATOM     36  C   UNL     1       1.046  -2.289   2.243  0.00  0.00    +0.000 A 
ATOM     37  C   UNL     1       2.274  -2.191   1.578  0.00  0.00    +0.000 A 
ATOM     38  C   UNL     1       1.678   0.311   4.967  0.00  0.00    +0.069 C 
ATOM     39  C   UNL     1       3.243  -1.284   2.011  0.00  0.00    +0.006 A 
ATOM     40  C   UNL     1       3.060   1.002   4.985  0.00  0.00    +0.143 C 
BRANCH  40  41
ATOM     41  O   UNL     1       2.883   2.412   5.135  0.00  0.00    -0.389 OA
ATOM     42  H   UNL     1       3.786   2.786   5.166  0.00  0.00    +0.210 HD
ENDBRANCH  40  41
ENDBRANCH  29  32
ENDBRANCH  27  28
BRANCH  27  43
ATOM     43  C   UNL     1       4.870   3.390   0.362  0.00  0.00    +0.048 C 
BRANCH  43  44
ATOM     44  C   UNL     1       6.027   2.577  -0.168  0.00  0.00    -0.047 A 
ATOM     45  C   UNL     1       7.129   3.193  -0.776  0.00  0.00    +0.003 A 
ATOM     46  C   UNL     1       8.226   2.439  -1.196  0.00  0.00    +0.000 A 
ATOM     47  C   UNL     1       8.225   1.057  -1.034  0.00  0.00    +0.000 A 
ATOM     48  C   UNL     1       7.117   0.426  -0.473  0.00  0.00    +0.000 A 
ATOM     49  C   UNL     1       6.024   1.182  -0.048  0.00  0.00    +0.003 A 
ENDBRANCH  43  44
ENDBRANCH  27  43
ENDBRANCH  26  27
ENDBRANCH   1  26
TORSDOF 14
