REMARK  Name = 
REMARK  7 active torsions:
REMARK  status: ('A' for Active; 'I' for Inactive)
REMARK    1  A    between atoms: N_11  and  C_12
REMARK    2  A    between atoms: C_12  and  C_13
REMARK    3  A    between atoms: C_13  and  C_14
REMARK    4  A    between atoms: C_14  and  C_15
REMARK    5  A    between atoms: C_14  and  C_17
REMARK    6  A    between atoms: C_15  and  O_16
REMARK    7  A    between atoms: C_17  and  O_18
REMARK                            x       y       z     vdW  Elec       q    Type
REMARK                         _______ _______ _______ _____ _____    ______ ____
ROOT
ATOM      1  C   UNL     1       0.731  -0.940   0.675  0.00  0.00    +0.302 C 
ATOM      2  N   UNL     1       0.340   0.001  -0.238  0.00  0.00    -0.179 N 
ATOM      3  C   UNL     1       1.394   0.863  -0.399  0.00  0.00    +0.337 C 
ATOM      4  N   UNL     1       1.438   2.086  -0.773  0.00  0.00    +0.023 NA
ATOM      5  C   UNL     1       2.593   2.772  -0.519  0.00  0.00    +0.450 C 
ATOM      6  N   UNL     1       2.706   4.013  -1.037  0.00  0.00    -0.241 N 
ATOM      7  H   UNL     1       3.636   4.403  -0.957  0.00  0.00    +0.242 HD
ATOM      8  H   UNL     1       2.243   4.157  -1.923  0.00  0.00    +0.242 HD
ATOM      9  N   UNL     1       3.568   2.341   0.219  0.00  0.00    +0.008 NA
ATOM     10  C   UNL     1       3.504   1.101   0.805  0.00  0.00    +0.347 C 
ATOM     11  O   UNL     1       4.249   0.783   1.731  0.00  0.00    -0.251 OA
ATOM     12  C   UNL     1       2.595   0.117   0.125  0.00  0.00    +0.329 C 
ATOM     13  N   UNL     1       1.992  -0.955   1.016  0.00  0.00    -0.228 NA
ENDROOT
BRANCH   2  14
ATOM     14  C   UNL     1      -1.055   0.379  -0.415  0.00  0.00    +0.233 C 
BRANCH  14  15
ATOM     15  C   UNL     1      -1.426   0.551  -1.897  0.00  0.00    +0.052 C 
BRANCH  15  16
ATOM     16  C   UNL     1      -2.946   0.766  -2.148  0.00  0.00    +0.043 C 
BRANCH  16  17
ATOM     17  C   UNL     1      -3.261   0.862  -3.648  0.00  0.00    +0.161 C 
BRANCH  17  18
ATOM     18  O   UNL     1      -2.949  -0.357  -4.305  0.00  0.00    -0.395 OA
ATOM     19  H   UNL     1      -2.042  -0.288  -4.647  0.00  0.00    +0.209 HD
ENDBRANCH  17  18
ENDBRANCH  16  17
BRANCH  16  20
ATOM     20  C   UNL     1      -3.503   2.018  -1.460  0.00  0.00    +0.161 C 
BRANCH  20  21
ATOM     21  O   UNL     1      -3.487   1.871  -0.046  0.00  0.00    -0.395 OA
ATOM     22  H   UNL     1      -4.163   1.210   0.190  0.00  0.00    +0.209 HD
ENDBRANCH  20  21
ENDBRANCH  16  20
ENDBRANCH  15  16
ENDBRANCH  14  15
ENDBRANCH   2  14
TORSDOF 7
