REMARK  Name = 
REMARK  13 active torsions:
REMARK  status: ('A' for Active; 'I' for Inactive)
REMARK    1  A    between atoms: C_1  and  C_2
REMARK    2  A    between atoms: C_3  and  O_54
REMARK    3  A    between atoms: C_9  and  C_46
REMARK    4  A    between atoms: C_11  and  O_12
REMARK    5  A    between atoms: O_12  and  C_13
REMARK    6  A    between atoms: N_22  and  C_45
REMARK    7  A    between atoms: C_32  and  C_36
REMARK    8  A    between atoms: N_38  and  S_39
REMARK    9  A    between atoms: S_39  and  C_42
REMARK   10  A    between atoms: C_48  and  C_51
REMARK   11  A    between atoms: C_51  and  C_52
REMARK   12  A    between atoms: C_51  and  C_53
REMARK   13  A    between atoms: O_54  and  C_55
REMARK                            x       y       z     vdW  Elec       q    Type
REMARK                         _______ _______ _______ _____ _____    ______ ____
ROOT
ATOM      1  C   UNL     1      10.798   4.241   2.570  0.00  0.00    +0.175 C 
ATOM      2  C   UNL     1      11.908   5.277   2.252  0.00  0.00    +0.058 C 
ATOM      3  C   UNL     1      12.404   4.762   0.864  0.00  0.00    +0.091 C 
ATOM      4  C   UNL     1      11.322   5.162  -0.170  0.00  0.00    +0.219 C 
ATOM      5  N   UNL     1      10.656   4.173  -0.901  0.00  0.00    -0.304 N 
ATOM      6  C   UNL     1      10.766   4.396  -2.339  0.00  0.00    +0.132 C 
ATOM      7  C   UNL     1       9.247   3.894  -0.531  0.00  0.00    +0.107 C 
ATOM      8  C   UNL     1       8.835   2.454  -0.839  0.00  0.00    +0.019 C 
ATOM      9  C   UNL     1       7.922   1.844   0.243  0.00  0.00    +0.006 C 
ATOM     10  C   UNL     1       8.253   0.379   0.552  0.00  0.00    +0.027 C 
ATOM     11  C   UNL     1       9.547   0.154   1.325  0.00  0.00    -0.031 C 
ATOM     12  C   UNL     1      10.639  -0.322   0.714  0.00  0.00    -0.025 C 
ATOM     13  C   UNL     1      11.908  -0.855   1.250  0.00  0.00    +0.046 C 
ATOM     14  C   UNL     1      13.312  -0.246   1.395  0.00  0.00    +0.119 C 
ATOM     15  N   UNL     1      13.463   1.174   1.518  0.00  0.00    -0.301 N 
ATOM     16  H   UNL     1      13.503   1.475   2.491  0.00  0.00    +0.150 HD
ATOM     17  C   UNL     1      13.210   2.170   0.575  0.00  0.00    +0.218 C 
ATOM     18  O   UNL     1      13.374   2.103  -0.628  0.00  0.00    -0.275 OA
ATOM     19  C   UNL     1      12.945  -0.957   0.137  0.00  0.00    +0.046 C 
ATOM     20  O   UNL     1      11.052   6.362  -0.355  0.00  0.00    -0.275 OA
ATOM     21  C   UNL     1      12.670   3.351   1.341  0.00  0.00    +0.090 C 
ATOM     22  C   UNL     1      11.370   2.946   2.034  0.00  0.00    +0.058 C 
ENDROOT
BRANCH  14  23
ATOM     23  C   UNL     1      14.239  -0.981   2.349  0.00  0.00    +0.256 C 
ATOM     24  N   UNL     1      15.439  -1.410   1.776  0.00  0.00    -0.188 N 
ATOM     25  H   UNL     1      15.702  -1.112   0.842  0.00  0.00    +0.176 HD
ATOM     26  O   UNL     1      13.924  -1.164   3.516  0.00  0.00    -0.272 OA
BRANCH  24  27
ATOM     27  S   UNL     1      16.565  -2.352   2.532  0.00  0.00    +0.048 S 
ATOM     28  O   UNL     1      17.367  -1.491   3.367  0.00  0.00    -0.155 OA
ATOM     29  O   UNL     1      17.170  -3.140   1.479  0.00  0.00    -0.155 OA
BRANCH  27  30
ATOM     30  C   UNL     1      15.687  -3.485   3.650  0.00  0.00    +0.151 C 
ATOM     31  C   UNL     1      15.985  -4.950   3.491  0.00  0.00    +0.030 C 
ATOM     32  C   UNL     1      14.701  -4.386   2.946  0.00  0.00    +0.030 C 
ENDBRANCH  27  30
ENDBRANCH  24  27
ENDBRANCH  14  23
BRANCH   1  33
ATOM     33  O   UNL     1      10.367   3.987   3.906  0.00  0.00    -0.488 OA
BRANCH  33  40
ATOM     34  C   UNL     1       5.149   5.694   6.689  0.00  0.00    +0.050 C 
ATOM     35  C   UNL     1       6.100   4.669   6.116  0.00  0.00    +0.017 A 
ATOM     36  C   UNL     1       7.183   5.144   5.365  0.00  0.00    +0.082 A 
ATOM     37  N   UNL     1       7.305   6.481   5.158  0.00  0.00    -0.244 NA
ATOM     38  C   UNL     1       8.372   6.939   4.479  0.00  0.00    +0.100 A 
ATOM     39  C   UNL     1       9.346   6.098   4.016  0.00  0.00    +0.076 A 
ATOM     40  C   UNL     1       9.262   4.741   4.232  0.00  0.00    +0.132 A 
ATOM     41  C   UNL     1       8.137   4.210   4.884  0.00  0.00    +0.043 A 
ATOM     42  C   UNL     1       7.917   2.828   5.076  0.00  0.00    +0.017 A 
ATOM     43  C   UNL     1       6.809   2.373   5.798  0.00  0.00    +0.047 A 
ATOM     44  C   UNL     1       5.916   3.290   6.352  0.00  0.00    +0.125 A 
BRANCH  38  45
ATOM     45  C   UNL     1       8.635   8.370   4.303  0.00  0.00    +0.127 A 
ATOM     46  S   UNL     1       7.845   9.592   5.199  0.00  0.00    -0.074 S 
ATOM     47  C   UNL     1       8.937  10.755   4.547  0.00  0.00    +0.070 A 
ATOM     48  C   UNL     1       9.816  10.156   3.667  0.00  0.00    +0.052 A 
ATOM     49  N   UNL     1       9.610   8.804   3.518  0.00  0.00    -0.242 NA
BRANCH  48  50
ATOM     50  C   UNL     1      10.928  10.805   2.885  0.00  0.00    +0.032 C 
ATOM     51  C   UNL     1      10.692  10.680   1.377  0.00  0.00    +0.014 C 
ATOM     52  C   UNL     1      12.302  10.225   3.243  0.00  0.00    +0.014 C 
ENDBRANCH  48  50
ENDBRANCH  38  45
BRANCH  44  53
ATOM     53  O   UNL     1       4.837   2.955   7.128  0.00  0.00    -0.495 OA
ATOM     54  C   UNL     1       4.669   1.595   7.501  0.00  0.00    +0.277 C 
ENDBRANCH  44  53
ENDBRANCH  33  40
ENDBRANCH   1  33
TORSDOF 8
