REMARK  Name = 
REMARK  13 active torsions:
REMARK  status: ('A' for Active; 'I' for Inactive)
REMARK    1  A    between atoms: C_1  and  C_2
REMARK    2  A    between atoms: C_3  and  O_54
REMARK    3  A    between atoms: C_9  and  C_46
REMARK    4  A    between atoms: C_11  and  O_12
REMARK    5  A    between atoms: O_12  and  C_13
REMARK    6  A    between atoms: N_22  and  C_45
REMARK    7  A    between atoms: C_32  and  C_36
REMARK    8  A    between atoms: N_38  and  S_39
REMARK    9  A    between atoms: S_39  and  C_42
REMARK   10  A    between atoms: C_48  and  C_51
REMARK   11  A    between atoms: C_51  and  C_52
REMARK   12  A    between atoms: C_51  and  C_53
REMARK   13  A    between atoms: O_54  and  C_55
REMARK                            x       y       z     vdW  Elec       q    Type
REMARK                         _______ _______ _______ _____ _____    ______ ____
ROOT
ATOM      1  C   UNL     1      10.684   4.139   2.439  0.00  0.00    +0.175 C 
ATOM      2  C   UNL     1      11.791   5.177   2.129  0.00  0.00    +0.058 C 
ATOM      3  C   UNL     1      12.289   4.671   0.739  0.00  0.00    +0.091 C 
ATOM      4  C   UNL     1      11.191   5.067  -0.294  0.00  0.00    +0.219 C 
ATOM      5  N   UNL     1      10.528   4.076  -1.020  0.00  0.00    -0.304 N 
ATOM      6  C   UNL     1      10.634   4.298  -2.456  0.00  0.00    +0.132 C 
ATOM      7  C   UNL     1       9.123   3.793  -0.649  0.00  0.00    +0.107 C 
ATOM      8  C   UNL     1       8.711   2.353  -0.963  0.00  0.00    +0.019 C 
ATOM      9  C   UNL     1       7.794   1.743   0.118  0.00  0.00    +0.006 C 
ATOM     10  C   UNL     1       8.128   0.281   0.433  0.00  0.00    +0.027 C 
ATOM     11  C   UNL     1       9.418   0.055   1.204  0.00  0.00    -0.031 C 
ATOM     12  C   UNL     1      10.511  -0.423   0.589  0.00  0.00    -0.025 C 
ATOM     13  C   UNL     1      11.787  -0.942   1.131  0.00  0.00    +0.046 C 
ATOM     14  C   UNL     1      13.194  -0.327   1.261  0.00  0.00    +0.119 C 
ATOM     15  N   UNL     1      13.351   1.087   1.385  0.00  0.00    -0.301 N 
ATOM     16  H   UNL     1      13.393   1.388   2.359  0.00  0.00    +0.150 HD
ATOM     17  C   UNL     1      13.106   2.085   0.443  0.00  0.00    +0.218 C 
ATOM     18  O   UNL     1      13.285   2.020  -0.759  0.00  0.00    -0.275 OA
ATOM     19  C   UNL     1      12.813  -1.038   0.007  0.00  0.00    +0.046 C 
ATOM     20  O   UNL     1      10.917   6.259  -0.463  0.00  0.00    -0.275 OA
ATOM     21  C   UNL     1      12.559   3.258   1.209  0.00  0.00    +0.090 C 
ATOM     22  C   UNL     1      11.259   2.848   1.897  0.00  0.00    +0.058 C 
ENDROOT
BRANCH  14  23
ATOM     23  C   UNL     1      14.134  -1.076   2.202  0.00  0.00    +0.256 C 
ATOM     24  N   UNL     1      15.324  -1.488   1.631  0.00  0.00    -0.188 N 
ATOM     25  H   UNL     1      15.591  -1.190   0.696  0.00  0.00    +0.176 HD
ATOM     26  O   UNL     1      13.818  -1.242   3.378  0.00  0.00    -0.272 OA
BRANCH  24  27
ATOM     27  S   UNL     1      16.481  -2.378   2.418  0.00  0.00    +0.048 S 
ATOM     28  O   UNL     1      17.247  -1.466   3.237  0.00  0.00    -0.155 OA
ATOM     29  O   UNL     1      17.128  -3.161   1.382  0.00  0.00    -0.155 OA
BRANCH  27  30
ATOM     30  C   UNL     1      15.632  -3.519   3.545  0.00  0.00    +0.151 C 
ATOM     31  C   UNL     1      15.962  -4.979   3.405  0.00  0.00    +0.030 C 
ATOM     32  C   UNL     1      14.668  -4.451   2.849  0.00  0.00    +0.030 C 
ENDBRANCH  27  30
ENDBRANCH  24  27
ENDBRANCH  14  23
BRANCH   1  33
ATOM     33  O   UNL     1      10.243   3.876   3.769  0.00  0.00    -0.488 OA
BRANCH  33  40
ATOM     34  C   UNL     1       5.025   5.580   6.555  0.00  0.00    +0.050 C 
ATOM     35  C   UNL     1       5.979   4.556   5.985  0.00  0.00    +0.017 A 
ATOM     36  C   UNL     1       7.064   5.031   5.235  0.00  0.00    +0.082 A 
ATOM     37  N   UNL     1       7.184   6.368   5.030  0.00  0.00    -0.244 NA
ATOM     38  C   UNL     1       8.247   6.826   4.346  0.00  0.00    +0.100 A 
ATOM     39  C   UNL     1       9.218   5.984   3.875  0.00  0.00    +0.076 A 
ATOM     40  C   UNL     1       9.138   4.628   4.095  0.00  0.00    +0.132 A 
ATOM     41  C   UNL     1       8.015   4.098   4.751  0.00  0.00    +0.043 A 
ATOM     42  C   UNL     1       7.796   2.716   4.943  0.00  0.00    +0.017 A 
ATOM     43  C   UNL     1       6.691   2.261   5.670  0.00  0.00    +0.047 A 
ATOM     44  C   UNL     1       5.797   3.176   6.223  0.00  0.00    +0.125 A 
BRANCH  38  45
ATOM     45  C   UNL     1       8.513   8.258   4.172  0.00  0.00    +0.127 A 
ATOM     46  S   UNL     1       7.713   9.479   5.059  0.00  0.00    -0.074 S 
ATOM     47  C   UNL     1       8.800  10.644   4.408  0.00  0.00    +0.070 A 
ATOM     48  C   UNL     1       9.690  10.047   3.538  0.00  0.00    +0.052 A 
ATOM     49  N   UNL     1       9.494   8.693   3.394  0.00  0.00    -0.242 NA
BRANCH  48  50
ATOM     50  C   UNL     1      10.802  10.699   2.758  0.00  0.00    +0.032 C 
ATOM     51  C   UNL     1      10.576  10.562   1.250  0.00  0.00    +0.014 C 
ATOM     52  C   UNL     1      12.180  10.138   3.129  0.00  0.00    +0.014 C 
ENDBRANCH  48  50
ENDBRANCH  38  45
BRANCH  44  53
ATOM     53  O   UNL     1       4.720   2.842   7.001  0.00  0.00    -0.495 OA
ATOM     54  C   UNL     1       4.556   1.482   7.379  0.00  0.00    +0.277 C 
ENDBRANCH  44  53
ENDBRANCH  33  40
ENDBRANCH   1  33
TORSDOF 8
