REMARK  Name = 
REMARK  12 active torsions:
REMARK  status: ('A' for Active; 'I' for Inactive)
REMARK    1  A    between atoms: C_1  and  C_2
REMARK    2  A    between atoms: C_2  and  C_3
REMARK    3  A    between atoms: C_3  and  C_4
REMARK    4  A    between atoms: C_3  and  C_6
REMARK    5  A    between atoms: C_4  and  C_5
REMARK    6  A    between atoms: C_6  and  C_8
REMARK    7  A    between atoms: C_6  and  N_24
REMARK    8  A    between atoms: C_9  and  N_20
REMARK    9  A    between atoms: C_12  and  C_17
REMARK   10  A    between atoms: C_14  and  O_16
REMARK   11  A    between atoms: C_17  and  O_19
REMARK   12  A    between atoms: C_25  and  C_27
REMARK                            x       y       z     vdW  Elec       q    Type
REMARK                         _______ _______ _______ _____ _____    ______ ____
ROOT
ATOM      1  C   UNL     1       4.929  -1.421  -0.449  0.00  0.00    +0.079 C 
ATOM      2  C   UNL     1       4.597  -2.848  -0.929  0.00  0.00    +0.137 C 
ATOM      3  C   UNL     1       4.485  -3.725   0.335  0.00  0.00    +0.130 C 
ATOM      4  C   UNL     1       5.018  -2.859   1.479  0.00  0.00    +0.062 C 
ATOM      5  C   UNL     1       4.582  -1.466   1.045  0.00  0.00    +0.196 C 
ENDROOT
BRANCH   5   6
ATOM      6  N   UNL     1       5.251  -0.391   1.750  0.00  0.00    -0.110 NA
ATOM      7  C   UNL     1       4.760   0.074   2.834  0.00  0.00    +0.377 C 
ATOM      8  N   UNL     1       5.319   1.158   3.414  0.00  0.00    -0.289 N 
ATOM      9  H   UNL     1       5.390   1.082   4.420  0.00  0.00    +0.255 HD
ATOM     10  H   UNL     1       6.223   1.360   2.994  0.00  0.00    +0.255 HD
ATOM     11  N   UNL     1       3.699  -0.332   3.554  0.00  0.00    -0.289 N 
ATOM     12  H   UNL     1       3.161   0.438   3.939  0.00  0.00    +0.255 HD
ATOM     13  H   UNL     1       3.105  -1.030   3.135  0.00  0.00    +0.255 HD
ENDBRANCH   5   6
BRANCH   2  14
ATOM     14  O   UNL     1       3.403  -2.955  -1.694  0.00  0.00    -0.391 OA
ATOM     15  H   UNL     1       2.637  -2.829  -1.084  0.00  0.00    +0.210 HD
ENDBRANCH   2  14
BRANCH   3  16
ATOM     16  C   UNL     1       5.205  -5.037   0.155  0.00  0.00    +0.310 C 
ATOM     17  O   UNL     1       6.118  -5.427   0.863  0.00  0.00    -0.251 OA
BRANCH  16  18
ATOM     18  O   UNL     1       4.715  -5.768  -0.864  0.00  0.00    -0.480 OA
ATOM     19  H   UNL     1       3.975  -5.332  -1.333  0.00  0.00    +0.295 HD
ENDBRANCH  16  18
ENDBRANCH   3  16
BRANCH   1  20
ATOM     20  C   UNL     1       4.468  -0.200  -1.313  0.00  0.00    +0.085 C 
BRANCH  20  21
ATOM     21  N   UNL     1       5.084  -0.359  -2.649  0.00  0.00    -0.312 N 
ATOM     22  H   UNL     1       4.821  -1.179  -3.181  0.00  0.00    +0.149 HD
ATOM     23  C   UNL     1       6.057   0.480  -3.150  0.00  0.00    +0.210 C 
ATOM     24  C   UNL     1       6.548   0.112  -4.525  0.00  0.00    +0.109 C 
ATOM     25  O   UNL     1       6.494   1.462  -2.560  0.00  0.00    -0.276 OA
ENDBRANCH  20  21
BRANCH  20  26
ATOM     26  C   UNL     1       2.928   0.129  -1.473  0.00  0.00    +0.009 C 
BRANCH  26  28
ATOM     27  C   UNL     1       0.733   0.663  -0.114  0.00  0.00    +0.004 C 
ATOM     28  C   UNL     1       2.238   0.449  -0.129  0.00  0.00    +0.002 C 
ENDBRANCH  26  28
BRANCH  26  29
ATOM     29  C   UNL     1       2.661   1.260  -2.510  0.00  0.00    +0.002 C 
ATOM     30  C   UNL     1       3.186   2.639  -2.134  0.00  0.00    +0.004 C 
ENDBRANCH  26  29
ENDBRANCH  20  26
ENDBRANCH   1  20
TORSDOF 9
REMARK  Name = 
REMARK  12 active torsions:
REMARK  status: ('A' for Active; 'I' for Inactive)
REMARK    1  A    between atoms: C_1  and  C_2
REMARK    2  A    between atoms: C_2  and  C_3
REMARK    3  A    between atoms: C_3  and  C_4
REMARK    4  A    between atoms: C_3  and  C_6
REMARK    5  A    between atoms: C_4  and  C_5
REMARK    6  A    between atoms: C_6  and  C_8
REMARK    7  A    between atoms: C_6  and  N_24
REMARK    8  A    between atoms: C_9  and  N_20
REMARK    9  A    between atoms: C_12  and  C_17
REMARK   10  A    between atoms: C_14  and  O_16
REMARK   11  A    between atoms: C_17  and  O_19
REMARK   12  A    between atoms: C_25  and  C_27
REMARK                            x       y       z     vdW  Elec       q    Type
REMARK                         _______ _______ _______ _____ _____    ______ ____
ROOT
ATOM      1  O   HOH     1       1.242  -2.796  -0.009  0.00  0.00    -0.410 OA
ATOM      2  H   HOH     0       0.586  -2.668  -0.735  0.00  0.00    +0.205 HD
ATOM      3  H   HOH     0       0.819  -2.302   0.715  0.00  0.00    +0.205 HD
ENDROOT
TORSDOF 0
REMARK  Name = 
REMARK  12 active torsions:
REMARK  status: ('A' for Active; 'I' for Inactive)
REMARK    1  A    between atoms: C_1  and  C_2
REMARK    2  A    between atoms: C_2  and  C_3
REMARK    3  A    between atoms: C_3  and  C_4
REMARK    4  A    between atoms: C_3  and  C_6
REMARK    5  A    between atoms: C_4  and  C_5
REMARK    6  A    between atoms: C_6  and  C_8
REMARK    7  A    between atoms: C_6  and  N_24
REMARK    8  A    between atoms: C_9  and  N_20
REMARK    9  A    between atoms: C_12  and  C_17
REMARK   10  A    between atoms: C_14  and  O_16
REMARK   11  A    between atoms: C_17  and  O_19
REMARK   12  A    between atoms: C_25  and  C_27
REMARK                            x       y       z     vdW  Elec       q    Type
REMARK                         _______ _______ _______ _____ _____    ______ ____
ROOT
ATOM      1  O   HOH     1       0.577   3.797   0.454  0.00  0.00    -0.410 OA
ATOM      2  H   HOH     0       0.761   3.621  -0.481  0.00  0.00    +0.205 HD
ATOM      3  H   HOH     0       1.234   3.257   0.921  0.00  0.00    +0.205 HD
ENDROOT
TORSDOF 0
REMARK  Name = 
REMARK  12 active torsions:
REMARK  status: ('A' for Active; 'I' for Inactive)
REMARK    1  A    between atoms: C_1  and  C_2
REMARK    2  A    between atoms: C_2  and  C_3
REMARK    3  A    between atoms: C_3  and  C_4
REMARK    4  A    between atoms: C_3  and  C_6
REMARK    5  A    between atoms: C_4  and  C_5
REMARK    6  A    between atoms: C_6  and  C_8
REMARK    7  A    between atoms: C_6  and  N_24
REMARK    8  A    between atoms: C_9  and  N_20
REMARK    9  A    between atoms: C_12  and  C_17
REMARK   10  A    between atoms: C_14  and  O_16
REMARK   11  A    between atoms: C_17  and  O_19
REMARK   12  A    between atoms: C_25  and  C_27
REMARK                            x       y       z     vdW  Elec       q    Type
REMARK                         _______ _______ _______ _____ _____    ______ ____
ROOT
ATOM      1  O   HOH     1      -0.070  -1.800  -2.206  0.00  0.00    -0.410 OA
ATOM      2  H   HOH     0      -0.840  -1.211  -2.295  0.00  0.00    +0.205 HD
ATOM      3  H   HOH     0       0.566  -1.402  -2.829  0.00  0.00    +0.205 HD
ENDROOT
TORSDOF 0
