REMARK  Name = 
REMARK  8 active torsions:
REMARK  status: ('A' for Active; 'I' for Inactive)
REMARK    1  A    between atoms: C_1  and  C_2
REMARK    2  A    between atoms: C_2  and  C_3
REMARK    3  A    between atoms: C_2  and  N_4
REMARK    4  A    between atoms: N_13  and  C1*_14
REMARK    5  A    between atoms: C2*_16  and  O2*_23
REMARK    6  A    between atoms: C3*_17  and  O3*_22
REMARK    7  A    between atoms: C4*_18  and  C5*_20
REMARK    8  A    between atoms: C5*_20  and  O5*_21
REMARK                            x       y       z     vdW  Elec       q    Type
REMARK                         _______ _______ _______ _____ _____    ______ ____
ROOT
ATOM      1  N   UNL     1       2.919  -6.455  -2.345  0.00  0.00    -0.312 N 
ATOM      2  H   UNL     1       3.267  -6.803  -1.449  0.00  0.00    +0.149 HD
ATOM      3  C   UNL     1       2.815  -5.130  -2.562  0.00  0.00    +0.199 A 
ATOM      4  N   UNL     1       3.424  -4.197  -1.743  0.00  0.00    -0.283 N 
ATOM      5  C   UNL     1       3.112  -2.941  -2.247  0.00  0.00    +0.074 A 
ATOM      6  C   UNL     1       2.324  -3.204  -3.362  0.00  0.00    +0.092 A 
ATOM      7  C   UNL     1       1.816  -2.147  -4.131  0.00  0.00    +0.051 A 
ATOM      8  C   UNL     1       2.144  -0.834  -3.773  0.00  0.00    +0.061 A 
ATOM      9 CL   UNL     1       1.525   0.436  -4.772  0.00  0.00    -0.082 Cl
ATOM     10  C   UNL     1       2.947  -0.581  -2.654  0.00  0.00    +0.061 A 
ATOM     11 CL   UNL     1       3.402   1.024  -2.195  0.00  0.00    -0.082 Cl
ATOM     12  C   UNL     1       3.431  -1.632  -1.856  0.00  0.00    +0.049 A 
ATOM     13  N   UNL     1       2.168  -4.546  -3.543  0.00  0.00    -0.214 NA
ENDROOT
BRANCH   4  14
ATOM     14  C1* UNL     1       4.183  -4.422  -0.513  0.00  0.00    +0.254 C 
ATOM     15  O4* UNL     1       4.284  -5.834  -0.213  0.00  0.00    -0.346 OA
ATOM     16  C4* UNL     1       5.669  -6.245  -0.244  0.00  0.00    +0.177 C 
ATOM     17  C3* UNL     1       6.469  -5.092  -0.846  0.00  0.00    +0.178 C 
ATOM     18  C2* UNL     1       5.619  -3.875  -0.522  0.00  0.00    +0.195 C 
BRANCH  17  19
ATOM     19  O3* UNL     1       6.659  -5.214  -2.252  0.00  0.00    -0.386 OA
ATOM     20  H3* UNL     1       5.800  -5.329  -2.702  0.00  0.00    +0.210 HD
ENDBRANCH  17  19
BRANCH  18  21
ATOM     21  O2* UNL     1       5.964  -3.342   0.767  0.00  0.00    -0.385 OA
ATOM     22  H2* UNL     1       5.883  -4.038   1.443  0.00  0.00    +0.210 HD
ENDBRANCH  18  21
BRANCH  16  23
ATOM     23  C5* UNL     1       5.820  -7.570  -1.001  0.00  0.00    +0.190 C 
BRANCH  23  24
ATOM     24  O5* UNL     1       5.015  -8.588  -0.409  0.00  0.00    -0.392 OA
ATOM     25  H5* UNL     1       5.382  -8.798   0.466  0.00  0.00    +0.210 HD
ENDBRANCH  23  24
ENDBRANCH  16  23
ENDBRANCH   4  14
BRANCH   1  27
ATOM     26  C   UNL     1       3.003  -7.835  -4.354  0.00  0.00    +0.027 C 
ATOM     27  C   UNL     1       2.167  -7.411  -3.148  0.00  0.00    +0.067 C 
ATOM     28  C   UNL     1       1.825  -8.631  -2.292  0.00  0.00    +0.027 C 
ENDBRANCH   1  27
TORSDOF 6
