REMARK  Name = 
REMARK  24 active torsions:
REMARK  status: ('A' for Active; 'I' for Inactive)
REMARK    1  A    between atoms: C_1  and  C_2
REMARK    2  A    between atoms: C_2  and  C_3
REMARK    3  A    between atoms: C_2  and  C_4
REMARK    4  A    between atoms: C_6  and  C_9
REMARK    5  A    between atoms: C_9  and  N_10
REMARK    6  A    between atoms: N_10  and  C_11
REMARK    7  A    between atoms: N_14  and  C_15
REMARK    8  A    between atoms: C_15  and  C_17
REMARK    9  A    between atoms: C_15  and  C_20
REMARK   10  A    between atoms: C_17  and  C_18
REMARK   11  A    between atoms: C_17  and  C_19
REMARK   12  A    between atoms: N_22  and  C_23
REMARK   13  A    between atoms: C_23  and  C_24
REMARK   14  A    between atoms: C_23  and  C_31
REMARK   15  A    between atoms: C_24  and  C_25
REMARK   16  A    between atoms: C_31  and  C_32
REMARK   17  A    between atoms: C_32  and  C_34
REMARK   18  A    between atoms: C_32  and  O_53
REMARK   19  A    between atoms: C_34  and  C_36
REMARK   20  A    between atoms: C_34  and  N_43
REMARK   21  A    between atoms: C_36  and  C_37
REMARK   22  A    between atoms: C_44  and  O_46
REMARK   23  A    between atoms: O_46  and  C_47
REMARK   24  A    between atoms: C_47  and  C_48
REMARK                            x       y       z     vdW  Elec       q    Type
REMARK                         _______ _______ _______ _____ _____    ______ ____
ROOT
ATOM      1  C   UNL     1       9.245 -16.285  -0.036  0.00  0.00    +0.080 C 
ENDROOT
BRANCH   1   3
ATOM      2  C   UNL     1       7.882 -17.792  -1.810  0.00  0.00    +0.234 C 
ATOM      3  N   UNL     1       8.420 -17.506  -0.505  0.00  0.00    -0.311 N 
ATOM      4  H   UNL     1       7.753 -17.774   0.208  0.00  0.00    +0.149 HD
ATOM      5  O   UNL     1       8.272 -17.188  -2.805  0.00  0.00    -0.274 OA
BRANCH   2   6
ATOM      6  C   UNL     1       6.839 -19.082  -1.939  0.00  0.00    +0.163 C 
BRANCH   6   9
ATOM      7  N   UNL     1       5.528 -20.543   1.215  0.00  0.00    -0.283 N 
ATOM      8  C   UNL     1       5.750 -20.564  -0.160  0.00  0.00    +0.303 C 
ATOM      9  N   UNL     1       6.549 -19.504  -0.549  0.00  0.00    -0.288 N 
ATOM     10  H   UNL     1       7.397 -19.546  -0.014  0.00  0.00    +0.151 HD
ATOM     11  O   UNL     1       5.294 -21.411  -0.911  0.00  0.00    -0.253 OA
ATOM     12  C   UNL     1       6.014 -19.467   2.076  0.00  0.00    +0.134 C 
BRANCH   7  13
ATOM     13  C   UNL     1       4.535 -21.451   1.784  0.00  0.00    +0.164 C 
BRANCH  13  17
ATOM     14  C   UNL     1       5.662 -22.769   4.962  0.00  0.00    +0.081 A 
ATOM     15  S   UNL     1       6.225 -24.196   4.179  0.00  0.00    -0.080 S 
ATOM     16  C   UNL     1       5.714 -23.546   2.677  0.00  0.00    +0.071 A 
ATOM     17  C   UNL     1       5.152 -22.318   2.849  0.00  0.00    +0.066 A 
ATOM     18  N   UNL     1       5.131 -21.869   4.170  0.00  0.00    -0.247 NA
BRANCH  14  20
ATOM     19  C   UNL     1       6.705 -21.432   6.787  0.00  0.00    +0.014 C 
ATOM     20  C   UNL     1       5.803 -22.619   6.459  0.00  0.00    +0.038 C 
ATOM     21  C   UNL     1       4.434 -22.458   7.121  0.00  0.00    +0.014 C 
ENDBRANCH  14  20
ENDBRANCH  13  17
ENDBRANCH   7  13
ENDBRANCH   6   9
BRANCH   6  22
ATOM     22  C   UNL     1       5.518 -19.090  -2.834  0.00  0.00    +0.012 C 
ATOM     23  C   UNL     1       5.689 -19.402  -4.335  0.00  0.00    +0.009 C 
ATOM     24  C   UNL     1       4.519 -17.951  -2.661  0.00  0.00    +0.009 C 
ENDBRANCH   6  22
ENDBRANCH   2   6
ENDBRANCH   1   3
BRANCH   1  25
ATOM     25  C   UNL     1       9.238 -15.029  -0.969  0.00  0.00    +0.055 C 
BRANCH  25  26
ATOM     26  C   UNL     1       7.815 -14.425  -0.975  0.00  0.00    +0.137 C 
BRANCH  26  27
ATOM     27  O   UNL     1       7.615 -13.656   0.221  0.00  0.00    -0.390 OA
ATOM     28  H   UNL     1       6.651 -13.523   0.286  0.00  0.00    +0.210 HD
ENDBRANCH  26  27
BRANCH  26  29
ATOM     29  C   UNL     1       7.373 -13.613  -2.201  0.00  0.00    +0.109 C 
BRANCH  29  30
ATOM     30  N   UNL     1       5.904 -13.493  -2.134  0.00  0.00    -0.275 N 
ATOM     31  H   UNL     1       5.472 -12.733  -1.628  0.00  0.00    +0.152 HD
ATOM     32  C   UNL     1       5.096 -14.106  -3.046  0.00  0.00    +0.401 C 
ATOM     33  O   UNL     1       5.431 -14.885  -3.920  0.00  0.00    -0.226 OA
BRANCH  32  34
ATOM     34  O   UNL     1       3.854 -13.577  -2.926  0.00  0.00    -0.445 OA
BRANCH  34  35
ATOM     35  C   UNL     1       2.878 -14.100  -3.839  0.00  0.00    +0.278 C 
BRANCH  35  36
ATOM     36  C   UNL     1       1.887 -14.871  -2.987  0.00  0.00    +0.046 A 
ATOM     37  S   UNL     1       0.604 -15.727  -3.739  0.00  0.00    -0.077 S 
ATOM     38  C   UNL     1       0.082 -16.234  -2.179  0.00  0.00    +0.156 A 
ATOM     39  N   UNL     1       0.771 -15.810  -1.164  0.00  0.00    -0.255 NA
ATOM     40  C   UNL     1       1.811 -15.032  -1.633  0.00  0.00    +0.125 A 
ENDBRANCH  35  36
ENDBRANCH  34  35
ENDBRANCH  32  34
ENDBRANCH  29  30
BRANCH  29  41
ATOM     41  C   UNL     1       7.962 -12.177  -2.418  0.00  0.00    +0.060 C 
BRANCH  41  42
ATOM     42  C   UNL     1       7.844 -11.884  -3.920  0.00  0.00    -0.046 A 
ATOM     43  C   UNL     1       8.943 -12.233  -4.709  0.00  0.00    +0.004 A 
ATOM     44  C   UNL     1       8.725 -12.849  -5.936  0.00  0.00    +0.000 A 
ATOM     45  C   UNL     1       7.425 -13.025  -6.406  0.00  0.00    +0.000 A 
ATOM     46  C   UNL     1       6.359 -12.426  -5.739  0.00  0.00    +0.000 A 
ATOM     47  C   UNL     1       6.575 -11.791  -4.516  0.00  0.00    +0.004 A 
ENDBRANCH  41  42
ENDBRANCH  29  41
ENDBRANCH  26  29
ENDBRANCH  25  26
ENDBRANCH   1  25
BRANCH   1  48
ATOM     48  C   UNL     1      10.553 -16.414   0.915  0.00  0.00    +0.057 C 
BRANCH  48  49
ATOM     49  C   UNL     1      11.917 -17.036   0.648  0.00  0.00    -0.046 A 
ATOM     50  C   UNL     1      13.012 -16.761   1.515  0.00  0.00    +0.004 A 
ATOM     51  C   UNL     1      14.282 -17.353   1.341  0.00  0.00    +0.000 A 
ATOM     52  C   UNL     1      14.473 -18.254   0.300  0.00  0.00    +0.000 A 
ATOM     53  C   UNL     1      13.400 -18.551  -0.535  0.00  0.00    +0.000 A 
ATOM     54  C   UNL     1      12.136 -17.962  -0.367  0.00  0.00    +0.004 A 
ENDBRANCH  48  49
ENDBRANCH   1  48
TORSDOF 19
