REMARK  Name = 
REMARK  17 active torsions:
REMARK  status: ('A' for Active; 'I' for Inactive)
REMARK    1  A    between atoms: C_1  and  C_2
REMARK    2  A    between atoms: C_2  and  C_3
REMARK    3  A    between atoms: C_2  and  C_4
REMARK    4  A    between atoms: C_2  and  N_5
REMARK    5  A    between atoms: C_6  and  C_8
REMARK    6  A    between atoms: N_11  and  C_43
REMARK    7  A    between atoms: N_14  and  C_15
REMARK    8  A    between atoms: C_15  and  C_16
REMARK    9  A    between atoms: C_16  and  C_18
REMARK   10  A    between atoms: C_16  and  O_42
REMARK   11  A    between atoms: C_18  and  C_19
REMARK   12  A    between atoms: C_19  and  C_21
REMARK   13  A    between atoms: C_19  and  C_28
REMARK   14  A    between atoms: C_21  and  C_22
REMARK   15  A    between atoms: N_30  and  C_31
REMARK   16  A    between atoms: C_32  and  O_41
REMARK   17  A    between atoms: C_43  and  C_44
REMARK                            x       y       z     vdW  Elec       q    Type
REMARK                         _______ _______ _______ _____ _____    ______ ____
ROOT
ATOM      1  C   UNL     1       7.437   2.994  -3.559  0.00  0.00    +0.129 C 
ENDROOT
BRANCH   1   2
ATOM      2  O   UNL     1       8.179   3.677  -4.578  0.00  0.00    -0.391 OA
ATOM      3  H   UNL     1       7.543   4.001  -5.240  0.00  0.00    +0.210 HD
ENDBRANCH   1   2
BRANCH   1   4
ATOM      4  C   UNL     1       8.394   2.601  -2.385  0.00  0.00    +0.116 C 
BRANCH   4   6
ATOM      5  C   UNL     1      10.367   1.509  -1.345  0.00  0.00    +0.157 C 
ATOM      6  N   UNL     1       9.496   1.612  -2.586  0.00  0.00    -0.287 NA
ATOM      7  C   UNL     1      10.447   2.032  -3.656  0.00  0.00    +0.100 C 
ATOM      8  C   UNL     1      11.220   3.348  -3.368  0.00  0.00    +0.100 C 
ATOM      9  N   UNL     1      12.028   3.279  -2.130  0.00  0.00    -0.295 NA
ATOM     10  C   UNL     1      11.205   2.777  -1.006  0.00  0.00    +0.113 C 
BRANCH   5  13
ATOM     11  N   UNL     1       8.802  -0.050  -0.289  0.00  0.00    -0.309 N 
ATOM     12  H   UNL     1       8.741  -0.394  -1.242  0.00  0.00    +0.149 HD
ATOM     13  C   UNL     1       9.576   1.079  -0.101  0.00  0.00    +0.232 C 
ATOM     14  O   UNL     1       9.664   1.665   0.975  0.00  0.00    -0.274 OA
BRANCH  11  16
ATOM     15  C   UNL     1       7.019   0.249   1.401  0.00  0.00    +0.031 C 
ATOM     16  C   UNL     1       8.051  -0.707   0.788  0.00  0.00    +0.026 C 
ATOM     17  C   UNL     1       7.286  -1.897   0.205  0.00  0.00    +0.031 C 
ATOM     18  C   UNL     1       9.012  -1.253   1.857  0.00  0.00    +0.031 C 
ENDBRANCH  11  16
ENDBRANCH   5  13
BRANCH   9  19
ATOM     19  C   UNL     1      12.605   4.605  -1.823  0.00  0.00    +0.121 C 
BRANCH  19  20
ATOM     20  C   UNL     1      13.530   4.619  -0.630  0.00  0.00    -0.015 A 
ATOM     21  C   UNL     1      13.285   5.439   0.479  0.00  0.00    +0.008 A 
ATOM     22  C   UNL     1      14.155   5.413   1.565  0.00  0.00    +0.020 A 
ATOM     23  C   UNL     1      15.253   4.570   1.507  0.00  0.00    +0.111 A 
ATOM     24  N   UNL     1      15.536   3.778   0.451  0.00  0.00    -0.263 NA
ATOM     25  C   UNL     1      14.669   3.820  -0.589  0.00  0.00    +0.115 A 
ENDBRANCH  19  20
ENDBRANCH   9  19
ENDBRANCH   4   6
ENDBRANCH   1   4
BRANCH   1  26
ATOM     26  C   UNL     1       6.607   1.873  -4.210  0.00  0.00    +0.045 C 
BRANCH  26  27
ATOM     27  C   UNL     1       5.698   1.063  -3.263  0.00  0.00    +0.082 C 
BRANCH  27  28
ATOM     28  C   UNL     1       5.197  -0.243  -3.905  0.00  0.00    +0.217 C 
ATOM     29  N   UNL     1       6.200  -1.099  -4.322  0.00  0.00    -0.306 N 
ATOM     30  H   UNL     1       7.168  -0.850  -4.167  0.00  0.00    +0.149 HD
ATOM     31  O   UNL     1       4.009  -0.543  -3.982  0.00  0.00    -0.275 OA
BRANCH  29  32
ATOM     32  C   UNL     1       5.913  -2.400  -4.899  0.00  0.00    +0.128 C 
ATOM     33  C   UNL     1       6.614  -3.479  -4.138  0.00  0.00    -0.044 C 
ATOM     34  C   UNL     1       6.648  -3.578  -2.649  0.00  0.00    +0.037 C 
ATOM     35  C   UNL     1       7.315  -4.849  -2.095  0.00  0.00    +0.031 C 
ATOM     36  C   UNL     1       7.890  -5.790  -3.118  0.00  0.00    -0.026 C 
ATOM     37  C   UNL     1       7.835  -5.558  -4.439  0.00  0.00    -0.001 C 
ATOM     38  C   UNL     1       7.183  -4.384  -4.943  0.00  0.00    -0.044 C 
ATOM     39  C   UNL     1       7.023  -4.037  -6.382  0.00  0.00    +0.068 C 
ATOM     40  C   UNL     1       6.499  -2.589  -6.324  0.00  0.00    +0.143 C 
BRANCH  40  41
ATOM     41  O   UNL     1       5.537  -2.357  -7.351  0.00  0.00    -0.389 OA
ATOM     42  H   UNL     1       4.708  -2.795  -7.089  0.00  0.00    +0.210 HD
ENDBRANCH  40  41
ENDBRANCH  29  32
ENDBRANCH  27  28
BRANCH  27  43
ATOM     43  C   UNL     1       4.559   1.875  -2.573  0.00  0.00    +0.048 C 
BRANCH  43  44
ATOM     44  C   UNL     1       3.617   2.778  -3.354  0.00  0.00    -0.047 A 
ATOM     45  C   UNL     1       3.161   3.968  -2.753  0.00  0.00    +0.003 A 
ATOM     46  C   UNL     1       2.290   4.836  -3.420  0.00  0.00    +0.000 A 
ATOM     47  C   UNL     1       1.835   4.521  -4.696  0.00  0.00    +0.000 A 
ATOM     48  C   UNL     1       2.218   3.315  -5.277  0.00  0.00    +0.000 A 
ATOM     49  C   UNL     1       3.093   2.448  -4.609  0.00  0.00    +0.003 A 
ENDBRANCH  43  44
ENDBRANCH  27  43
ENDBRANCH  26  27
ENDBRANCH   1  26
TORSDOF 14
