REMARK  Name = 
REMARK  17 active torsions:
REMARK  status: ('A' for Active; 'I' for Inactive)
REMARK    1  A    between atoms: C_1  and  C_2
REMARK    2  A    between atoms: C_2  and  C_3
REMARK    3  A    between atoms: C_2  and  C_4
REMARK    4  A    between atoms: C_2  and  N_5
REMARK    5  A    between atoms: C_6  and  C_8
REMARK    6  A    between atoms: N_11  and  C_43
REMARK    7  A    between atoms: N_14  and  C_15
REMARK    8  A    between atoms: C_15  and  C_16
REMARK    9  A    between atoms: C_16  and  C_18
REMARK   10  A    between atoms: C_16  and  O_42
REMARK   11  A    between atoms: C_18  and  C_19
REMARK   12  A    between atoms: C_19  and  C_21
REMARK   13  A    between atoms: C_19  and  C_28
REMARK   14  A    between atoms: C_21  and  C_22
REMARK   15  A    between atoms: N_30  and  C_31
REMARK   16  A    between atoms: C_32  and  O_41
REMARK   17  A    between atoms: C_43  and  C_44
REMARK                            x       y       z     vdW  Elec       q    Type
REMARK                         _______ _______ _______ _____ _____    ______ ____
ROOT
ATOM      1  C   UNL     1       4.380   3.723   5.019  0.00  0.00    +0.129 C 
ENDROOT
BRANCH   1   2
ATOM      2  O   UNL     1       4.393   4.172   6.382  0.00  0.00    -0.391 OA
ATOM      3  H   UNL     1       5.320   4.158   6.681  0.00  0.00    +0.210 HD
ENDBRANCH   1   2
BRANCH   1   4
ATOM      4  C   UNL     1       3.052   4.208   4.345  0.00  0.00    +0.116 C 
BRANCH   4   6
ATOM      5  C   UNL     1       0.645   4.491   3.832  0.00  0.00    +0.157 C 
ATOM      6  N   UNL     1       1.673   3.710   4.647  0.00  0.00    -0.287 NA
ATOM      7  C   UNL     1       1.219   3.897   6.048  0.00  0.00    +0.100 C 
ATOM      8  C   UNL     1       0.969   5.362   6.508  0.00  0.00    +0.100 C 
ATOM      9  N   UNL     1       0.066   6.160   5.633  0.00  0.00    -0.295 NA
ATOM     10  C   UNL     1       0.468   5.993   4.217  0.00  0.00    +0.113 C 
BRANCH   5  13
ATOM     11  N   UNL     1       1.062   2.985   1.989  0.00  0.00    -0.309 N 
ATOM     12  H   UNL     1       1.148   2.345   2.773  0.00  0.00    +0.149 HD
ATOM     13  C   UNL     1       0.886   4.315   2.330  0.00  0.00    +0.232 C 
ATOM     14  O   UNL     1       0.883   5.246   1.533  0.00  0.00    -0.274 OA
BRANCH  11  16
ATOM     15  C   UNL     1       2.457   3.108  -0.043  0.00  0.00    +0.031 C 
ATOM     16  C   UNL     1       1.220   2.488   0.621  0.00  0.00    +0.026 C 
ATOM     17  C   UNL     1       1.409   0.962   0.667  0.00  0.00    +0.031 C 
ATOM     18  C   UNL     1      -0.051   2.794  -0.189  0.00  0.00    +0.031 C 
ENDBRANCH  11  16
ENDBRANCH   5  13
BRANCH   9  19
ATOM     19  C   UNL     1       0.098   7.574   6.072  0.00  0.00    +0.121 C 
BRANCH  19  20
ATOM     20  C   UNL     1      -0.802   8.551   5.350  0.00  0.00    -0.015 A 
ATOM     21  C   UNL     1      -2.196   8.456   5.370  0.00  0.00    +0.008 A 
ATOM     22  C   UNL     1      -2.971   9.466   4.796  0.00  0.00    +0.020 A 
ATOM     23  C   UNL     1      -2.326  10.545   4.215  0.00  0.00    +0.111 A 
ATOM     24  N   UNL     1      -0.985  10.673   4.165  0.00  0.00    -0.263 NA
ATOM     25  C   UNL     1      -0.260   9.678   4.731  0.00  0.00    +0.115 A 
ENDBRANCH  19  20
ENDBRANCH   9  19
ENDBRANCH   4   6
ENDBRANCH   1   4
BRANCH   1  26
ATOM     26  C   UNL     1       4.810   2.243   4.992  0.00  0.00    +0.045 C 
BRANCH  26  27
ATOM     27  C   UNL     1       4.892   1.479   3.648  0.00  0.00    +0.082 C 
BRANCH  27  28
ATOM     28  C   UNL     1       5.175  -0.013   3.888  0.00  0.00    +0.217 C 
ATOM     29  N   UNL     1       4.274  -0.654   4.716  0.00  0.00    -0.306 N 
ATOM     30  H   UNL     1       3.376  -0.226   4.896  0.00  0.00    +0.149 HD
ATOM     31  O   UNL     1       6.115  -0.614   3.380  0.00  0.00    -0.275 OA
BRANCH  29  32
ATOM     32  C   UNL     1       4.430  -2.065   5.001  0.00  0.00    +0.128 C 
ATOM     33  C   UNL     1       3.578  -2.895   4.097  0.00  0.00    -0.044 C 
ATOM     34  C   UNL     1       3.384  -2.645   2.636  0.00  0.00    +0.037 C 
ATOM     35  C   UNL     1       2.511  -3.707   1.927  0.00  0.00    +0.031 C 
ATOM     36  C   UNL     1       2.041  -4.863   2.776  0.00  0.00    -0.026 C 
ATOM     37  C   UNL     1       2.300  -4.958   4.090  0.00  0.00    -0.001 C 
ATOM     38  C   UNL     1       3.067  -3.949   4.748  0.00  0.00    -0.044 C 
ATOM     39  C   UNL     1       3.424  -3.944   6.199  0.00  0.00    +0.068 C 
ATOM     40  C   UNL     1       3.907  -2.495   6.397  0.00  0.00    +0.143 C 
BRANCH  40  41
ATOM     41  O   UNL     1       4.903  -2.416   7.414  0.00  0.00    -0.389 OA
ATOM     42  H   UNL     1       5.690  -2.896   7.104  0.00  0.00    +0.210 HD
ENDBRANCH  40  41
ENDBRANCH  29  32
ENDBRANCH  27  28
BRANCH  27  43
ATOM     43  C   UNL     1       5.803   2.052   2.515  0.00  0.00    +0.048 C 
BRANCH  43  44
ATOM     44  C   UNL     1       7.319   1.914   2.399  0.00  0.00    -0.047 A 
ATOM     45  C   UNL     1       7.889   2.055   1.110  0.00  0.00    +0.003 A 
ATOM     46  C   UNL     1       9.264   1.924   0.886  0.00  0.00    +0.000 A 
ATOM     47  C   UNL     1      10.116   1.656   1.953  0.00  0.00    +0.000 A 
ATOM     48  C   UNL     1       9.574   1.517   3.230  0.00  0.00    +0.000 A 
ATOM     49  C   UNL     1       8.192   1.654   3.457  0.00  0.00    +0.003 A 
ENDBRANCH  43  44
ENDBRANCH  27  43
ENDBRANCH  26  27
ENDBRANCH   1  26
TORSDOF 14
