REMARK  Name = 
REMARK  7 active torsions:
REMARK  status: ('A' for Active; 'I' for Inactive)
REMARK    1  A    between atoms: C_1  and  O_2
REMARK    2  A    between atoms: O_2  and  C_3
REMARK    3  A    between atoms: C_3  and  O_5
REMARK    4  A    between atoms: O_5  and  C_6
REMARK    5  A    between atoms: C_6  and  O_7
REMARK    6  A    between atoms: O_7  and  C_8
REMARK    7  A    between atoms: N_19  and  C_25
REMARK                            x       y       z     vdW  Elec       q    Type
REMARK                         _______ _______ _______ _____ _____    ______ ____
ROOT
ATOM      1  C   UNL     1       8.746  -2.896  -0.225  0.00  0.00    +0.201 A 
ATOM      2  C   UNL     1       7.682  -2.076   0.454  0.00  0.00    +0.224 A 
ATOM      3  O   UNL     1       6.993  -1.246  -0.134  0.00  0.00    -0.284 OA
ATOM      4  C   UNL     1       7.455  -2.291   1.895  0.00  0.00    +0.074 A 
ATOM      5  C   UNL     1       8.209  -3.192   2.531  0.00  0.00    +0.113 A 
ATOM      6  N   UNL     1       9.269  -3.884   1.961  0.00  0.00    -0.260 N 
ATOM      7  N   UNL     1       9.826  -5.061   2.640  0.00  0.00    -0.236 N 
ATOM      8  C   UNL     1      10.403  -6.032   1.673  0.00  0.00    +0.206 C 
ATOM      9  N   UNL     1      11.308  -5.319   0.775  0.00  0.00    -0.272 N 
ATOM     10  C   UNL     1      12.408  -6.037   0.125  0.00  0.00    +0.138 C 
ATOM     11  C   UNL     1      12.828  -7.353   0.756  0.00  0.00    +0.179 C 
ATOM     12  O   UNL     1      11.669  -8.118   1.098  0.00  0.00    -0.375 OA
ATOM     13  C   UNL     1      10.706  -4.355  -0.029  0.00  0.00    +0.270 C 
ATOM     14  O   UNL     1      11.149  -4.069  -1.139  0.00  0.00    -0.268 OA
ATOM     15  C   UNL     1      10.918  -7.429   2.115  0.00  0.00    +0.203 C 
ATOM     16  C   UNL     1       9.509  -3.681   0.579  0.00  0.00    +0.169 A 
ENDROOT
BRANCH   7  17
ATOM     17  C   UNL     1      10.310  -4.853   4.045  0.00  0.00    +0.155 C 
ATOM     18  C   UNL     1      11.421  -3.847   4.348  0.00  0.00    -0.008 A 
ATOM     19  C   UNL     1      12.777  -4.104   4.153  0.00  0.00    +0.014 A 
ATOM     20  C   UNL     1      13.739  -3.101   4.353  0.00  0.00    +0.015 A 
ATOM     21  C   UNL     1      13.385  -1.870   4.888  0.00  0.00    +0.001 A 
ATOM     22  C   UNL     1      12.061  -1.635   5.222  0.00  0.00    +0.000 A 
ATOM     23  S   UNL     1      13.406  -5.695   3.758  0.00  0.00    -0.120 S 
ATOM     24  C   UNL     1      12.797  -6.660   5.156  0.00  0.00    +0.112 C 
ATOM     25  C   UNL     1      11.315  -6.922   5.338  0.00  0.00    +0.006 A 
ATOM     26  C   UNL     1      11.017  -8.115   6.041  0.00  0.00    +0.163 A 
ATOM     27  F   UNL     1      12.012  -8.961   6.353  0.00  0.00    -0.202 F 
ATOM     28  C   UNL     1       9.724  -8.461   6.418  0.00  0.00    +0.159 A 
ATOM     29  F   UNL     1       9.492  -9.611   7.065  0.00  0.00    -0.202 F 
ATOM     30  C   UNL     1       8.673  -7.614   6.137  0.00  0.00    +0.041 A 
ATOM     31  C   UNL     1       8.923  -6.458   5.400  0.00  0.00    +0.009 A 
ATOM     32  C   UNL     1      11.090  -2.601   4.935  0.00  0.00    +0.007 A 
ATOM     33  C   UNL     1      10.232  -6.100   4.952  0.00  0.00    -0.014 A 
ENDBRANCH   7  17
BRANCH   1  34
ATOM     34  O   UNL     1       8.938  -2.801  -1.599  0.00  0.00    -0.450 OA
BRANCH  34  35
ATOM     35  C   UNL     1       7.782  -2.569  -2.409  0.00  0.00    +0.473 C 
BRANCH  35  36
ATOM     36  O   UNL     1       7.971  -3.070  -3.739  0.00  0.00    -0.397 OA
BRANCH  36  37
ATOM     37  C   UNL     1       7.682  -4.384  -3.882  0.00  0.00    +0.513 C 
ATOM     38  O   UNL     1       7.297  -5.138  -3.001  0.00  0.00    -0.203 OA
BRANCH  37  40
ATOM     39  C   UNL     1       7.570  -6.084  -5.484  0.00  0.00    +0.284 C 
ATOM     40  O   UNL     1       7.852  -4.717  -5.189  0.00  0.00    -0.437 OA
ENDBRANCH  37  40
ENDBRANCH  36  37
ENDBRANCH  35  36
ENDBRANCH  34  35
ENDBRANCH   1  34
TORSDOF 6
