REMARK  Name = 
REMARK  27 active torsions:
REMARK  status: ('A' for Active; 'I' for Inactive)
REMARK    1  A    between atoms: C_1  and  C_2
REMARK    2  A    between atoms: C_2  and  C_3
REMARK    3  A    between atoms: C_2  and  C_4
REMARK    4  A    between atoms: C_2  and  C_5
REMARK    5  A    between atoms: C_5  and  C_7
REMARK    6  A    between atoms: C_5  and  N_51
REMARK    7  A    between atoms: N_9  and  C_10
REMARK    8  A    between atoms: C_10  and  C_12
REMARK    9  A    between atoms: C_10  and  C_19
REMARK   10  A    between atoms: C_12  and  C_13
REMARK   11  A    between atoms: C_19  and  C_21
REMARK   12  A    between atoms: C_19  and  O_50
REMARK   13  A    between atoms: C_21  and  N_22
REMARK   14  A    between atoms: N_22  and  C_23
REMARK   15  A    between atoms: N_22  and  N_36
REMARK   16  A    between atoms: C_23  and  C_24
REMARK   17  A    between atoms: C_27  and  C_30
REMARK   18  A    between atoms: C_37  and  C_39
REMARK   19  A    between atoms: C_39  and  C_41
REMARK   20  A    between atoms: C_39  and  N_45
REMARK   21  A    between atoms: C_41  and  C_42
REMARK   22  A    between atoms: C_41  and  C_43
REMARK   23  A    between atoms: C_41  and  C_44
REMARK   24  A    between atoms: C_46  and  O_48
REMARK   25  A    between atoms: O_48  and  C_49
REMARK   26  A    between atoms: C_52  and  O_54
REMARK   27  A    between atoms: O_54  and  C_55
REMARK                            x       y       z     vdW  Elec       q    Type
REMARK                         _______ _______ _______ _____ _____    ______ ____
ROOT
ATOM      1  N   UNL     1      -0.698   0.626  -1.571  0.00  0.00    -0.220 NA
ENDROOT
BRANCH   1   2
ATOM      2  N   UNL     1      -1.235   1.589  -0.668  0.00  0.00    -0.246 N 
ATOM      3  H   UNL     1      -2.254   1.576  -0.580  0.00  0.00    +0.169 HD
ATOM      4  C   UNL     1      -0.497   2.242   0.316  0.00  0.00    +0.248 C 
ATOM      5  O   UNL     1       0.729   2.223   0.452  0.00  0.00    -0.272 OA
BRANCH   4   6
ATOM      6  C   UNL     1      -1.361   3.089   1.272  0.00  0.00    +0.169 C 
BRANCH   6   7
ATOM      7  C   UNL     1      -1.763   2.307   2.558  0.00  0.00    -0.011 C 
ATOM      8  C   UNL     1      -2.645   1.109   2.183  0.00  0.00    +0.013 C 
ATOM      9  C   UNL     1      -2.596   3.204   3.494  0.00  0.00    +0.013 C 
ATOM     10  C   UNL     1      -0.533   1.795   3.335  0.00  0.00    +0.013 C 
ENDBRANCH   6   7
BRANCH   6  11
ATOM     11  N   UNL     1      -0.561   4.270   1.563  0.00  0.00    -0.269 N 
ATOM     12  H   UNL     1       0.452   4.154   1.617  0.00  0.00    +0.153 HD
ATOM     13  C   UNL     1      -1.057   5.516   1.722  0.00  0.00    +0.401 C 
ATOM     14  O   UNL     1      -2.236   5.832   1.662  0.00  0.00    -0.226 OA
BRANCH  13  15
ATOM     15  O   UNL     1      -0.043   6.371   2.043  0.00  0.00    -0.454 OA
ATOM     16  C   UNL     1      -0.481   7.681   2.380  0.00  0.00    +0.282 C 
ENDBRANCH  13  15
ENDBRANCH   6  11
ENDBRANCH   4   6
ENDBRANCH   1   2
BRANCH   1  17
ATOM     17  C   UNL     1      -1.581   0.461  -2.751  0.00  0.00    +0.139 C 
BRANCH  17  18
ATOM     18  C   UNL     1      -3.076   0.055  -2.577  0.00  0.00    +0.151 C 
BRANCH  18  19
ATOM     19  O   UNL     1      -3.769   0.878  -1.622  0.00  0.00    -0.389 OA
ATOM     20  H   UNL     1      -4.302   1.508  -2.146  0.00  0.00    +0.210 HD
ENDBRANCH  18  19
BRANCH  18  21
ATOM     21  C   UNL     1      -3.499  -1.456  -2.502  0.00  0.00    +0.107 C 
BRANCH  21  23
ATOM     22  C   UNL     1      -2.462  -2.799  -0.511  0.00  0.00    +0.234 C 
ATOM     23  N   UNL     1      -3.490  -2.149  -1.163  0.00  0.00    -0.308 N 
ATOM     24  H   UNL     1      -4.332  -2.002  -0.629  0.00  0.00    +0.149 HD
ATOM     25  O   UNL     1      -1.362  -2.904  -1.066  0.00  0.00    -0.274 OA
BRANCH  22  26
ATOM     26  C   UNL     1      -2.762  -3.637   0.879  0.00  0.00    +0.167 C 
BRANCH  26  27
ATOM     27  N   UNL     1      -1.478  -3.892   1.556  0.00  0.00    -0.269 N 
ATOM     28  H   UNL     1      -1.056  -4.812   1.489  0.00  0.00    +0.153 HD
ATOM     29  C   UNL     1      -0.669  -2.934   2.043  0.00  0.00    +0.401 C 
ATOM     30  O   UNL     1      -0.942  -1.746   2.119  0.00  0.00    -0.226 OA
BRANCH  29  31
ATOM     31  O   UNL     1       0.523  -3.470   2.422  0.00  0.00    -0.454 OA
ATOM     32  C   UNL     1       1.501  -2.492   2.790  0.00  0.00    +0.282 C 
ENDBRANCH  29  31
ENDBRANCH  26  27
BRANCH  26  34
ATOM     33  C   UNL     1      -5.284  -3.840   1.297  0.00  0.00    +0.013 C 
ATOM     34  C   UNL     1      -3.947  -3.356   1.902  0.00  0.00    -0.011 C 
ATOM     35  C   UNL     1      -3.807  -4.137   3.254  0.00  0.00    +0.013 C 
ATOM     36  C   UNL     1      -4.070  -1.890   2.315  0.00  0.00    +0.013 C 
ENDBRANCH  26  34
ENDBRANCH  22  26
ENDBRANCH  21  23
BRANCH  21  37
ATOM     37  C   UNL     1      -2.914  -2.164  -3.761  0.00  0.00    +0.060 C 
BRANCH  37  38
ATOM     38  C   UNL     1      -3.591  -3.421  -4.246  0.00  0.00    -0.046 A 
ATOM     39  C   UNL     1      -3.110  -4.653  -3.790  0.00  0.00    +0.004 A 
ATOM     40  C   UNL     1      -3.653  -5.842  -4.268  0.00  0.00    +0.000 A 
ATOM     41  C   UNL     1      -4.684  -5.819  -5.206  0.00  0.00    +0.000 A 
ATOM     42  C   UNL     1      -5.162  -4.601  -5.682  0.00  0.00    +0.000 A 
ATOM     43  C   UNL     1      -4.618  -3.403  -5.204  0.00  0.00    +0.004 A 
ENDBRANCH  37  38
ENDBRANCH  21  37
ENDBRANCH  18  21
ENDBRANCH  17  18
ENDBRANCH   1  17
BRANCH   1  44
ATOM     44  C   UNL     1       0.722   0.863  -1.997  0.00  0.00    +0.140 C 
BRANCH  44  45
ATOM     45  C   UNL     1       1.002   1.982  -2.998  0.00  0.00    -0.032 A 
ATOM     46  C   UNL     1       2.073   1.851  -3.893  0.00  0.00    +0.005 A 
ATOM     47  C   UNL     1       2.145   2.639  -5.057  0.00  0.00    +0.010 A 
ATOM     48  C   UNL     1       1.166   3.605  -5.341  0.00  0.00    +0.000 A 
ATOM     49  C   UNL     1       0.220   3.842  -4.325  0.00  0.00    +0.010 A 
ATOM     50  C   UNL     1       0.174   3.091  -3.152  0.00  0.00    +0.005 A 
BRANCH  48  51
ATOM     51  C   UNL     1       1.089   4.404  -6.591  0.00  0.00    +0.071 A 
ATOM     52  N   UNL     1      -0.074   5.100  -6.744  0.00  0.00    -0.255 NA
ATOM     53  C   UNL     1      -0.169   6.006  -7.736  0.00  0.00    +0.111 A 
ATOM     54  C   UNL     1       0.850   6.264  -8.626  0.00  0.00    +0.020 A 
ATOM     55  C   UNL     1       2.003   5.495  -8.530  0.00  0.00    +0.004 A 
ATOM     56  C   UNL     1       2.120   4.539  -7.516  0.00  0.00    +0.028 A 
ENDBRANCH  48  51
ENDBRANCH  44  45
ENDBRANCH   1  44
TORSDOF 19
