REMARK  Name = 
REMARK  229 active torsions:
REMARK  status: ('A' for Active; 'I' for Inactive)
REMARK    1  A    between atoms: CD1_1  and  CG1_2
REMARK    2  A    between atoms: CG1_2  and  CB_3
REMARK    3  A    between atoms: CB_3  and  CG2_5
REMARK    4  A    between atoms: CB_3  and  CA_6
REMARK    5  A    between atoms: CA_6  and  C_8
REMARK    6  A    between atoms: CA_6  and  N_280
REMARK    7  A    between atoms: C_8  and  O_279
REMARK    8  A    between atoms: N_9  and  CA_10
REMARK    9  A    between atoms: CA_10  and  CB_12
REMARK   10  A    between atoms: CA_10  and  C_17
REMARK   11  A    between atoms: CB_12  and  CG_13
REMARK   12  A    between atoms: CG_13  and  CD_14
REMARK   13  A    between atoms: CD_14  and  OE2_16
REMARK   14  A    between atoms: C_17  and  O_278
REMARK   15  A    between atoms: N_18  and  CA_19
REMARK   16  A    between atoms: CA_19  and  CB_21
REMARK   17  A    between atoms: CA_19  and  C_26
REMARK   18  A    between atoms: CB_21  and  CG_22
REMARK   19  A    between atoms: CG_22  and  CD_23
REMARK   20  A    between atoms: CD_23  and  OE2_25
REMARK   21  A    between atoms: C_26  and  O_277
REMARK   22  A    between atoms: N_27  and  CA_28
REMARK   23  A    between atoms: CA_28  and  CB_30
REMARK   24  A    between atoms: CA_28  and  C_32
REMARK   25  A    between atoms: CB_30  and  OG_31
REMARK   26  A    between atoms: C_32  and  O_276
REMARK   27  A    between atoms: N_33  and  CA_34
REMARK   28  A    between atoms: CA_34  and  CB_36
REMARK   29  A    between atoms: CA_34  and  C_41
REMARK   30  A    between atoms: CB_36  and  CG_37
REMARK   31  A    between atoms: CG_37  and  CD_38
REMARK   32  A    between atoms: CD_38  and  OE1_40
REMARK   33  A    between atoms: C_41  and  O_275
REMARK   34  A    between atoms: N_42  and  CA_43
REMARK   35  A    between atoms: CA_43  and  CB_45
REMARK   36  A    between atoms: CA_43  and  C_49
REMARK   37  A    between atoms: CB_45  and  CG_46
REMARK   38  A    between atoms: CG_46  and  OD1_48
REMARK   39  A    between atoms: C_49  and  O_274
REMARK   40  A    between atoms: N_50  and  CA_51
REMARK   41  A    between atoms: CA_51  and  CB_53
REMARK   42  A    between atoms: CA_51  and  C_58
REMARK   43  A    between atoms: CB_53  and  CG_54
REMARK   44  A    between atoms: CG_54  and  CD_55
REMARK   45  A    between atoms: CD_55  and  OE1_57
REMARK   46  A    between atoms: C_58  and  O_273
REMARK   47  A    between atoms: N_59  and  CA_60
REMARK   48  A    between atoms: CA_60  and  CB_62
REMARK   49  A    between atoms: CA_60  and  C_67
REMARK   50  A    between atoms: CB_62  and  CG_63
REMARK   51  A    between atoms: CG_63  and  CD_64
REMARK   52  A    between atoms: CD_64  and  OE1_66
REMARK   53  A    between atoms: C_67  and  O_272
REMARK   54  A    between atoms: N_68  and  CA_69
REMARK   55  A    between atoms: CA_69  and  CB_71
REMARK   56  A    between atoms: CA_69  and  C_76
REMARK   57  A    between atoms: CB_71  and  CG_72
REMARK   58  A    between atoms: CG_72  and  CD_73
REMARK   59  A    between atoms: CD_73  and  OE2_75
REMARK   60  A    between atoms: C_76  and  O_271
REMARK   61  A    between atoms: N_77  and  CA_78
REMARK   62  A    between atoms: CA_78  and  CB_80
REMARK   63  A    between atoms: CA_78  and  C_85
REMARK   64  A    between atoms: CB_80  and  CG_81
REMARK   65  A    between atoms: CG_81  and  CD_82
REMARK   66  A    between atoms: CD_82  and  CE_83
REMARK   67  A    between atoms: CE_83  and  NZ_84
REMARK   68  A    between atoms: C_85  and  O_270
REMARK   69  A    between atoms: N_86  and  CA_87
REMARK   70  A    between atoms: CA_87  and  CB_89
REMARK   71  A    between atoms: CA_87  and  C_93
REMARK   72  A    between atoms: CB_89  and  CG_90
REMARK   73  A    between atoms: CG_90  and  OD1_92
REMARK   74  A    between atoms: C_93  and  O_269
REMARK   75  A    between atoms: N_94  and  CA_95
REMARK   76  A    between atoms: CA_95  and  CB_97
REMARK   77  A    between atoms: CA_95  and  C_102
REMARK   78  A    between atoms: CB_97  and  CG_98
REMARK   79  A    between atoms: CG_98  and  CD_99
REMARK   80  A    between atoms: CD_99  and  OE2_101
REMARK   81  A    between atoms: C_102  and  O_268
REMARK   82  A    between atoms: N_103  and  CA_104
REMARK   83  A    between atoms: CA_104  and  CB_106
REMARK   84  A    between atoms: CA_104  and  C_111
REMARK   85  A    between atoms: CB_106  and  CG_107
REMARK   86  A    between atoms: CG_107  and  CD_108
REMARK   87  A    between atoms: CD_108  and  OE1_110
REMARK   88  A    between atoms: C_111  and  O_267
REMARK   89  A    between atoms: N_112  and  CA_113
REMARK   90  A    between atoms: CA_113  and  CB_115
REMARK   91  A    between atoms: CA_113  and  C_120
REMARK   92  A    between atoms: CB_115  and  CG_116
REMARK   93  A    between atoms: CG_116  and  CD_117
REMARK   94  A    between atoms: CD_117  and  OE2_119
REMARK   95  A    between atoms: C_120  and  O_266
REMARK   96  A    between atoms: N_121  and  CA_122
REMARK   97  A    between atoms: CA_122  and  CB_124
REMARK   98  A    between atoms: CA_122  and  C_128
REMARK   99  A    between atoms: CB_124  and  CG_125
REMARK  100  A    between atoms: CG_125  and  CD1_126
REMARK  101  A    between atoms: CG_125  and  CD2_127
REMARK  102  A    between atoms: C_128  and  O_265
REMARK  103  A    between atoms: N_129  and  CA_130
REMARK  104  A    between atoms: CA_130  and  CB_132
REMARK  105  A    between atoms: CA_130  and  C_136
REMARK  106  A    between atoms: CB_132  and  CG_133
REMARK  107  A    between atoms: CG_133  and  CD1_134
REMARK  108  A    between atoms: CG_133  and  CD2_135
REMARK  109  A    between atoms: C_136  and  O_264
REMARK  110  A    between atoms: N_137  and  CA_138
REMARK  111  A    between atoms: CA_138  and  CB_140
REMARK  112  A    between atoms: CA_138  and  C_145
REMARK  113  A    between atoms: CB_140  and  CG_141
REMARK  114  A    between atoms: CG_141  and  CD_142
REMARK  115  A    between atoms: CD_142  and  OE2_144
REMARK  116  A    between atoms: C_145  and  O_263
REMARK  117  A    between atoms: N_146  and  CA_147
REMARK  118  A    between atoms: CA_147  and  CB_149
REMARK  119  A    between atoms: CA_147  and  C_153
REMARK  120  A    between atoms: CB_149  and  CG_150
REMARK  121  A    between atoms: CG_150  and  CD1_151
REMARK  122  A    between atoms: CG_150  and  CD2_152
REMARK  123  A    between atoms: C_153  and  O_262
REMARK  124  A    between atoms: N_154  and  CA_155
REMARK  125  A    between atoms: CA_155  and  CB_157
REMARK  126  A    between atoms: CA_155  and  C_161
REMARK  127  A    between atoms: CB_157  and  CG_158
REMARK  128  A    between atoms: CG_158  and  OD2_160
REMARK  129  A    between atoms: C_161  and  O_261
REMARK  130  A    between atoms: N_162  and  CA_163
REMARK  131  A    between atoms: CA_163  and  CB_165
REMARK  132  A    between atoms: CA_163  and  C_170
REMARK  133  A    between atoms: CB_165  and  CG_166
REMARK  134  A    between atoms: CG_166  and  CD_167
REMARK  135  A    between atoms: CD_167  and  CE_168
REMARK  136  A    between atoms: CE_168  and  NZ_169
REMARK  137  A    between atoms: C_170  and  O_260
REMARK  138  A    between atoms: N_171  and  CA_172
REMARK  139  A    between atoms: CA_172  and  CB_174
REMARK  140  A    between atoms: CA_172  and  C_184
REMARK  141  A    between atoms: CB_174  and  CG_175
REMARK  142  A    between atoms: C_184  and  O_259
REMARK  143  A    between atoms: N_185  and  CA_186
REMARK  144  A    between atoms: CA_186  and  CB_188
REMARK  145  A    between atoms: CA_186  and  C_189
REMARK  146  A    between atoms: C_189  and  O_258
REMARK  147  A    between atoms: N_190  and  C_191
REMARK  148  A    between atoms: C_191  and  C_193
REMARK  149  A    between atoms: C_191  and  C_195
REMARK  150  A    between atoms: C_193  and  O_194
REMARK  151  A    between atoms: C_195  and  O_257
REMARK  152  A    between atoms: N_196  and  C_197
REMARK  153  A    between atoms: C_197  and  C_199
REMARK  154  A    between atoms: C_197  and  C_203
REMARK  155  A    between atoms: C_199  and  C_200
REMARK  156  A    between atoms: C_200  and  C_201
REMARK  157  A    between atoms: C_200  and  C_202
REMARK  158  A    between atoms: C_203  and  O_256
REMARK  159  A    between atoms: N_204  and  C_205
REMARK  160  A    between atoms: C_205  and  C_207
REMARK  161  A    between atoms: C_205  and  C_217
REMARK  162  A    between atoms: C_207  and  C_208
REMARK  163  A    between atoms: C_217  and  O_255
REMARK  164  A    between atoms: N_218  and  C_219
REMARK  165  A    between atoms: C_219  and  C_221
REMARK  166  A    between atoms: C_219  and  C_225
REMARK  167  A    between atoms: C_221  and  C_222
REMARK  168  A    between atoms: C_222  and  O_224
REMARK  169  A    between atoms: C_225  and  O_254
REMARK  170  A    between atoms: N_226  and  C_227
REMARK  171  A    between atoms: C_227  and  C_229
REMARK  172  A    between atoms: C_227  and  C_239
REMARK  173  A    between atoms: C_229  and  C_230
REMARK  174  A    between atoms: C_239  and  O_253
REMARK  175  A    between atoms: N_240  and  C_241
REMARK  176  A    between atoms: C_241  and  C_243
REMARK  177  A    between atoms: C_241  and  C_250
REMARK  178  A    between atoms: C_243  and  C_244
REMARK  179  A    between atoms: C_250  and  O_252
REMARK  180  A    between atoms: C_281  and  CA_282
REMARK  181  A    between atoms: C_281  and  O_358
REMARK  182  A    between atoms: CA_282  and  CB_284
REMARK  183  A    between atoms: CA_282  and  N_288
REMARK  184  A    between atoms: CB_284  and  CG_285
REMARK  185  A    between atoms: CG_285  and  CD1_286
REMARK  186  A    between atoms: CG_285  and  CD2_287
REMARK  187  A    between atoms: C_289  and  CA_290
REMARK  188  A    between atoms: C_289  and  O_357
REMARK  189  A    between atoms: CA_290  and  CB_292
REMARK  190  A    between atoms: CA_290  and  N_294
REMARK  191  A    between atoms: CB_292  and  O_293
REMARK  192  A    between atoms: C_295  and  CA_296
REMARK  193  A    between atoms: C_295  and  O_356
REMARK  194  A    between atoms: CA_296  and  CB_298
REMARK  195  A    between atoms: CA_296  and  N_304
REMARK  196  A    between atoms: CB_298  and  CG_299
REMARK  197  A    between atoms: C_305  and  CA_306
REMARK  198  A    between atoms: C_305  and  O_355
REMARK  199  A    between atoms: CA_306  and  CB_308
REMARK  200  A    between atoms: CA_306  and  N_313
REMARK  201  A    between atoms: CB_308  and  CG2_310
REMARK  202  A    between atoms: CB_308  and  CG1_311
REMARK  203  A    between atoms: CG1_311  and  CD1_312
REMARK  204  A    between atoms: C_314  and  CA_315
REMARK  205  A    between atoms: C_314  and  O_354
REMARK  206  A    between atoms: CA_315  and  CB_317
REMARK  207  A    between atoms: CA_315  and  N_321
REMARK  208  A    between atoms: CB_317  and  CG_318
REMARK  209  A    between atoms: CG_318  and  CD1_319
REMARK  210  A    between atoms: CG_318  and  CD2_320
REMARK  211  A    between atoms: C_322  and  CA_323
REMARK  212  A    between atoms: C_322  and  O_353
REMARK  213  A    between atoms: CA_323  and  CB_325
REMARK  214  A    between atoms: CA_323  and  N_327
REMARK  215  A    between atoms: CB_325  and  O_326
REMARK  216  A    between atoms: C_328  and  CA_329
REMARK  217  A    between atoms: C_328  and  O_352
REMARK  218  A    between atoms: CA_329  and  CB_331
REMARK  219  A    between atoms: CA_329  and  N_335
REMARK  220  A    between atoms: CB_331  and  CG2_333
REMARK  221  A    between atoms: CB_331  and  OG1_334
REMARK  222  A    between atoms: C_336  and  CA_337
REMARK  223  A    between atoms: C_336  and  O_351
REMARK  224  A    between atoms: CA_337  and  CB_339
REMARK  225  A    between atoms: CA_337  and  N_347
REMARK  226  A    between atoms: CB_339  and  CG_340
REMARK  227  A    between atoms: CZ_343  and  OH_346
REMARK  228  A    between atoms: C_348  and  C_349
REMARK  229  A    between atoms: C_348  and  O_350
REMARK                            x       y       z     vdW  Elec       q    Type
REMARK                         _______ _______ _______ _____ _____    ______ ____
ROOT
ATOM      1  CA  ASN A  11      19.501  -8.025 -22.696  0.00  0.00    +0.202 C 
ENDROOT
BRANCH   1   2
ATOM      2  C   ASN A  11      20.589  -8.613 -23.548  0.00  0.00    +0.209 C 
ATOM      3  N   GLU A  12      21.306  -9.641 -23.277  0.00  0.00    -0.240 NA
BRANCH   2   4
ATOM      4  O   ASN A  11      20.712  -8.114 -24.787  0.00  0.00    -0.494 OA
ATOM      5  H   ASN A  11      20.137  -7.345 -24.954  0.00  0.00    +0.293 HD
ENDBRANCH   2   4
BRANCH   3   6
ATOM      6  CA  GLU A  12      21.517 -10.055 -21.860  0.00  0.00    +0.194 C 
BRANCH   6   7
ATOM      7  C   GLU A  12      22.509 -11.229 -21.934  0.00  0.00    +0.209 C 
ATOM      8  N   GLN A  13      23.160 -11.880 -21.060  0.00  0.00    -0.240 NA
BRANCH   7   9
ATOM      9  O   GLU A  12      22.794 -11.564 -23.211  0.00  0.00    -0.494 OA
ATOM     10  H   GLU A  12      22.394 -10.905 -23.814  0.00  0.00    +0.293 HD
ENDBRANCH   7   9
BRANCH   8  11
ATOM     11  CA  GLN A  13      23.379 -11.624 -19.642  0.00  0.00    +0.194 C 
BRANCH  11  12
ATOM     12  C   GLN A  13      23.774 -12.944 -18.950  0.00  0.00    +0.209 C 
ATOM     13  N   GLU A  14      24.224 -14.060 -19.385  0.00  0.00    -0.240 NA
BRANCH  12  14
ATOM     14  O   GLN A  13      23.746 -12.884 -17.607  0.00  0.00    -0.494 OA
ATOM     15  H   GLN A  13      23.637 -11.995 -17.257  0.00  0.00    +0.293 HD
ENDBRANCH  12  14
BRANCH  13  16
ATOM     16  CA  GLU A  14      24.495 -14.414 -20.774  0.00  0.00    +0.194 C 
BRANCH  16  17
ATOM     17  C   GLU A  14      24.475 -15.992 -20.789  0.00  0.00    +0.209 C 
ATOM     18  N   LEU A  15      24.032 -16.832 -21.667  0.00  0.00    -0.240 NA
BRANCH  17  19
ATOM     19  O   GLU A  14      25.014 -16.536 -19.681  0.00  0.00    -0.494 OA
ATOM     20  H   GLU A  14      25.080 -15.846 -18.993  0.00  0.00    +0.293 HD
ENDBRANCH  17  19
BRANCH  18  21
ATOM     21  CA  LEU A  15      23.426 -16.191 -22.819  0.00  0.00    +0.194 C 
BRANCH  21  22
ATOM     22  C   LEU A  15      22.220 -16.912 -23.347  0.00  0.00    +0.209 C 
ATOM     23  N   LEU A  16      21.207 -16.414 -23.935  0.00  0.00    -0.240 NA
BRANCH  22  24
ATOM     24  O   LEU A  15      22.218 -18.239 -23.153  0.00  0.00    -0.494 OA
ATOM     25  H   LEU A  15      22.960 -18.481 -22.568  0.00  0.00    +0.293 HD
ENDBRANCH  22  24
BRANCH  23  26
ATOM     26  CA  LEU A  16      20.829 -15.014 -24.108  0.00  0.00    +0.194 C 
BRANCH  26  27
ATOM     27  C   LEU A  16      19.734 -14.915 -25.134  0.00  0.00    +0.209 C 
ATOM     28  N   GLU A  17      18.840 -15.760 -25.407  0.00  0.00    -0.240 NA
BRANCH  27  29
ATOM     29  O   LEU A  16      19.664 -13.780 -25.870  0.00  0.00    -0.494 OA
ATOM     30  H   LEU A  16      20.131 -13.048 -25.457  0.00  0.00    +0.293 HD
ENDBRANCH  27  29
BRANCH  28  31
ATOM     31  CA  GLU A  17      18.690 -17.087 -24.885  0.00  0.00    +0.194 C 
BRANCH  31  32
ATOM     32  C   GLU A  17      18.056 -17.774 -26.103  0.00  0.00    +0.209 C 
ATOM     33  N   LEU A  18      16.871 -17.820 -26.563  0.00  0.00    -0.240 NA
BRANCH  32  34
ATOM     34  O   GLU A  17      19.002 -18.307 -26.917  0.00  0.00    -0.494 OA
ATOM     35  H   GLU A  17      19.894 -18.064 -26.623  0.00  0.00    +0.293 HD
ENDBRANCH  32  34
BRANCH  33  36
ATOM     36  CA  LEU A  18      15.690 -17.343 -25.905  0.00  0.00    +0.194 C 
BRANCH  36  37
ATOM     37  C   LEU A  18      14.669 -17.050 -26.995  0.00  0.00    +0.209 C 
ATOM     38  N   ASP A  19      13.482 -17.483 -27.061  0.00  0.00    -0.240 NA
BRANCH  37  39
ATOM     39  O   LEU A  18      15.010 -16.181 -27.965  0.00  0.00    -0.494 OA
ATOM     40  H   LEU A  18      15.857 -15.729 -27.785  0.00  0.00    +0.293 HD
ENDBRANCH  37  39
BRANCH  38  41
ATOM     41  CA  ASP A  19      12.891 -18.520 -26.249  0.00  0.00    +0.204 C 
BRANCH  41  42
ATOM     42  C   ASP A  19      11.507 -18.071 -25.821  0.00  0.00    +0.209 C 
ATOM     43  N   LYS A  20      10.362 -18.501 -26.149  0.00  0.00    -0.240 NA
BRANCH  42  44
ATOM     44  O   ASP A  19      11.472 -17.021 -24.990  0.00  0.00    -0.494 OA
ATOM     45  H   ASP A  19      12.249 -16.458 -25.090  0.00  0.00    +0.293 HD
ENDBRANCH  42  44
BRANCH  43  46
ATOM     46  CA  LYS A  20       9.910 -19.518 -27.085  0.00  0.00    +0.193 C 
BRANCH  46  47
ATOM     47  C   LYS A  20       9.071 -20.539 -26.319  0.00  0.00    +0.209 C 
ATOM     48  N   TRP A  21       8.255 -20.394 -25.348  0.00  0.00    -0.240 NA
BRANCH  47  49
ATOM     49  O   LYS A  20       9.033 -21.777 -26.824  0.00  0.00    -0.494 OA
ATOM     50  H   LYS A  20       8.733 -21.738 -27.743  0.00  0.00    +0.293 HD
ENDBRANCH  47  49
BRANCH  48  51
ATOM     51  CA  TRP A  21       7.996 -19.073 -24.765  0.00  0.00    +0.198 C 
BRANCH  51  52
ATOM     52  C   TRP A  21       7.045 -19.311 -23.603  0.00  0.00    +0.209 C 
ATOM     53  N   ALA A  22       6.691 -18.530 -22.679  0.00  0.00    -0.240 NA
BRANCH  52  54
ATOM     54  O   TRP A  21       6.453 -20.527 -23.700  0.00  0.00    -0.494 OA
ATOM     55  H   TRP A  21       6.963 -21.083 -24.334  0.00  0.00    +0.293 HD
ENDBRANCH  52  54
BRANCH  53  56
ATOM     56  CA  ALA A  22       7.312 -17.273 -22.360  0.00  0.00    +0.190 C 
ATOM     57  CB  ALA A  22       8.621 -16.812 -22.972  0.00  0.00    +0.043 C 
BRANCH  56  58
ATOM     58  C   ALA A  22       6.232 -16.259 -22.409  0.00  0.00    +0.208 C 
ATOM     59  N   UNK A  23       6.079 -15.228 -21.750  0.00  0.00    -0.238 NA
BRANCH  58  60
ATOM     60  O   ALA A  22       5.337 -16.425 -23.422  0.00  0.00    -0.494 OA
ATOM     61  H   ALA A  22       5.331 -17.344 -23.739  0.00  0.00    +0.293 HD
ENDBRANCH  58  60
BRANCH  59  62
ATOM     62  C   UNK A  23       6.828 -14.808 -20.543  0.00  0.00    +0.218 C 
BRANCH  62  63
ATOM     63  C   UNK A  23       7.506 -13.514 -20.804  0.00  0.00    +0.211 C 
ATOM     64  N   UNK A  23       7.829 -12.641 -19.956  0.00  0.00    -0.240 NA
BRANCH  63  65
ATOM     65  O   UNK A  23       7.856 -13.275 -22.081  0.00  0.00    -0.494 OA
ATOM     66  H   UNK A  23       7.484 -13.943 -22.683  0.00  0.00    +0.293 HD
ENDBRANCH  63  65
BRANCH  64  67
ATOM     67  C   UNK A  23       7.520 -12.373 -18.573  0.00  0.00    +0.194 C 
BRANCH  67  68
ATOM     68  C   UNK A  23       8.759 -11.641 -18.029  0.00  0.00    +0.209 C 
ATOM     69  N   UNK A  23       9.309 -10.537 -18.390  0.00  0.00    -0.240 NA
BRANCH  68  70
ATOM     70  O   UNK A  23       9.399 -12.301 -17.042  0.00  0.00    -0.494 OA
ATOM     71  H   UNK A  23       8.967 -13.128 -16.779  0.00  0.00    +0.293 HD
ENDBRANCH  68  70
BRANCH  69  72
ATOM     72  C   UNK A  23       8.980  -9.571 -19.466  0.00  0.00    +0.198 C 
BRANCH  72  73
ATOM     73  C   UNK A  23       8.890  -8.100 -18.844  0.00  0.00    +0.209 C 
ATOM     74  N   UNK A  23       9.695  -7.234 -18.423  0.00  0.00    -0.240 NA
BRANCH  73  75
ATOM     75  O   UNK A  23       7.687  -7.544 -18.759  0.00  0.00    -0.494 OA
ATOM     76  H   UNK A  23       7.092  -7.835 -19.450  0.00  0.00    +0.293 HD
ENDBRANCH  73  75
BRANCH  74  77
ATOM     77  C   UNK A  23      11.020  -6.826 -18.149  0.00  0.00    +0.202 C 
BRANCH  77  78
ATOM     78  C   UNK A  23      11.691  -6.490 -19.508  0.00  0.00    +0.209 C 
ATOM     79  N   UNK A  23      11.849  -5.478 -20.269  0.00  0.00    -0.240 NA
BRANCH  78  80
ATOM     80  O   UNK A  23      11.974  -7.650 -20.137  0.00  0.00    -0.494 OA
ATOM     81  H   UNK A  23      11.541  -8.380 -19.670  0.00  0.00    +0.293 HD
ENDBRANCH  78  80
BRANCH  79  82
ATOM     82  C   UNK A  23      11.336  -4.117 -20.436  0.00  0.00    +0.198 C 
BRANCH  82  83
ATOM     83  C   UNK A  23      12.128  -2.816 -20.148  0.00  0.00    +0.209 C 
ATOM     84  N   UNK A  23      13.165  -2.216 -20.635  0.00  0.00    -0.240 NA
BRANCH  83  85
ATOM     85  O   UNK A  23      11.452  -1.965 -19.365  0.00  0.00    -0.494 OA
ATOM     86  H   UNK A  23      11.665  -1.080 -19.703  0.00  0.00    +0.293 HD
ENDBRANCH  83  85
BRANCH  84  87
ATOM     87  C   UNK A  23      14.070  -2.895 -21.527  0.00  0.00    +0.197 C 
BRANCH  87  88
ATOM     88  C   UNK A  23      14.432  -4.064 -20.683  0.00  0.00    +0.205 C 
ATOM     89  N   UNK A  23      14.178  -5.345 -20.927  0.00  0.00    -0.269 NA
ATOM     90  H   UNK A  23      13.715  -5.542 -21.786  0.00  0.00    +0.190 HD
BRANCH  88  91
ATOM     91  O   UNK A  23      14.974  -3.733 -19.488  0.00  0.00    -0.494 OA
ATOM     92  H   UNK A  23      14.714  -2.849 -19.238  0.00  0.00    +0.293 HD
ENDBRANCH  88  91
ENDBRANCH  87  88
BRANCH  87  93
ATOM     93  C   UNK A  23      15.202  -1.858 -22.168  0.00  0.00    +0.071 C 
BRANCH  93  94
ATOM     94  C   UNK A  23      16.779  -1.607 -21.970  0.00  0.00    -0.045 A 
ATOM     95  C   UNK A  23      17.742  -1.523 -23.060  0.00  0.00    +0.004 A 
ATOM     96  C   UNK A  23      19.149  -1.578 -22.890  0.00  0.00    +0.000 A 
ATOM     97  C   UNK A  23      19.665  -1.641 -21.615  0.00  0.00    +0.000 A 
ATOM     98  C   UNK A  23      18.770  -1.720 -20.545  0.00  0.00    +0.000 A 
ATOM     99  C   UNK A  23      17.361  -1.706 -20.714  0.00  0.00    +0.004 A 
ENDBRANCH  93  94
ENDBRANCH  87  93
ENDBRANCH  84  87
ENDBRANCH  82  83
BRANCH  82 100
ATOM    100  C   UNK A  23       9.959  -3.999 -19.833  0.00  0.00    +0.073 C 
BRANCH 100 101
ATOM    101  C   UNK A  23       8.920  -4.759 -20.560  0.00  0.00    -0.020 A 
ATOM    102  C   UNK A  23       7.606  -4.300 -20.808  0.00  0.00    +0.003 A 
ATOM    103  C   UNK A  23       6.845  -5.449 -20.938  0.00  0.00    +0.047 A 
ATOM    104  C   UNK A  23       5.468  -5.474 -20.813  0.00  0.00    +0.026 A 
ATOM    105  C   UNK A  23       4.845  -4.237 -20.921  0.00  0.00    +0.002 A 
ATOM    106  C   UNK A  23       5.582  -3.052 -21.008  0.00  0.00    +0.001 A 
ATOM    107  N   UNK A  23       7.713  -6.448 -21.263  0.00  0.00    -0.360 N 
ATOM    108  H   UNK A  23       7.423  -7.385 -21.474  0.00  0.00    +0.165 HD
ATOM    109  C   UNK A  23       6.967  -3.056 -20.839  0.00  0.00    +0.010 A 
ATOM    110  C   UNK A  23       8.992  -6.022 -21.109  0.00  0.00    +0.087 A 
ENDBRANCH 100 101
ENDBRANCH  82 100
ENDBRANCH  79  82
ENDBRANCH  77  78
BRANCH  77 111
ATOM    111  C   UNK A  23      11.618  -7.938 -17.291  0.00  0.00    +0.131 C 
BRANCH 111 112
ATOM    112  C   UNK A  23      11.125  -8.168 -15.896  0.00  0.00    +0.182 C 
ATOM    113  N   UNK A  23      10.328  -9.112 -15.537  0.00  0.00    -0.271 NA
ATOM    114  H   UNK A  23      10.057  -9.685 -16.353  0.00  0.00    +0.190 HD
BRANCH 112 115
ATOM    115  O   UNK A  23      11.670  -7.390 -14.952  0.00  0.00    -0.496 OA
ATOM    116  H   UNK A  23      12.319  -6.768 -15.309  0.00  0.00    +0.293 HD
ENDBRANCH 112 115
ENDBRANCH 111 112
ENDBRANCH  77 111
ENDBRANCH  74  77
ENDBRANCH  72  73
BRANCH  72 117
ATOM    117  C   UNK A  23       7.848  -9.966 -20.505  0.00  0.00    +0.073 C 
BRANCH 117 118
ATOM    118  C   UNK A  23       6.436  -9.890 -19.974  0.00  0.00    -0.020 A 
ATOM    119  C   UNK A  23       5.116 -10.064 -20.510  0.00  0.00    +0.003 A 
ATOM    120  C   UNK A  23       4.330  -9.190 -19.746  0.00  0.00    +0.047 A 
ATOM    121  C   UNK A  23       3.024  -8.834 -20.031  0.00  0.00    +0.026 A 
ATOM    122  C   UNK A  23       2.399  -9.530 -21.050  0.00  0.00    +0.002 A 
ATOM    123  C   UNK A  23       3.085 -10.516 -21.762  0.00  0.00    +0.001 A 
ATOM    124  N   UNK A  23       5.086  -8.764 -18.701  0.00  0.00    -0.360 N 
ATOM    125  H   UNK A  23       4.894  -7.999 -18.070  0.00  0.00    +0.165 HD
ATOM    126  C   UNK A  23       4.460 -10.766 -21.545  0.00  0.00    +0.010 A 
ATOM    127  C   UNK A  23       6.181  -9.550 -18.651  0.00  0.00    +0.087 A 
ENDBRANCH 117 118
ENDBRANCH  72 117
ENDBRANCH  69  72
ENDBRANCH  67  68
BRANCH  67 128
ATOM    128  C   UNK A  23       6.733 -13.384 -17.753  0.00  0.00    +0.039 C 
BRANCH 128 129
ATOM    129  C   UNK A  23       6.372 -12.930 -16.322  0.00  0.00    -0.015 C 
ATOM    130  C   UNK A  23       5.874 -14.146 -15.550  0.00  0.00    +0.007 C 
ATOM    131  C   UNK A  23       5.356 -11.786 -16.244  0.00  0.00    +0.007 C 
ENDBRANCH 128 129
ENDBRANCH  67 128
ENDBRANCH  64  67
ENDBRANCH  62  63
BRANCH  62 132
ATOM    132  C   UNK A  23       7.898 -15.695 -19.909  0.00  0.00    +0.192 C 
BRANCH 132 133
ATOM    133  O   UNK A  23       7.316 -16.783 -19.198  0.00  0.00    -0.392 OA
ATOM    134  H   UNK A  23       6.482 -17.028 -19.642  0.00  0.00    +0.210 HD
ENDBRANCH 132 133
ENDBRANCH  62 132
ENDBRANCH  59  62
ENDBRANCH  56  58
ENDBRANCH  53  56
ENDBRANCH  51  52
BRANCH  51 135
ATOM    135  CB  TRP A  21       7.440 -18.016 -25.717  0.00  0.00    +0.073 C 
BRANCH 135 136
ATOM    136  CG  TRP A  21       6.226 -18.195 -26.557  0.00  0.00    -0.020 A 
ATOM    137  CD2 TRP A  21       5.657 -19.326 -27.216  0.00  0.00    +0.003 A 
ATOM    138  CE2 TRP A  21       4.772 -18.813 -28.167  0.00  0.00    +0.047 A 
ATOM    139  CZ2 TRP A  21       4.154 -19.606 -29.135  0.00  0.00    +0.026 A 
ATOM    140  CH2 TRP A  21       4.383 -20.981 -29.098  0.00  0.00    +0.002 A 
ATOM    141  CZ3 TRP A  21       5.180 -21.543 -28.113  0.00  0.00    +0.001 A 
ATOM    142  NE1 TRP A  21       4.666 -17.461 -27.961  0.00  0.00    -0.360 N 
ATOM    143  HE1 TRP A  21       4.098 -16.836 -28.514  0.00  0.00    +0.165 HD
ATOM    144  CE3 TRP A  21       5.818 -20.726 -27.177  0.00  0.00    +0.010 A 
ATOM    145  CD1 TRP A  21       5.500 -17.084 -26.959  0.00  0.00    +0.087 A 
ENDBRANCH 135 136
ENDBRANCH  51 135
ENDBRANCH  48  51
ENDBRANCH  46  47
BRANCH  46 146
ATOM    146  CB  LYS A  20      11.056 -20.115 -27.869  0.00  0.00    +0.036 C 
BRANCH 146 147
ATOM    147  CG  LYS A  20      10.826 -21.162 -28.915  0.00  0.00    +0.004 C 
BRANCH 147 148
ATOM    148  CD  LYS A  20       9.715 -20.828 -29.889  0.00  0.00    +0.015 C 
BRANCH 148 149
ATOM    149  CE  LYS A  20       9.325 -22.136 -30.552  0.00  0.00    +0.077 C 
BRANCH 149 150
ATOM    150  NZ  LYS A  20       8.342 -21.915 -31.588  0.00  0.00    -0.330 NA
ATOM    151  HZ1 LYS A  20       8.199 -22.789 -32.091  0.00  0.00    +0.118 HD
ATOM    152  HZ2 LYS A  20       7.447 -21.666 -31.168  0.00  0.00    +0.118 HD
ENDBRANCH 149 150
ENDBRANCH 148 149
ENDBRANCH 147 148
ENDBRANCH 146 147
ENDBRANCH  46 146
ENDBRANCH  43  46
ENDBRANCH  41  42
BRANCH  41 153
ATOM    153  CB  ASP A  19      13.635 -19.340 -25.222  0.00  0.00    +0.156 C 
BRANCH 153 154
ATOM    154  CG  ASP A  19      14.864 -20.107 -25.703  0.00  0.00    +0.307 C 
ATOM    155  OD1 ASP A  19      15.640 -20.635 -24.911  0.00  0.00    -0.251 OA
BRANCH 154 156
ATOM    156  OD2 ASP A  19      15.106 -20.131 -27.028  0.00  0.00    -0.481 OA
ATOM    157  HD2 ASP A  19      14.734 -19.407 -27.575  0.00  0.00    +0.295 HD
ENDBRANCH 154 156
ENDBRANCH 153 154
ENDBRANCH  41 153
ENDBRANCH  38  41
ENDBRANCH  36  37
BRANCH  36 158
ATOM    158  CB  LEU A  18      15.720 -16.104 -25.159  0.00  0.00    +0.039 C 
BRANCH 158 159
ATOM    159  CG  LEU A  18      14.451 -15.624 -24.564  0.00  0.00    -0.015 C 
ATOM    160  CD2 LEU A  18      14.809 -14.257 -24.212  0.00  0.00    +0.007 C 
ATOM    161  CD1 LEU A  18      13.927 -16.232 -23.268  0.00  0.00    +0.007 C 
ENDBRANCH 158 159
ENDBRANCH  36 158
ENDBRANCH  33  36
ENDBRANCH  31  32
BRANCH  31 162
ATOM    162  CB  GLU A  17      18.152 -17.244 -23.449  0.00  0.00    +0.047 C 
BRANCH 162 163
ATOM    163  CG  GLU A  17      18.174 -18.730 -23.161  0.00  0.00    +0.123 C 
BRANCH 163 164
ATOM    164  CD  GLU A  17      17.626 -19.147 -21.827  0.00  0.00    +0.305 C 
ATOM    165  OE1 GLU A  17      17.282 -18.408 -20.920  0.00  0.00    -0.251 OA
BRANCH 164 166
ATOM    166  OE2 GLU A  17      17.557 -20.500 -21.749  0.00  0.00    -0.481 OA
ATOM    167  HE2 GLU A  17      17.785 -20.926 -22.603  0.00  0.00    +0.295 HD
ENDBRANCH 164 166
ENDBRANCH 163 164
ENDBRANCH 162 163
ENDBRANCH  31 162
ENDBRANCH  28  31
ENDBRANCH  26  27
BRANCH  26 168
ATOM    168  CB  LEU A  16      21.932 -14.053 -24.451  0.00  0.00    +0.039 C 
BRANCH 168 169
ATOM    169  CG  LEU A  16      22.532 -14.155 -25.822  0.00  0.00    -0.015 C 
ATOM    170  CD2 LEU A  16      22.503 -15.562 -26.383  0.00  0.00    +0.007 C 
ATOM    171  CD1 LEU A  16      23.851 -13.436 -25.665  0.00  0.00    +0.007 C 
ENDBRANCH 168 169
ENDBRANCH  26 168
ENDBRANCH  23  26
ENDBRANCH  21  22
BRANCH  21 172
ATOM    172  CB  LEU A  15      24.538 -15.900 -23.819  0.00  0.00    +0.039 C 
BRANCH 172 173
ATOM    173  CG  LEU A  15      25.395 -16.944 -24.538  0.00  0.00    -0.015 C 
ATOM    174  CD2 LEU A  15      26.361 -16.182 -25.465  0.00  0.00    +0.007 C 
ATOM    175  CD1 LEU A  15      24.682 -17.975 -25.407  0.00  0.00    +0.007 C 
ENDBRANCH 172 173
ENDBRANCH  21 172
ENDBRANCH  18  21
ENDBRANCH  16  17
BRANCH  16 176
ATOM    176  CB  GLU A  14      25.857 -13.807 -21.178  0.00  0.00    +0.047 C 
BRANCH 176 177
ATOM    177  CG  GLU A  14      26.898 -14.109 -20.115  0.00  0.00    +0.123 C 
BRANCH 177 178
ATOM    178  CD  GLU A  14      28.321 -14.090 -20.517  0.00  0.00    +0.305 C 
ATOM    179  OE1 GLU A  14      29.142 -13.315 -20.057  0.00  0.00    -0.251 OA
BRANCH 178 180
ATOM    180  OE2 GLU A  14      28.636 -15.079 -21.376  0.00  0.00    -0.481 OA
ATOM    181  HE2 GLU A  14      27.885 -15.492 -21.843  0.00  0.00    +0.295 HD
ENDBRANCH 178 180
ENDBRANCH 177 178
ENDBRANCH 176 177
ENDBRANCH  16 176
ENDBRANCH  13  16
ENDBRANCH  11  12
BRANCH  11 182
ATOM    182  CB  GLN A  13      22.205 -10.909 -18.995  0.00  0.00    +0.046 C 
BRANCH 182 183
ATOM    183  CG  GLN A  13      22.222 -10.118 -17.716  0.00  0.00    +0.097 C 
BRANCH 183 184
ATOM    184  CD  GLN A  13      23.454  -9.298 -17.542  0.00  0.00    +0.180 C 
ATOM    185  NE2 GLN A  13      24.058  -8.603 -18.431  0.00  0.00    -0.271 NA
ATOM    186  HE2 GLN A  13      23.619  -8.608 -19.355  0.00  0.00    +0.190 HD
BRANCH 184 187
ATOM    187  OE1 GLN A  13      23.941  -9.325 -16.299  0.00  0.00    -0.496 OA
ATOM    188  HE1 GLN A  13      23.340  -9.734 -15.657  0.00  0.00    +0.293 HD
ENDBRANCH 184 187
ENDBRANCH 183 184
ENDBRANCH 182 183
ENDBRANCH  11 182
ENDBRANCH   8  11
ENDBRANCH   6   7
BRANCH   6 189
ATOM    189  CB  GLU A  12      20.254 -10.444 -21.045  0.00  0.00    +0.047 C 
BRANCH 189 190
ATOM    190  CG  GLU A  12      19.130 -11.060 -21.775  0.00  0.00    +0.123 C 
BRANCH 190 191
ATOM    191  CD  GLU A  12      19.645 -12.355 -22.238  0.00  0.00    +0.305 C 
ATOM    192  OE1 GLU A  12      19.570 -13.395 -21.616  0.00  0.00    -0.251 OA
BRANCH 191 193
ATOM    193  OE2 GLU A  12      20.295 -12.166 -23.407  0.00  0.00    -0.481 OA
ATOM    194  HE2 GLU A  12      20.330 -11.232 -23.722  0.00  0.00    +0.295 HD
ENDBRANCH 191 193
ENDBRANCH 190 191
ENDBRANCH 189 190
ENDBRANCH   6 189
ENDBRANCH   3   6
ENDBRANCH   1   2
BRANCH   1 196
ATOM    195  C   LYS A  10      18.851  -6.132 -21.583  0.00  0.00    +0.209 C 
ATOM    196  N   ASN A  11      19.726  -6.613 -22.409  0.00  0.00    -0.240 NA
BRANCH 195 197
ATOM    197  O   LYS A  10      19.208  -5.094 -20.823  0.00  0.00    -0.494 OA
ATOM    198  H   LYS A  10      18.489  -4.786 -20.244  0.00  0.00    +0.293 HD
ENDBRANCH 195 197
BRANCH 195 199
ATOM    199  CA  LYS A  10      17.408  -6.567 -21.486  0.00  0.00    +0.193 C 
BRANCH 199 201
ATOM    200  C   GLU A   9      16.267  -8.122 -19.828  0.00  0.00    +0.209 C 
ATOM    201  N   LYS A  10      17.195  -7.651 -20.553  0.00  0.00    -0.240 NA
BRANCH 200 202
ATOM    202  O   GLU A   9      16.559  -9.327 -19.294  0.00  0.00    -0.494 OA
ATOM    203  H   GLU A   9      15.790  -9.701 -18.818  0.00  0.00    +0.293 HD
ENDBRANCH 200 202
BRANCH 200 204
ATOM    204  CA  GLU A   9      14.872  -7.637 -19.443  0.00  0.00    +0.194 C 
BRANCH 204 206
ATOM    205  C   GLN A   8      13.491  -9.563 -19.129  0.00  0.00    +0.209 C 
ATOM    206  N   GLU A   9      14.123  -8.596 -18.593  0.00  0.00    -0.240 NA
BRANCH 205 207
ATOM    207  O   GLN A   8      12.742 -10.381 -18.363  0.00  0.00    -0.494 OA
ATOM    208  H   GLN A   8      12.620 -11.263 -18.761  0.00  0.00    +0.293 HD
ENDBRANCH 205 207
BRANCH 205 209
ATOM    209  CA  GLN A   8      13.774 -10.056 -20.483  0.00  0.00    +0.194 C 
BRANCH 209 211
ATOM    210  C   GLN A   7      15.440 -11.764 -20.654  0.00  0.00    +0.209 C 
ATOM    211  N   GLN A   8      14.516 -11.234 -19.958  0.00  0.00    -0.240 NA
BRANCH 210 212
ATOM    212  O   GLN A   7      16.290 -12.604 -20.059  0.00  0.00    -0.494 OA
ATOM    213  H   GLN A   7      16.911 -13.025 -20.683  0.00  0.00    +0.293 HD
ENDBRANCH 210 212
BRANCH 210 214
ATOM    214  CA  GLN A   7      15.402 -11.625 -22.129  0.00  0.00    +0.194 C 
BRANCH 214 216
ATOM    215  C   ASN A   6      17.063 -11.845 -23.974  0.00  0.00    +0.209 C 
ATOM    216  N   GLN A   7      16.624 -12.053 -22.789  0.00  0.00    -0.240 NA
BRANCH 215 217
ATOM    217  O   ASN A   6      18.224 -12.449 -24.208  0.00  0.00    -0.494 OA
ATOM    218  H   ASN A   6      18.696 -11.981 -24.912  0.00  0.00    +0.293 HD
ENDBRANCH 215 217
BRANCH 215 219
ATOM    219  CA  ASN A   6      16.697 -11.097 -25.269  0.00  0.00    +0.202 C 
BRANCH 219 221
ATOM    220  C   GLN A   5      17.400  -9.172 -26.473  0.00  0.00    +0.209 C 
ATOM    221  N   ASN A   6      17.696 -10.073 -25.586  0.00  0.00    -0.240 NA
BRANCH 220 222
ATOM    222  O   GLN A   5      18.415  -8.343 -26.805  0.00  0.00    -0.494 OA
ATOM    223  H   GLN A   5      18.103  -7.421 -26.748  0.00  0.00    +0.293 HD
ENDBRANCH 220 222
BRANCH 220 224
ATOM    224  CA  GLN A   5      16.051  -8.876 -27.210  0.00  0.00    +0.194 C 
BRANCH 224 226
ATOM    225  C   SER A   4      14.534 -10.678 -27.523  0.00  0.00    +0.211 C 
ATOM    226  N   GLN A   5      15.005  -9.784 -26.747  0.00  0.00    -0.240 NA
BRANCH 225 227
ATOM    227  O   SER A   4      13.715 -11.568 -26.947  0.00  0.00    -0.494 OA
ATOM    228  H   SER A   4      13.663 -12.397 -27.461  0.00  0.00    +0.293 HD
ENDBRANCH 225 227
BRANCH 225 229
ATOM    229  CA  SER A   4      14.911 -10.853 -28.974  0.00  0.00    +0.218 C 
BRANCH 229 231
ATOM    230  C   GLU A   3      16.110 -12.680 -29.948  0.00  0.00    +0.209 C 
ATOM    231  N   SER A   4      15.146 -12.247 -29.220  0.00  0.00    -0.238 NA
BRANCH 230 232
ATOM    232  O   GLU A   3      16.159 -14.006 -29.823  0.00  0.00    -0.494 OA
ATOM    233  H   GLU A   3      16.544 -14.517 -30.538  0.00  0.00    +0.293 HD
ENDBRANCH 230 232
BRANCH 230 234
ATOM    234  CA  GLU A   3      17.174 -11.975 -30.829  0.00  0.00    +0.194 C 
BRANCH 234 236
ATOM    235  C   GLU A   2      18.074  -9.620 -30.758  0.00  0.00    +0.209 C 
ATOM    236  N   GLU A   3      17.546 -10.672 -30.237  0.00  0.00    -0.240 NA
BRANCH 235 237
ATOM    237  O   GLU A   2      18.272  -8.588 -29.900  0.00  0.00    -0.494 OA
ATOM    238  H   GLU A   2      18.867  -7.907 -30.252  0.00  0.00    +0.293 HD
ENDBRANCH 235 237
BRANCH 235 239
ATOM    239  CA  GLU A   2      18.697  -9.319 -32.139  0.00  0.00    +0.194 C 
BRANCH 239 241
ATOM    240  C   TYR A   1      19.325 -11.145 -33.356  0.00  0.00    +0.209 C 
ATOM    241  N   GLU A   2      18.357 -10.383 -33.012  0.00  0.00    -0.240 NA
BRANCH 240 242
ATOM    242  O   TYR A   1      18.849 -11.994 -34.266  0.00  0.00    -0.494 OA
ATOM    243  H   TYR A   1      19.205 -12.878 -34.329  0.00  0.00    +0.293 HD
ENDBRANCH 240 242
BRANCH 240 244
ATOM    244  CA  TYR A   1      20.870 -10.963 -33.048  0.00  0.00    +0.196 C 
BRANCH 244 245
ATOM    245  CB  TYR A   1      21.743 -11.940 -33.837  0.00  0.00    +0.019 C 
ATOM    246  CG2 TYR A   1      21.459 -13.456 -33.753  0.00  0.00    +0.010 C 
BRANCH 245 248
ATOM    247  CD1 TYR A   1      22.345 -11.788 -36.465  0.00  0.00    +0.004 C 
ATOM    248  CG1 TYR A   1      21.641 -11.303 -35.243  0.00  0.00    +0.002 C 
ENDBRANCH 245 248
ENDBRANCH 244 245
BRANCH 244 249
ATOM    249  N   TYR A   1      21.312 -10.559 -31.654  0.00  0.00    -0.240 NA
ATOM    250  C   TYR A   1      22.246  -9.684 -31.352  0.00  0.00    +0.209 C 
BRANCH 250 251
ATOM    251  O   TYR A   1      22.184  -9.234 -30.070  0.00  0.00    -0.494 OA
ATOM    252  H   TYR A   1      21.608  -9.847 -29.567  0.00  0.00    +0.293 HD
ENDBRANCH 250 251
BRANCH 250 253
ATOM    253  CA  TYR A   1      23.605  -9.122 -32.108  0.00  0.00    +0.194 C 
BRANCH 253 254
ATOM    254  N   TYR A   1      23.422  -8.909 -33.535  0.00  0.00    -0.240 NA
ATOM    255  C   TYR A   1      24.283  -9.558 -34.271  0.00  0.00    +0.211 C 
BRANCH 255 256
ATOM    256  O   TYR A   1      24.333  -9.118 -35.527  0.00  0.00    -0.494 OA
ATOM    257  H   TYR A   1      23.738  -8.345 -35.560  0.00  0.00    +0.293 HD
ENDBRANCH 255 256
BRANCH 255 258
ATOM    258  CA  TYR A   1      25.225 -10.752 -33.924  0.00  0.00    +0.218 C 
BRANCH 258 259
ATOM    259  N   TYR A   1      24.852 -11.922 -34.722  0.00  0.00    -0.238 NA
ATOM    260  C   TYR A   1      24.801 -13.076 -34.168  0.00  0.00    +0.209 C 
BRANCH 260 261
ATOM    261  O   TYR A   1      24.387 -14.037 -34.998  0.00  0.00    -0.494 OA
ATOM    262  H   TYR A   1      24.127 -13.584 -35.821  0.00  0.00    +0.293 HD
ENDBRANCH 260 261
BRANCH 260 263
ATOM    263  CA  TYR A   1      25.108 -13.478 -32.728  0.00  0.00    +0.199 C 
BRANCH 263 264
ATOM    264  N   TYR A   1      23.903 -13.336 -31.884  0.00  0.00    -0.240 NA
ATOM    265  C   TYR A   1      23.907 -12.563 -30.855  0.00  0.00    +0.209 C 
BRANCH 265 266
ATOM    266  O   TYR A   1      22.778 -12.544 -30.111  0.00  0.00    -0.494 OA
ATOM    267  H   TYR A   1      22.170 -13.211 -30.462  0.00  0.00    +0.293 HD
ENDBRANCH 265 266
BRANCH 265 268
ATOM    268  CA  TYR A   1      25.046 -11.753 -30.236  0.00  0.00    +0.196 C 
BRANCH 268 269
ATOM    269  CB  TYR A   1      25.541 -12.571 -29.080  0.00  0.00    +0.019 C 
ATOM    270  CG2 TYR A   1      24.793 -12.134 -27.864  0.00  0.00    +0.010 C 
BRANCH 269 271
ATOM    271  CG1 TYR A   1      25.766 -14.081 -29.056  0.00  0.00    +0.002 C 
ATOM    272  CD1 TYR A   1      24.529 -14.929 -29.102  0.00  0.00    +0.004 C 
ENDBRANCH 269 271
ENDBRANCH 268 269
BRANCH 268 273
ATOM    273  N   TYR A   1      24.578 -10.396 -29.837  0.00  0.00    -0.240 NA
ATOM    274  C   TYR A   1      25.124  -9.469 -29.129  0.00  0.00    +0.209 C 
BRANCH 274 275
ATOM    275  O   TYR A   1      24.402  -8.327 -28.947  0.00  0.00    -0.494 OA
ATOM    276  H   TYR A   1      23.609  -8.367 -29.514  0.00  0.00    +0.293 HD
ENDBRANCH 274 275
BRANCH 274 277
ATOM    277  CA  TYR A   1      26.418  -9.349 -28.359  0.00  0.00    +0.194 C 
BRANCH 277 278
ATOM    278  N   TYR A   1      27.270 -10.449 -28.675  0.00  0.00    -0.240 NA
ATOM    279  C   TYR A   1      27.786 -11.075 -27.689  0.00  0.00    +0.211 C 
BRANCH 279 280
ATOM    280  O   TYR A   1      28.654 -12.037 -28.042  0.00  0.00    -0.494 OA
ATOM    281  H   TYR A   1      28.682 -12.094 -29.009  0.00  0.00    +0.293 HD
ENDBRANCH 279 280
BRANCH 279 282
ATOM    282  CA  TYR A   1      27.576 -10.830 -26.221  0.00  0.00    +0.218 C 
BRANCH 282 283
ATOM    283  N   TYR A   1      26.153 -10.691 -25.867  0.00  0.00    -0.238 NA
ATOM    284  C   TYR A   1      25.723 -10.342 -24.720  0.00  0.00    +0.211 C 
BRANCH 284 285
ATOM    285  O   TYR A   1      24.406 -10.110 -24.660  0.00  0.00    -0.494 OA
ATOM    286  H   TYR A   1      24.047 -10.264 -25.553  0.00  0.00    +0.293 HD
ENDBRANCH 284 285
BRANCH 284 287
ATOM    287  CA  TYR A   1      26.506 -10.236 -23.440  0.00  0.00    +0.221 C 
BRANCH 287 288
ATOM    288  N   TYR A   1      27.557  -9.232 -23.617  0.00  0.00    -0.237 NA
ATOM    289  C   TYR A   1      28.799  -9.472 -23.380  0.00  0.00    +0.209 C 
BRANCH 289 290
ATOM    290  O   TYR A   1      29.603  -8.449 -23.679  0.00  0.00    -0.494 OA
ATOM    291  H   TYR A   1      29.035  -7.727 -24.001  0.00  0.00    +0.293 HD
ENDBRANCH 289 290
BRANCH 289 292
ATOM    292  CA  TYR A   1      29.492 -10.749 -22.858  0.00  0.00    +0.197 C 
BRANCH 292 293
ATOM    293  N   TYR A   1      30.418 -11.342 -23.887  0.00  0.00    -0.242 NA
ATOM    294  C   UNK A   0      30.528 -12.623 -23.981  0.00  0.00    +0.180 C 
ATOM    295  C   UNK A   0      29.790 -13.694 -23.280  0.00  0.00    +0.108 C 
BRANCH 294 296
ATOM    296  O   UNK A   0      31.376 -13.167 -24.874  0.00  0.00    -0.496 OA
ATOM    297  H   UNK A   0      31.843 -12.464 -25.349  0.00  0.00    +0.293 HD
ENDBRANCH 294 296
ENDBRANCH 292 293
BRANCH 292 298
ATOM    298  CB  TYR A   1      30.156 -10.590 -21.496  0.00  0.00    +0.071 C 
BRANCH 298 299
ATOM    299  CG  TYR A   1      31.594 -10.197 -21.588  0.00  0.00    -0.045 A 
ATOM    300  CD2 TYR A   1      32.556 -11.171 -21.905  0.00  0.00    +0.007 A 
ATOM    301  CE2 TYR A   1      33.841 -10.790 -22.251  0.00  0.00    +0.045 A 
ATOM    302  CZ  TYR A   1      34.166  -9.443 -22.224  0.00  0.00    +0.117 A 
ATOM    303  CE1 TYR A   1      33.248  -8.477 -21.814  0.00  0.00    +0.045 A 
ATOM    304  CD1 TYR A   1      31.950  -8.856 -21.499  0.00  0.00    +0.007 A 
BRANCH 302 305
ATOM    305  OH  TYR A   1      35.412  -9.086 -22.644  0.00  0.00    -0.507 OA
ATOM    306  HH  TYR A   1      35.413  -8.122 -22.750  0.00  0.00    +0.292 HD
ENDBRANCH 302 305
ENDBRANCH 298 299
ENDBRANCH 292 298
ENDBRANCH 289 292
ENDBRANCH 287 288
BRANCH 287 307
ATOM    307  CB  TYR A   1      25.670 -10.032 -22.179  0.00  0.00    +0.145 C 
ATOM    308  CG2 TYR A   1      26.564 -10.165 -20.957  0.00  0.00    +0.040 C 
BRANCH 307 309
ATOM    309  OG1 TYR A   1      24.923  -8.825 -22.112  0.00  0.00    -0.389 OA
ATOM    310  HG1 TYR A   1      24.344  -8.812 -22.899  0.00  0.00    +0.210 HD
ENDBRANCH 307 309
ENDBRANCH 287 307
ENDBRANCH 284 287
ENDBRANCH 282 283
BRANCH 282 311
ATOM    311  CB  TYR A   1      28.205 -11.990 -25.533  0.00  0.00    +0.192 C 
BRANCH 311 312
ATOM    312  O   TYR A   1      27.433 -13.169 -25.467  0.00  0.00    -0.392 OA
ATOM    313  H   TYR A   1      26.594 -12.918 -25.051  0.00  0.00    +0.210 HD
ENDBRANCH 311 312
ENDBRANCH 282 311
ENDBRANCH 279 282
ENDBRANCH 277 278
BRANCH 277 314
ATOM    314  CB  TYR A   1      27.304  -8.113 -28.317  0.00  0.00    +0.039 C 
BRANCH 314 315
ATOM    315  CG  TYR A   1      28.516  -8.039 -29.276  0.00  0.00    -0.015 C 
ATOM    316  CD2 TYR A   1      29.530  -9.191 -29.368  0.00  0.00    +0.007 C 
ATOM    317  CD1 TYR A   1      29.289  -6.774 -28.914  0.00  0.00    +0.007 C 
ENDBRANCH 314 315
ENDBRANCH 277 314
ENDBRANCH 274 277
ENDBRANCH 268 273
ENDBRANCH 265 268
ENDBRANCH 263 264
BRANCH 263 318
ATOM    318  CB  TYR A   1      25.830 -14.820 -32.613  0.00  0.00    +0.091 C 
BRANCH 318 319
ATOM    319  CG  TYR A   1      25.038 -16.063 -32.742  0.00  0.00    +0.038 A 
ATOM    320  ND1 TYR A   1      24.428 -16.440 -33.908  0.00  0.00    -0.348 N 
ATOM    321  HD1 TYR A   1      24.415 -15.896 -34.762  0.00  0.00    +0.166 HD
ATOM    322  CE1 TYR A   1      23.801 -17.626 -33.688  0.00  0.00    +0.196 A 
ATOM    323  NE2 TYR A   1      24.019 -18.064 -32.471  0.00  0.00    -0.244 NA
ATOM    324  CD2 TYR A   1      24.809 -17.114 -31.881  0.00  0.00    +0.133 A 
ENDBRANCH 318 319
ENDBRANCH 263 318
ENDBRANCH 260 263
ENDBRANCH 258 259
BRANCH 258 325
ATOM    325  CB  TYR A   1      26.736 -10.568 -34.034  0.00  0.00    +0.192 C 
BRANCH 325 326
ATOM    326  O   TYR A   1      27.182 -10.613 -35.375  0.00  0.00    -0.392 OA
ATOM    327  H   TYR A   1      26.626 -11.289 -35.807  0.00  0.00    +0.210 HD
ENDBRANCH 325 326
ENDBRANCH 258 325
ENDBRANCH 255 258
ENDBRANCH 253 254
BRANCH 253 328
ATOM    328  CB  TYR A   1      25.068  -8.380 -31.790  0.00  0.00    +0.039 C 
BRANCH 328 329
ATOM    329  CG  TYR A   1      25.557  -6.973 -32.240  0.00  0.00    -0.015 C 
ATOM    330  CD2 TYR A   1      27.115  -6.900 -32.391  0.00  0.00    +0.007 C 
ATOM    331  CD1 TYR A   1      25.196  -5.911 -31.200  0.00  0.00    +0.007 C 
ENDBRANCH 328 329
ENDBRANCH 253 328
ENDBRANCH 250 253
ENDBRANCH 244 249
ENDBRANCH 240 244
ENDBRANCH 239 241
BRANCH 239 332
ATOM    332  CB  GLU A   2      18.473  -8.013 -32.906  0.00  0.00    +0.047 C 
BRANCH 332 333
ATOM    333  CG  GLU A   2      19.177  -7.780 -34.277  0.00  0.00    +0.123 C 
BRANCH 333 334
ATOM    334  CD  GLU A   2      19.139  -8.615 -35.548  0.00  0.00    +0.305 C 
ATOM    335  OE1 GLU A   2      19.911  -8.381 -36.474  0.00  0.00    -0.251 OA
BRANCH 334 336
ATOM    336  OE2 GLU A   2      18.199  -9.558 -35.664  0.00  0.00    -0.481 OA
ATOM    337  HE2 GLU A   2      17.765  -9.822 -34.826  0.00  0.00    +0.295 HD
ENDBRANCH 334 336
ENDBRANCH 333 334
ENDBRANCH 332 333
ENDBRANCH 239 332
ENDBRANCH 235 239
ENDBRANCH 234 236
BRANCH 234 338
ATOM    338  CB  GLU A   3      18.436 -12.873 -30.920  0.00  0.00    +0.047 C 
BRANCH 338 339
ATOM    339  CG  GLU A   3      18.386 -13.889 -32.069  0.00  0.00    +0.123 C 
BRANCH 339 340
ATOM    340  CD  GLU A   3      17.960 -15.313 -31.868  0.00  0.00    +0.305 C 
ATOM    341  OE1 GLU A   3      16.922 -15.738 -32.352  0.00  0.00    -0.251 OA
BRANCH 340 342
ATOM    342  OE2 GLU A   3      18.754 -16.052 -31.089  0.00  0.00    -0.481 OA
ATOM    343  HE2 GLU A   3      19.569 -15.641 -30.747  0.00  0.00    +0.295 HD
ENDBRANCH 340 342
ENDBRANCH 339 340
ENDBRANCH 338 339
ENDBRANCH 234 338
ENDBRANCH 230 234
ENDBRANCH 229 231
BRANCH 229 344
ATOM    344  CB  SER A   4      13.861 -10.258 -29.860  0.00  0.00    +0.192 C 
BRANCH 344 345
ATOM    345  OG  SER A   4      13.587  -8.909 -29.505  0.00  0.00    -0.392 OA
ATOM    346  H   SER A   4      13.325  -8.897 -28.567  0.00  0.00    +0.210 HD
ENDBRANCH 344 345
ENDBRANCH 229 344
ENDBRANCH 225 229
ENDBRANCH 224 226
BRANCH 224 347
ATOM    347  CB  GLN A   5      15.361  -7.516 -27.333  0.00  0.00    +0.046 C 
BRANCH 347 348
ATOM    348  CG  GLN A   5      14.003  -7.378 -26.563  0.00  0.00    +0.097 C 
BRANCH 348 349
ATOM    349  CD  GLN A   5      14.247  -7.082 -25.145  0.00  0.00    +0.180 C 
ATOM    350  NE2 GLN A   5      13.931  -7.717 -24.075  0.00  0.00    -0.271 NA
ATOM    351  HE2 GLN A   5      13.430  -8.548 -24.345  0.00  0.00    +0.190 HD
BRANCH 349 352
ATOM    352  OE1 GLN A   5      15.047  -6.061 -25.020  0.00  0.00    -0.496 OA
ATOM    353  HE1 GLN A   5      15.203  -5.561 -25.851  0.00  0.00    +0.293 HD
ENDBRANCH 349 352
ENDBRANCH 348 349
ENDBRANCH 347 348
ENDBRANCH 224 347
ENDBRANCH 220 224
ENDBRANCH 219 221
BRANCH 219 354
ATOM    354  CB  ASN A   6      16.993 -11.900 -26.561  0.00  0.00    +0.131 C 
BRANCH 354 355
ATOM    355  CG  ASN A   6      16.534 -13.247 -26.519  0.00  0.00    +0.182 C 
ATOM    356  ND2 ASN A   6      17.088 -14.045 -25.730  0.00  0.00    -0.271 NA
ATOM    357  HD2 ASN A   6      17.852 -13.721 -25.144  0.00  0.00    +0.190 HD
BRANCH 355 358
ATOM    358  OD1 ASN A   6      15.485 -13.675 -27.182  0.00  0.00    -0.496 OA
ATOM    359  HD1 ASN A   6      15.378 -13.266 -28.054  0.00  0.00    +0.293 HD
ENDBRANCH 355 358
ENDBRANCH 354 355
ENDBRANCH 219 354
ENDBRANCH 215 219
ENDBRANCH 214 216
BRANCH 214 360
ATOM    360  CB  GLN A   7      14.271 -12.627 -22.414  0.00  0.00    +0.046 C 
BRANCH 360 361
ATOM    361  CG  GLN A   7      12.786 -12.847 -22.033  0.00  0.00    +0.097 C 
BRANCH 361 362
ATOM    362  CD  GLN A   7      11.803 -13.823 -22.629  0.00  0.00    +0.180 C 
ATOM    363  NE2 GLN A   7      11.029 -14.558 -21.918  0.00  0.00    -0.271 NA
ATOM    364  HE2 GLN A   7      11.206 -14.394 -20.924  0.00  0.00    +0.190 HD
BRANCH 362 365
ATOM    365  OE1 GLN A   7      11.609 -13.789 -23.957  0.00  0.00    -0.496 OA
ATOM    366  HE1 GLN A   7      12.011 -13.025 -24.403  0.00  0.00    +0.293 HD
ENDBRANCH 362 365
ENDBRANCH 361 362
ENDBRANCH 360 361
ENDBRANCH 214 360
ENDBRANCH 210 214
ENDBRANCH 209 211
BRANCH 209 367
ATOM    367  CB  GLN A   8      12.608 -10.279 -21.421  0.00  0.00    +0.046 C 
BRANCH 367 368
ATOM    368  CG  GLN A   8      11.734  -9.321 -22.214  0.00  0.00    +0.097 C 
BRANCH 368 369
ATOM    369  CD  GLN A   8      10.911  -9.958 -23.325  0.00  0.00    +0.180 C 
ATOM    370  NE2 GLN A   8       9.634  -9.862 -23.368  0.00  0.00    -0.271 NA
ATOM    371  HE2 GLN A   8       9.303  -9.308 -22.584  0.00  0.00    +0.190 HD
BRANCH 369 372
ATOM    372  OE1 GLN A   8      11.500 -10.608 -24.330  0.00  0.00    -0.496 OA
ATOM    373  HE1 GLN A   8      12.449 -10.468 -24.424  0.00  0.00    +0.293 HD
ENDBRANCH 369 372
ENDBRANCH 368 369
ENDBRANCH 367 368
ENDBRANCH 209 367
ENDBRANCH 205 209
ENDBRANCH 204 206
BRANCH 204 374
ATOM    374  CB  GLU A   9      15.018  -6.424 -18.541  0.00  0.00    +0.047 C 
BRANCH 374 375
ATOM    375  CG  GLU A   9      15.504  -6.794 -17.163  0.00  0.00    +0.123 C 
BRANCH 375 376
ATOM    376  CD  GLU A   9      15.954  -5.611 -16.359  0.00  0.00    +0.305 C 
ATOM    377  OE1 GLU A   9      15.845  -4.432 -16.643  0.00  0.00    -0.251 OA
BRANCH 376 378
ATOM    378  OE2 GLU A   9      16.524  -6.044 -15.209  0.00  0.00    -0.481 OA
ATOM    379  HE2 GLU A   9      16.507  -7.021 -15.150  0.00  0.00    +0.295 HD
ENDBRANCH 376 378
ENDBRANCH 375 376
ENDBRANCH 374 375
ENDBRANCH 204 374
ENDBRANCH 200 204
ENDBRANCH 199 201
BRANCH 199 380
ATOM    380  CB  LYS A  10      16.429  -5.571 -21.924  0.00  0.00    +0.036 C 
BRANCH 380 381
ATOM    381  CG  LYS A  10      16.782  -4.386 -22.791  0.00  0.00    +0.004 C 
BRANCH 381 382
ATOM    382  CD  LYS A  10      16.262  -4.048 -24.234  0.00  0.00    +0.015 C 
BRANCH 382 383
ATOM    383  CE  LYS A  10      14.739  -3.818 -24.642  0.00  0.00    +0.077 C 
BRANCH 383 384
ATOM    384  NZ  LYS A  10      14.678  -3.836 -26.130  0.00  0.00    -0.330 NA
ATOM    385  HZ1 LYS A  10      13.700  -3.936 -26.414  0.00  0.00    +0.118 HD
ATOM    386  HZ2 LYS A  10      14.935  -2.894 -26.443  0.00  0.00    +0.118 HD
ENDBRANCH 383 384
ENDBRANCH 382 383
ENDBRANCH 381 382
ENDBRANCH 380 381
ENDBRANCH 199 380
ENDBRANCH 195 199
ENDBRANCH   1 196
BRANCH   1 387
ATOM    387  CB  ASN A  11      18.225  -8.488 -23.309  0.00  0.00    +0.131 C 
BRANCH 387 388
ATOM    388  CG  ASN A  11      17.680  -7.568 -24.298  0.00  0.00    +0.182 C 
ATOM    389  ND2 ASN A  11      16.527  -7.803 -24.738  0.00  0.00    -0.271 NA
ATOM    390  HD2 ASN A  11      16.035  -8.555 -24.237  0.00  0.00    +0.190 HD
BRANCH 388 391
ATOM    391  OD1 ASN A  11      18.368  -6.550 -24.791  0.00  0.00    -0.496 OA
ATOM    392  HD1 ASN A  11      18.844  -6.077 -24.079  0.00  0.00    +0.293 HD
ENDBRANCH 388 391
ENDBRANCH 387 388
ENDBRANCH   1 387
TORSDOF 210
