REMARK  Name = 
REMARK  4 active torsions:
REMARK  status: ('A' for Active; 'I' for Inactive)
REMARK    1  A    between atoms: C3*_2  and  O3*_20
REMARK    2  A    between atoms: C4*_4  and  C5*_18
REMARK    3  A    between atoms: C1*_7  and  N_9
REMARK    4  A    between atoms: C5*_18  and  O5*_19
REMARK                            x       y       z     vdW  Elec       q    Type
REMARK                         _______ _______ _______ _____ _____    ______ ____
ROOT
ATOM      1  C2* UNL     1      -0.850  -1.054  -0.084  0.00  0.00    +0.088 C 
ATOM      2  C1* UNL     1       0.659  -1.032   0.135  0.00  0.00    +0.226 C 
ATOM      3  O4* UNL     1       1.106   0.339   0.066  0.00  0.00    -0.348 OA
ATOM      4  C4* UNL     1      -0.036   1.185  -0.192  0.00  0.00    +0.175 C 
ATOM      5  C3* UNL     1      -1.252   0.366   0.236  0.00  0.00    +0.150 C 
ENDROOT
BRANCH   2   6
ATOM      6  N   UNL     1       1.060  -1.634   1.403  0.00  0.00    -0.273 N 
ATOM      7  C   UNL     1       1.248  -3.011   1.409  0.00  0.00    +0.331 A 
ATOM      8  O   UNL     1       1.109  -3.728   0.421  0.00  0.00    -0.246 OA
ATOM      9  N   UNL     1       1.601  -3.555   2.613  0.00  0.00    -0.274 N 
ATOM     10  H   UNL     1       1.761  -4.551   2.630  0.00  0.00    +0.173 HD
ATOM     11  C   UNL     1       1.754  -2.885   3.796  0.00  0.00    +0.267 A 
ATOM     12  O   UNL     1       2.089  -3.478   4.817  0.00  0.00    -0.267 OA
ATOM     13  C   UNL     1       1.482  -1.421   3.749  0.00  0.00    +0.094 A 
ATOM     14  I   UNL     1       1.605  -0.304   5.455  0.00  0.00    -0.037 I 
ATOM     15  C   UNL     1       1.156  -0.887   2.565  0.00  0.00    +0.113 A 
ENDBRANCH   2   6
BRANCH   5  16
ATOM     16  O3* UNL     1      -2.475   0.746  -0.368  0.00  0.00    -0.389 OA
ATOM     17  H3* UNL     1      -2.427   0.521  -1.316  0.00  0.00    +0.210 HD
ENDBRANCH   5  16
BRANCH   4  18
ATOM     18  C5* UNL     1      -0.013   1.629  -1.660  0.00  0.00    +0.190 C 
BRANCH  18  19
ATOM     19  O5* UNL     1      -0.059   0.514  -2.548  0.00  0.00    -0.392 OA
ATOM     20  H5* UNL     1       0.827   0.106  -2.517  0.00  0.00    +0.210 HD
ENDBRANCH  18  19
ENDBRANCH   4  18
TORSDOF 4
