REMARK  Name = 
REMARK  4 active torsions:
REMARK  status: ('A' for Active; 'I' for Inactive)
REMARK    1  A    between atoms: C3*_2  and  O3*_20
REMARK    2  A    between atoms: C4*_4  and  C5*_18
REMARK    3  A    between atoms: C1*_7  and  N_9
REMARK    4  A    between atoms: C5*_18  and  O5*_19
REMARK                            x       y       z     vdW  Elec       q    Type
REMARK                         _______ _______ _______ _____ _____    ______ ____
ROOT
ATOM      1  C2* UNL     1      -0.851  -1.055  -0.086  0.00  0.00    +0.088 C 
ATOM      2  C1* UNL     1       0.657  -1.032   0.131  0.00  0.00    +0.226 C 
ATOM      3  O4* UNL     1       1.104   0.339   0.062  0.00  0.00    -0.348 OA
ATOM      4  C4* UNL     1      -0.039   1.184  -0.192  0.00  0.00    +0.175 C 
ATOM      5  C3* UNL     1      -1.253   0.363   0.237  0.00  0.00    +0.150 C 
ENDROOT
BRANCH   2   6
ATOM      6  N   UNL     1       1.060  -1.634   1.399  0.00  0.00    -0.273 N 
ATOM      7  C   UNL     1       1.252  -3.010   1.403  0.00  0.00    +0.331 A 
ATOM      8  O   UNL     1       1.113  -3.726   0.415  0.00  0.00    -0.246 OA
ATOM      9  N   UNL     1       1.609  -3.553   2.605  0.00  0.00    -0.274 N 
ATOM     10  H   UNL     1       1.768  -4.548   2.624  0.00  0.00    +0.173 HD
ATOM     11  C   UNL     1       1.755  -2.886   3.791  0.00  0.00    +0.267 A 
ATOM     12  O   UNL     1       2.077  -3.482   4.814  0.00  0.00    -0.267 OA
ATOM     13  C   UNL     1       1.483  -1.423   3.745  0.00  0.00    +0.094 A 
ATOM     14  I   UNL     1       1.608  -0.306   5.452  0.00  0.00    -0.037 I 
ATOM     15  C   UNL     1       1.157  -0.887   2.561  0.00  0.00    +0.113 A 
ENDBRANCH   2   6
BRANCH   5  16
ATOM     16  O3* UNL     1      -2.476   0.743  -0.363  0.00  0.00    -0.389 OA
ATOM     17  H3* UNL     1      -2.432   0.520  -1.313  0.00  0.00    +0.210 HD
ENDBRANCH   5  16
BRANCH   4  18
ATOM     18  C5* UNL     1      -0.020   1.631  -1.659  0.00  0.00    +0.190 C 
BRANCH  18  19
ATOM     19  O5* UNL     1      -0.069   0.518  -2.548  0.00  0.00    -0.392 OA
ATOM     20  H5* UNL     1       0.815   0.105  -2.516  0.00  0.00    +0.210 HD
ENDBRANCH  18  19
ENDBRANCH   4  18
TORSDOF 4
