REMARK  Name = 
REMARK  6 active torsions:
REMARK  status: ('A' for Active; 'I' for Inactive)
REMARK    1  A    between atoms: C_3  and  C_19
REMARK    2  A    between atoms: N_5  and  C1*_6
REMARK    3  A    between atoms: C2*_8  and  O2*_18
REMARK    4  A    between atoms: C3*_10  and  O3*_17
REMARK    5  A    between atoms: C4*_12  and  C5*_15
REMARK    6  A    between atoms: C5*_15  and  O5*_16
REMARK                            x       y       z     vdW  Elec       q    Type
REMARK                         _______ _______ _______ _____ _____    ______ ____
ROOT
ATOM      1  C1* UNL     1      -0.878  -2.490   0.025  0.00  0.00    +0.270 C 
ATOM      2  O4* UNL     1      -1.156  -2.947   1.365  0.00  0.00    -0.344 OA
ATOM      3  C4* UNL     1      -1.084  -4.396   1.347  0.00  0.00    +0.177 C 
ATOM      4  C3* UNL     1      -0.673  -4.801  -0.076  0.00  0.00    +0.178 C 
ATOM      5  C2* UNL     1       0.004  -3.547  -0.624  0.00  0.00    +0.196 C 
ENDROOT
BRANCH   1   7
ATOM      6  C   UNL     1      -0.867  -0.079  -0.617  0.00  0.00    +0.223 A 
ATOM      7  N   UNL     1      -0.330  -1.148   0.033  0.00  0.00    -0.220 N 
ATOM      8  N   UNL     1       0.799  -0.808   0.687  0.00  0.00    -0.142 NA
ATOM      9  C   UNL     1       0.908   0.509   0.386  0.00  0.00    +0.236 A 
ATOM     10  N   UNL     1      -0.122   0.979  -0.420  0.00  0.00    -0.211 NA
BRANCH   9  11
ATOM     11  C   UNL     1       1.992   1.402   0.840  0.00  0.00    +0.281 C 
ATOM     12  N   UNL     1       1.862   2.693   0.395  0.00  0.00    -0.323 N 
ATOM     13  H   UNL     1       2.564   3.373   0.641  0.00  0.00    +0.145 HD
ATOM     14  H   UNL     1       1.080   2.945  -0.201  0.00  0.00    +0.145 HD
ATOM     15  O   UNL     1       2.943   1.077   1.550  0.00  0.00    -0.267 OA
ENDBRANCH   9  11
ENDBRANCH   1   7
BRANCH   4  16
ATOM     16  O3* UNL     1       0.128  -5.965  -0.181  0.00  0.00    -0.386 OA
ATOM     17  H3* UNL     1       0.980  -5.787   0.268  0.00  0.00    +0.210 HD
ENDBRANCH   4  16
BRANCH   5  18
ATOM     18  O2* UNL     1      -0.022  -3.468  -2.050  0.00  0.00    -0.385 OA
ATOM     19  H2* UNL     1      -0.648  -4.125  -2.402  0.00  0.00    +0.210 HD
ENDBRANCH   5  18
BRANCH   3  20
ATOM     20  C5* UNL     1      -0.147  -4.869   2.456  0.00  0.00    +0.190 C 
BRANCH  20  21
ATOM     21  O5* UNL     1       1.184  -4.429   2.199  0.00  0.00    -0.392 OA
ATOM     22  H5* UNL     1       1.193  -3.463   2.358  0.00  0.00    +0.210 HD
ENDBRANCH  20  21
ENDBRANCH   3  20
TORSDOF 6
