REMARK  Name = 
REMARK  6 active torsions:
REMARK  status: ('A' for Active; 'I' for Inactive)
REMARK    1  A    between atoms: C_3  and  C_19
REMARK    2  A    between atoms: N_5  and  C1*_6
REMARK    3  A    between atoms: C2*_8  and  O2*_18
REMARK    4  A    between atoms: C3*_10  and  O3*_17
REMARK    5  A    between atoms: C4*_12  and  C5*_15
REMARK    6  A    between atoms: C5*_15  and  O5*_16
REMARK                            x       y       z     vdW  Elec       q    Type
REMARK                         _______ _______ _______ _____ _____    ______ ____
ROOT
ATOM      1  C1* UNL     1      -0.887  -2.496   0.065  0.00  0.00    +0.270 C 
ATOM      2  O4* UNL     1      -1.156  -2.966   1.407  0.00  0.00    -0.344 OA
ATOM      3  C4* UNL     1      -1.012  -4.412   1.392  0.00  0.00    +0.177 C 
ATOM      4  C3* UNL     1      -0.674  -4.798  -0.053  0.00  0.00    +0.178 C 
ATOM      5  C2* UNL     1      -0.003  -3.543  -0.599  0.00  0.00    +0.196 C 
ENDROOT
BRANCH   1   7
ATOM      6  C   UNL     1      -0.905  -0.080  -0.556  0.00  0.00    +0.223 A 
ATOM      7  N   UNL     1      -0.353  -1.149   0.078  0.00  0.00    -0.220 N 
ATOM      8  N   UNL     1       0.786  -0.805   0.712  0.00  0.00    -0.142 NA
ATOM      9  C   UNL     1       0.886   0.507   0.414  0.00  0.00    +0.236 A 
ATOM     10  N   UNL     1      -0.162   0.982  -0.373  0.00  0.00    -0.211 NA
BRANCH   9  11
ATOM     11  C   UNL     1       1.977   1.405   0.842  0.00  0.00    +0.281 C 
ATOM     12  N   UNL     1       1.839   2.698   0.397  0.00  0.00    -0.323 N 
ATOM     13  H   UNL     1       2.540   3.380   0.639  0.00  0.00    +0.145 HD
ATOM     14  H   UNL     1       1.043   2.946  -0.179  0.00  0.00    +0.145 HD
ATOM     15  O   UNL     1       2.934   1.080   1.538  0.00  0.00    -0.267 OA
ENDBRANCH   9  11
ENDBRANCH   1   7
BRANCH   4  16
ATOM     16  O3* UNL     1       0.064  -5.993  -0.228  0.00  0.00    -0.386 OA
ATOM     17  H3* UNL     1       1.009  -5.767  -0.327  0.00  0.00    +0.210 HD
ENDBRANCH   4  16
BRANCH   5  18
ATOM     18  O2* UNL     1      -0.030  -3.477  -2.025  0.00  0.00    -0.385 OA
ATOM     19  H2* UNL     1      -0.736  -4.052  -2.368  0.00  0.00    +0.210 HD
ENDBRANCH   5  18
BRANCH   3  20
ATOM     20  C5* UNL     1       0.004  -4.838   2.451  0.00  0.00    +0.190 C 
BRANCH  20  21
ATOM     21  O5* UNL     1       1.282  -4.263   2.201  0.00  0.00    -0.392 OA
ATOM     22  H5* UNL     1       1.217  -3.315   2.436  0.00  0.00    +0.210 HD
ENDBRANCH  20  21
ENDBRANCH   3  20
TORSDOF 6
