REMARK  Name = 
REMARK  24 active torsions:
REMARK  status: ('A' for Active; 'I' for Inactive)
REMARK    1  A    between atoms: C_1  and  C_2
REMARK    2  A    between atoms: C_2  and  C_3
REMARK    3  A    between atoms: C_2  and  C_4
REMARK    4  A    between atoms: C_2  and  O_5
REMARK    5  A    between atoms: O_5  and  C_6
REMARK    6  A    between atoms: C_6  and  O_8
REMARK    7  A    between atoms: O_8  and  C_9
REMARK    8  A    between atoms: C_9  and  O_10
REMARK    9  A    between atoms: O_10  and  P_11
REMARK   10  A    between atoms: P_11  and  C_13
REMARK   11  A    between atoms: P_11  and  O_27
REMARK   12  A    between atoms: C_13  and  O_14
REMARK   13  A    between atoms: O_14  and  C_15
REMARK   14  A    between atoms: C_15  and  C_16
REMARK   15  A    between atoms: C_16  and  N_17
REMARK   16  A    between atoms: C_21  and  N_26
REMARK   17  A    between atoms: O_27  and  C_28
REMARK   18  A    between atoms: C_28  and  O_29
REMARK   19  A    between atoms: O_29  and  C_30
REMARK   20  A    between atoms: C_30  and  O_32
REMARK   21  A    between atoms: O_32  and  C_33
REMARK   22  A    between atoms: C_33  and  C_34
REMARK   23  A    between atoms: C_33  and  C_35
REMARK   24  A    between atoms: C_33  and  C_36
REMARK                            x       y       z     vdW  Elec       q    Type
REMARK                         _______ _______ _______ _____ _____    ______ ____
ROOT
ATOM      1  P   UNL     1       8.140  -0.003   4.854  0.00  0.00    +0.363 P 
ATOM      2  O   UNL     1       7.997   1.340   5.583  0.00  0.00    -0.256 OA
ENDROOT
BRANCH   1   3
ATOM      3  O   UNL     1       6.440  -0.007   4.538  0.00  0.00    -0.268 OA
BRANCH   3   4
ATOM      4  C   UNL     1       6.133  -0.657   3.318  0.00  0.00    +0.410 C 
BRANCH   4   5
ATOM      5  O   UNL     1       6.716   0.010   2.202  0.00  0.00    -0.406 OA
BRANCH   5   6
ATOM      6  C   UNL     1       5.963   1.049   1.762  0.00  0.00    +0.513 C 
ATOM      7  O   UNL     1       4.893   1.392   2.241  0.00  0.00    -0.203 OA
BRANCH   6   8
ATOM      8  O   UNL     1       6.596   1.637   0.718  0.00  0.00    -0.428 OA
BRANCH   8  10
ATOM      9  C   UNL     1       6.076   3.984   1.187  0.00  0.00    +0.055 C 
ATOM     10  C   UNL     1       6.028   2.849   0.155  0.00  0.00    +0.109 C 
ATOM     11  C   UNL     1       6.932   3.237  -1.026  0.00  0.00    +0.055 C 
ATOM     12  C   UNL     1       4.611   2.619  -0.393  0.00  0.00    +0.055 C 
ENDBRANCH   8  10
ENDBRANCH   6   8
ENDBRANCH   5   6
ENDBRANCH   4   5
ENDBRANCH   3   4
ENDBRANCH   1   3
BRANCH   1  13
ATOM     13  O   UNL     1       9.841   0.002   5.170  0.00  0.00    -0.268 OA
BRANCH  13  14
ATOM     14  C   UNL     1      10.579   0.671   4.166  0.00  0.00    +0.410 C 
BRANCH  14  15
ATOM     15  O   UNL     1      11.972   0.697   4.473  0.00  0.00    -0.406 OA
BRANCH  15  16
ATOM     16  C   UNL     1      12.285   1.668   5.367  0.00  0.00    +0.513 C 
ATOM     17  O   UNL     1      11.490   2.444   5.869  0.00  0.00    -0.203 OA
BRANCH  16  18
ATOM     18  O   UNL     1      13.630   1.661   5.572  0.00  0.00    -0.428 OA
BRANCH  18  19
ATOM     19  C   UNL     1      14.198   2.652   6.469  0.00  0.00    +0.109 C 
ATOM     20  C   UNL     1      13.925   4.077   5.966  0.00  0.00    +0.055 C 
ATOM     21  C   UNL     1      15.720   2.434   6.446  0.00  0.00    +0.055 C 
ATOM     22  C   UNL     1      13.706   2.437   7.907  0.00  0.00    +0.055 C 
ENDBRANCH  18  19
ENDBRANCH  16  18
ENDBRANCH  15  16
ENDBRANCH  14  15
ENDBRANCH  13  14
ENDBRANCH   1  13
BRANCH   1  23
ATOM     23  C   UNL     1       7.944  -1.355   6.145  0.00  0.00    +0.286 C 
BRANCH  23  24
ATOM     24  O   UNL     1       7.381  -2.500   5.495  0.00  0.00    -0.366 OA
BRANCH  24  25
ATOM     25  C   UNL     1       7.246  -3.600   6.395  0.00  0.00    +0.182 C 
BRANCH  25  26
ATOM     26  C   UNL     1       6.268  -3.304   7.531  0.00  0.00    +0.153 C 
BRANCH  26  27
ATOM     27  N   UNL     1       6.130  -4.433   8.411  0.00  0.00    -0.313 N 
ATOM     28  C   UNL     1       6.996  -4.757   9.416  0.00  0.00    +0.165 A 
ATOM     29  C   UNL     1       6.534  -5.971   9.890  0.00  0.00    +0.147 A 
ATOM     30  C   UNL     1       7.292  -6.571  10.907  0.00  0.00    +0.147 A 
ATOM     31  N   UNL     1       8.369  -5.910  11.389  0.00  0.00    -0.219 NA
ATOM     32  C   UNL     1       8.693  -4.720  10.835  0.00  0.00    +0.225 A 
ATOM     33  N   UNL     1       5.382  -6.354   9.227  0.00  0.00    -0.231 NA
ATOM     34  N   UNL     1       8.074  -4.071   9.828  0.00  0.00    -0.216 NA
ATOM     35  C   UNL     1       5.164  -5.396   8.351  0.00  0.00    +0.201 A 
BRANCH  30  36
ATOM     36  N   UNL     1       6.981  -7.814  11.440  0.00  0.00    -0.341 N 
ATOM     37  H   UNL     1       7.367  -7.945  12.364  0.00  0.00    +0.144 HD
ATOM     38  H   UNL     1       6.019  -8.091  11.280  0.00  0.00    +0.144 HD
ENDBRANCH  30  36
ENDBRANCH  26  27
ENDBRANCH  25  26
ENDBRANCH  24  25
ENDBRANCH  23  24
ENDBRANCH   1  23
TORSDOF 18
