REMARK  Name = 
REMARK  5 active torsions:
REMARK  status: ('A' for Active; 'I' for Inactive)
REMARK    1  A    between atoms: C_1  and  C_2
REMARK    2  A    between atoms: C_12  and  O_31
REMARK    3  A    between atoms: C_15  and  C_19
REMARK    4  A    between atoms: N_21  and  C_22
REMARK    5  A    between atoms: C_22  and  C_23
REMARK                            x       y       z     vdW  Elec       q    Type
REMARK                         _______ _______ _______ _____ _____    ______ ____
ROOT
ATOM      1  C   UNL     1       0.822  -0.240   0.081  0.00  0.00    +0.028 C 
ATOM      2  C   UNL     1       2.349  -0.083  -0.009  0.00  0.00    +0.078 C 
ATOM      3  N   UNL     1       2.937   0.859   0.951  0.00  0.00    -0.266 N 
ATOM      4  C   UNL     1       2.511   2.181   0.930  0.00  0.00    +0.269 C 
ATOM      5  C   UNL     1       3.410   3.214   1.561  0.00  0.00    +0.151 A 
ATOM      6  N   UNL     1       4.654   2.848   2.101  0.00  0.00    -0.335 N 
ATOM      7  C   UNL     1       5.097   1.447   2.033  0.00  0.00    +0.173 C 
ATOM      8  C   UNL     1       5.598   3.858   2.305  0.00  0.00    +0.103 A 
ATOM      9  C   UNL     1       5.342   5.176   2.236  0.00  0.00    +0.103 A 
ATOM     10  C   UNL     1       3.918   5.538   2.062  0.00  0.00    +0.236 A 
ATOM     11  O   UNL     1       3.489   6.649   2.363  0.00  0.00    -0.283 OA
ATOM     12  C   UNL     1       3.003   4.503   1.482  0.00  0.00    +0.194 A 
ATOM     13  O   UNL     1       1.489   2.548   0.348  0.00  0.00    -0.268 OA
ATOM     14  C   UNL     1       3.923   0.451   1.952  0.00  0.00    +0.228 C 
ATOM     15  O   UNL     1       4.528  -0.807   1.660  0.00  0.00    -0.357 OA
ATOM     16  C   UNL     1       3.628  -1.826   1.282  0.00  0.00    +0.164 C 
ATOM     17  C   UNL     1       3.023  -1.452  -0.047  0.00  0.00    +0.050 C 
ENDROOT
BRANCH   9  18
ATOM     18  C   UNL     1       6.485   6.123   2.348  0.00  0.00    +0.250 C 
ATOM     19  N   UNL     1       6.534   7.262   1.578  0.00  0.00    -0.307 N 
ATOM     20  H   UNL     1       7.323   7.853   1.778  0.00  0.00    +0.149 HD
ATOM     21  O   UNL     1       7.460   5.868   3.062  0.00  0.00    -0.270 OA
BRANCH  19  22
ATOM     22  C   UNL     1       5.465   7.808   0.757  0.00  0.00    +0.142 C 
BRANCH  22  23
ATOM     23  C   UNL     1       5.933   8.744  -0.314  0.00  0.00    +0.005 A 
ATOM     24  C   UNL     1       5.822  10.134  -0.151  0.00  0.00    +0.011 A 
ATOM     25  C   UNL     1       6.144  10.988  -1.204  0.00  0.00    +0.039 A 
ATOM     26  C   UNL     1       6.590  10.451  -2.412  0.00  0.00    +0.126 A 
ATOM     27  F   UNL     1       6.873  11.276  -3.428  0.00  0.00    -0.205 F 
ATOM     28  C   UNL     1       6.718   9.082  -2.586  0.00  0.00    +0.077 A 
ATOM     29  C   UNL     1       6.394   8.239  -1.535  0.00  0.00    +0.131 A 
ATOM     30  F   UNL     1       6.474   6.913  -1.718  0.00  0.00    -0.205 F 
ENDBRANCH  22  23
ENDBRANCH  19  22
ENDBRANCH   9  18
BRANCH  12  31
ATOM     31  O   UNL     1       1.828   4.956   0.901  0.00  0.00    -0.502 OA
ATOM     32  H   UNL     1       1.346   4.181   0.537  0.00  0.00    +0.292 HD
ENDBRANCH  12  31
TORSDOF 4
