REMARK  Name = 
REMARK  17 active torsions:
REMARK  status: ('A' for Active; 'I' for Inactive)
REMARK    1  A    between atoms: C_1  and  C_2
REMARK    2  A    between atoms: C_2  and  C_3
REMARK    3  A    between atoms: C_2  and  C_4
REMARK    4  A    between atoms: C_2  and  N_5
REMARK    5  A    between atoms: C_6  and  C_8
REMARK    6  A    between atoms: N_19  and  C_20
REMARK    7  A    between atoms: C_20  and  C_21
REMARK    8  A    between atoms: C_21  and  C_22
REMARK    9  A    between atoms: C_21  and  O_51
REMARK   10  A    between atoms: C_22  and  C_23
REMARK   11  A    between atoms: C_22  and  N_30
REMARK   12  A    between atoms: C_23  and  C_24
REMARK   13  A    between atoms: C_31  and  C_33
REMARK   14  A    between atoms: C_33  and  C_34
REMARK   15  A    between atoms: C_33  and  N_38
REMARK   16  A    between atoms: C_34  and  C_35
REMARK   17  A    between atoms: C_39  and  C_41
REMARK                            x       y       z     vdW  Elec       q    Type
REMARK                         _______ _______ _______ _____ _____    ______ ____
ROOT
ATOM      1  C   UNL     1       4.024  -4.370  -3.784  0.00  0.00    +0.107 C 
ENDROOT
BRANCH   1   2
ATOM      2  N   UNL     1       3.158  -3.351  -3.083  0.00  0.00    -0.308 N 
ATOM      3  H   UNL     1       2.244  -3.655  -2.743  0.00  0.00    +0.149 HD
ATOM      4  C   UNL     1       3.605  -2.141  -2.599  0.00  0.00    +0.234 C 
ATOM      5  O   UNL     1       4.813  -1.884  -2.590  0.00  0.00    -0.274 OA
BRANCH   4   6
ATOM      6  C   UNL     1       2.578  -1.167  -1.899  0.00  0.00    +0.168 C 
BRANCH   6   7
ATOM      7  N   UNL     1       2.366  -1.651  -0.520  0.00  0.00    -0.298 N 
ATOM      8  H   UNL     1       2.692  -1.096   0.268  0.00  0.00    +0.150 HD
ATOM      9  C   UNL     1       1.706  -2.820  -0.256  0.00  0.00    +0.263 C 
ATOM     10  O   UNL     1       1.242  -3.528  -1.118  0.00  0.00    -0.269 OA
BRANCH   9  11
ATOM     11  C   UNL     1       1.610  -3.256   1.167  0.00  0.00    +0.126 A 
ATOM     12  C   UNL     1       1.513  -4.620   1.424  0.00  0.00    +0.033 A 
ATOM     13  C   UNL     1       1.425  -5.031   2.738  0.00  0.00    +0.012 A 
ATOM     14  C   UNL     1       1.387  -4.084   3.762  0.00  0.00    +0.000 A 
ATOM     15  C   UNL     1       1.479  -2.712   3.413  0.00  0.00    +0.072 A 
ATOM     16  C   UNL     1       1.402  -1.798   4.438  0.00  0.00    +0.028 A 
ATOM     17  C   UNL     1       1.270  -2.178   5.788  0.00  0.00    +0.002 A 
ATOM     18  C   UNL     1       1.205  -3.524   6.116  0.00  0.00    +0.001 A 
ATOM     19  C   UNL     1       1.260  -4.478   5.105  0.00  0.00    +0.010 A 
ATOM     20  N   UNL     1       1.615  -2.294   2.130  0.00  0.00    -0.242 NA
ENDBRANCH   9  11
ENDBRANCH   6   7
BRANCH   6  21
ATOM     21  C   UNL     1       1.218  -0.839  -2.548  0.00  0.00    +0.127 C 
BRANCH  21  22
ATOM     22  C   UNL     1       1.228  -0.005  -3.808  0.00  0.00    +0.213 C 
ATOM     23  N   UNL     1       0.270  -0.361  -4.722  0.00  0.00    -0.329 N 
ATOM     24  H   UNL     1       0.218   0.211  -5.556  0.00  0.00    +0.145 HD
ATOM     25  H   UNL     1       0.078  -1.346  -4.865  0.00  0.00    +0.145 HD
ATOM     26  O   UNL     1       1.897   1.008  -3.965  0.00  0.00    -0.276 OA
ENDBRANCH  21  22
ENDBRANCH   6  21
ENDBRANCH   4   6
ENDBRANCH   1   2
BRANCH   1  27
ATOM     27  C   UNL     1       4.896  -5.257  -2.808  0.00  0.00    +0.149 C 
BRANCH  27  28
ATOM     28  O   UNL     1       4.013  -6.067  -1.987  0.00  0.00    -0.389 OA
ATOM     29  H   UNL     1       3.670  -6.797  -2.532  0.00  0.00    +0.210 HD
ENDBRANCH  27  28
BRANCH  27  30
ATOM     30  C   UNL     1       5.998  -6.242  -3.426  0.00  0.00    +0.118 C 
BRANCH  30  32
ATOM     31  C   UNL     1       7.958  -6.877  -4.878  0.00  0.00    +0.143 C 
ATOM     32  N   UNL     1       7.117  -5.759  -4.293  0.00  0.00    -0.289 NA
ATOM     33  C   UNL     1       7.998  -4.793  -3.622  0.00  0.00    +0.089 C 
ATOM     34  C   UNL     1       9.039  -5.325  -2.605  0.00  0.00    +0.006 C 
ATOM     35  C   UNL     1       9.778  -6.611  -3.019  0.00  0.00    -0.005 C 
ATOM     36  C   UNL     1      11.198  -6.500  -3.613  0.00  0.00    +0.004 C 
ATOM     37  C   UNL     1      11.854  -5.133  -3.746  0.00  0.00    +0.000 C 
ATOM     38  C   UNL     1      11.007  -3.933  -3.369  0.00  0.00    +0.000 C 
ATOM     39  C   UNL     1      10.045  -4.230  -2.226  0.00  0.00    +0.005 C 
ATOM     40  C   UNL     1       8.899  -7.541  -3.857  0.00  0.00    +0.032 C 
BRANCH  31  43
ATOM     41  N   UNL     1       9.473  -5.657  -6.686  0.00  0.00    -0.309 N 
ATOM     42  H   UNL     1      10.050  -5.337  -5.924  0.00  0.00    +0.149 HD
ATOM     43  C   UNL     1       8.454  -6.558  -6.395  0.00  0.00    +0.231 C 
ATOM     44  O   UNL     1       7.871  -7.133  -7.327  0.00  0.00    -0.274 OA
BRANCH  41  46
ATOM     45  C   UNL     1       8.572  -4.494  -8.758  0.00  0.00    +0.031 C 
ATOM     46  C   UNL     1       9.810  -5.118  -8.074  0.00  0.00    +0.026 C 
ATOM     47  C   UNL     1      10.855  -3.976  -7.972  0.00  0.00    +0.031 C 
ATOM     48  C   UNL     1      10.418  -6.156  -9.045  0.00  0.00    +0.031 C 
ENDBRANCH  41  46
ENDBRANCH  31  43
ENDBRANCH  30  32
ENDBRANCH  27  30
ENDBRANCH   1  27
BRANCH   1  49
ATOM     49  C   UNL     1       3.109  -5.229  -4.702  0.00  0.00    +0.060 C 
BRANCH  49  50
ATOM     50  C   UNL     1       2.224  -4.409  -5.628  0.00  0.00    -0.046 A 
ATOM     51  C   UNL     1       0.825  -4.537  -5.586  0.00  0.00    +0.004 A 
ATOM     52  C   UNL     1       0.012  -3.749  -6.401  0.00  0.00    +0.000 A 
ATOM     53  C   UNL     1       0.585  -2.821  -7.271  0.00  0.00    +0.000 A 
ATOM     54  C   UNL     1       1.970  -2.700  -7.337  0.00  0.00    +0.000 A 
ATOM     55  C   UNL     1       2.786  -3.495  -6.530  0.00  0.00    +0.004 A 
ENDBRANCH  49  50
ENDBRANCH   1  49
TORSDOF 14
