REMARK  Name = 
REMARK  12 active torsions:
REMARK  status: ('A' for Active; 'I' for Inactive)
REMARK    1  A    between atoms: C_1  and  C_2
REMARK    2  A    between atoms: C_2  and  C_3
REMARK    3  A    between atoms: C_3  and  C_4
REMARK    4  A    between atoms: C_3  and  C_6
REMARK    5  A    between atoms: C_4  and  C_5
REMARK    6  A    between atoms: C_6  and  C_7
REMARK    7  A    between atoms: C_6  and  N_21
REMARK    8  A    between atoms: C_9  and  N_17
REMARK    9  A    between atoms: C_11  and  C_14
REMARK   10  A    between atoms: C_12  and  O_13
REMARK   11  A    between atoms: C_14  and  O_16
REMARK   12  A    between atoms: C_22  and  C_24
REMARK                            x       y       z     vdW  Elec       q    Type
REMARK                         _______ _______ _______ _____ _____    ______ ____
ROOT
ATOM      1  C   UNL     1       5.138   1.208   0.902  0.00  0.00    +0.079 C 
ATOM      2  C   UNL     1       6.373   0.830   1.743  0.00  0.00    +0.137 C 
ATOM      3  C   UNL     1       7.050   2.124   2.215  0.00  0.00    +0.130 C 
ATOM      4  C   UNL     1       6.137   3.262   1.747  0.00  0.00    +0.062 C 
ATOM      5  C   UNL     1       4.790   2.618   1.424  0.00  0.00    +0.196 C 
ENDROOT
BRANCH   5   6
ATOM      6  N   UNL     1       4.050   2.490   2.687  0.00  0.00    -0.110 NA
ATOM      7  C   UNL     1       2.773   2.429   2.653  0.00  0.00    +0.377 C 
ATOM      8  N   UNL     1       2.077   2.311   3.803  0.00  0.00    -0.289 N 
ATOM      9  H   UNL     1       1.265   2.915   3.828  0.00  0.00    +0.255 HD
ATOM     10  H   UNL     1       2.682   2.490   4.599  0.00  0.00    +0.255 HD
ATOM     11  N   UNL     1       1.922   2.463   1.605  0.00  0.00    -0.289 N 
ATOM     12  H   UNL     1       1.133   1.835   1.710  0.00  0.00    +0.255 HD
ATOM     13  H   UNL     1       2.341   2.378   0.687  0.00  0.00    +0.255 HD
ENDBRANCH   5   6
BRANCH   2  14
ATOM     14  O   UNL     1       7.269  -0.108   1.177  0.00  0.00    -0.391 OA
ATOM     15  H   UNL     1       7.680   0.274   0.379  0.00  0.00    +0.210 HD
ENDBRANCH   2  14
BRANCH   3  16
ATOM     16  C   UNL     1       8.477   2.290   1.736  0.00  0.00    +0.310 C 
ATOM     17  O   UNL     1       8.886   3.223   1.066  0.00  0.00    -0.251 OA
BRANCH  16  18
ATOM     18  O   UNL     1       9.290   1.272   2.106  0.00  0.00    -0.480 OA
ATOM     19  H   UNL     1       8.796   0.514   2.491  0.00  0.00    +0.295 HD
ENDBRANCH  16  18
ENDBRANCH   3  16
BRANCH   1  20
ATOM     20  C   UNL     1       5.167   1.079  -0.651  0.00  0.00    +0.085 C 
BRANCH  20  21
ATOM     21  N   UNL     1       6.028   2.086  -1.272  0.00  0.00    -0.312 N 
ATOM     22  H   UNL     1       7.036   2.007  -1.209  0.00  0.00    +0.149 HD
ATOM     23  C   UNL     1       5.498   3.184  -1.928  0.00  0.00    +0.210 C 
ATOM     24  C   UNL     1       6.518   4.170  -2.429  0.00  0.00    +0.109 C 
ATOM     25  O   UNL     1       4.294   3.371  -2.071  0.00  0.00    -0.276 OA
ENDBRANCH  20  21
BRANCH  20  26
ATOM     26  C   UNL     1       5.459  -0.357  -1.211  0.00  0.00    +0.009 C 
BRANCH  26  28
ATOM     27  C   UNL     1       4.840  -2.858  -0.943  0.00  0.00    +0.004 C 
ATOM     28  C   UNL     1       4.577  -1.423  -0.511  0.00  0.00    +0.002 C 
ENDBRANCH  26  28
BRANCH  26  29
ATOM     29  C   UNL     1       5.374  -0.434  -2.757  0.00  0.00    +0.002 C 
ATOM     30  C   UNL     1       4.013  -0.133  -3.364  0.00  0.00    +0.004 C 
ENDBRANCH  26  29
ENDBRANCH  20  26
ENDBRANCH   1  20
TORSDOF 9
