REMARK  Name = 
REMARK  11 active torsions:
REMARK  status: ('A' for Active; 'I' for Inactive)
REMARK    1  A    between atoms: C_1  and  C_2
REMARK    2  A    between atoms: N_4  and  C_5
REMARK    3  A    between atoms: C_6  and  C_19
REMARK    4  A    between atoms: C_9  and  C_16
REMARK    5  A    between atoms: C_11  and  N_12
REMARK    6  A    between atoms: C_16  and  O_18
REMARK    7  A    between atoms: C_19  and  C_20
REMARK    8  A    between atoms: C_19  and  O_24
REMARK    9  A    between atoms: C_20  and  C_21
REMARK   10  A    between atoms: C_20  and  O_23
REMARK   11  A    between atoms: C_21  and  O_22
REMARK                            x       y       z     vdW  Elec       q    Type
REMARK                         _______ _______ _______ _____ _____    ______ ____
ROOT
ATOM      1  C   UNL     1       4.424   0.797  -0.793  0.00  0.00    +0.160 C 
ATOM      2  C   UNL     1       4.830   1.369  -2.183  0.00  0.00    +0.238 C 
ATOM      3  C   UNL     1       5.660   2.600  -2.114  0.00  0.00    +0.071 C 
ATOM      4  C   UNL     1       6.169   3.088  -0.980  0.00  0.00    +0.204 C 
ATOM      5  O   UNL     1       5.964   2.549   0.253  0.00  0.00    -0.477 OA
ATOM      6  C   UNL     1       5.235   1.334   0.419  0.00  0.00    +0.229 C 
ENDROOT
BRANCH   2   7
ATOM      7  N   UNL     1       3.616   1.694  -2.947  0.00  0.00    -0.104 NA
ATOM      8  C   UNL     1       3.056   0.799  -3.669  0.00  0.00    +0.377 C 
ATOM      9  N   UNL     1       1.873   1.078  -4.257  0.00  0.00    -0.289 N 
ATOM     10  H   UNL     1       1.781   0.700  -5.191  0.00  0.00    +0.255 HD
ATOM     11  H   UNL     1       1.688   2.077  -4.248  0.00  0.00    +0.255 HD
ATOM     12  N   UNL     1       3.416  -0.475  -3.929  0.00  0.00    -0.289 N 
ATOM     13  H   UNL     1       2.632  -1.117  -3.965  0.00  0.00    +0.255 HD
ATOM     14  H   UNL     1       4.178  -0.860  -3.392  0.00  0.00    +0.255 HD
ENDBRANCH   2   7
BRANCH   1  17
ATOM     15  C   UNL     1       0.822   0.521   0.422  0.00  0.00    +0.109 C 
ATOM     16  C   UNL     1       2.307   0.319   0.455  0.00  0.00    +0.210 C 
ATOM     17  N   UNL     1       2.978   0.968  -0.548  0.00  0.00    -0.305 N 
ATOM     18  H   UNL     1       2.467   1.435  -1.294  0.00  0.00    +0.149 HD
ATOM     19  O   UNL     1       2.872  -0.350   1.315  0.00  0.00    -0.276 OA
ENDBRANCH   1  17
BRANCH   4  20
ATOM     20  C   UNL     1       7.059   4.290  -1.033  0.00  0.00    +0.372 C 
ATOM     21  O   UNL     1       7.349   4.916  -2.039  0.00  0.00    -0.242 OA
BRANCH  20  22
ATOM     22  O   UNL     1       7.553   4.565   0.197  0.00  0.00    -0.475 OA
ATOM     23  H   UNL     1       7.212   3.927   0.866  0.00  0.00    +0.296 HD
ENDBRANCH  20  22
ENDBRANCH   4  20
BRANCH   6  24
ATOM     24  C   UNL     1       6.156   0.247   1.037  0.00  0.00    +0.187 C 
BRANCH  24  25
ATOM     25  O   UNL     1       5.452  -0.967   1.303  0.00  0.00    -0.385 OA
ATOM     26  H   UNL     1       4.532  -0.754   1.592  0.00  0.00    +0.210 HD
ENDBRANCH  24  25
BRANCH  24  27
ATOM     27  C   UNL     1       6.852   0.743   2.327  0.00  0.00    +0.172 C 
BRANCH  27  28
ATOM     28  O   UNL     1       7.761   1.829   2.053  0.00  0.00    -0.387 OA
ATOM     29  H   UNL     1       8.411   1.506   1.401  0.00  0.00    +0.210 HD
ENDBRANCH  27  28
BRANCH  27  30
ATOM     30  C   UNL     1       7.645  -0.367   3.031  0.00  0.00    +0.189 C 
BRANCH  30  31
ATOM     31  O   UNL     1       8.288   0.167   4.191  0.00  0.00    -0.392 OA
ATOM     32  H   UNL     1       8.523   1.090   3.974  0.00  0.00    +0.210 HD
ENDBRANCH  30  31
ENDBRANCH  27  30
ENDBRANCH  24  27
ENDBRANCH   6  24
TORSDOF 10
