REMARK  Name = 
REMARK  12 active torsions:
REMARK  status: ('A' for Active; 'I' for Inactive)
REMARK    1  A    between atoms: C_1  and  C_2
REMARK    2  A    between atoms: C_2  and  C_3
REMARK    3  A    between atoms: C_3  and  C_4
REMARK    4  A    between atoms: C_3  and  C_6
REMARK    5  A    between atoms: C_4  and  C_5
REMARK    6  A    between atoms: C_6  and  C_7
REMARK    7  A    between atoms: C_6  and  N_21
REMARK    8  A    between atoms: C_9  and  N_17
REMARK    9  A    between atoms: C_11  and  C_14
REMARK   10  A    between atoms: C_12  and  O_13
REMARK   11  A    between atoms: C_14  and  O_16
REMARK   12  A    between atoms: C_22  and  C_24
REMARK                            x       y       z     vdW  Elec       q    Type
REMARK                         _______ _______ _______ _____ _____    ______ ____
ROOT
ATOM      1  C   UNL     1       5.052  -1.374  -0.423  0.00  0.00    +0.079 C 
ATOM      2  C   UNL     1       4.556  -0.984  -1.831  0.00  0.00    +0.137 C 
ATOM      3  C   UNL     1       4.985  -2.110  -2.795  0.00  0.00    +0.130 C 
ATOM      4  C   UNL     1       5.429  -3.277  -1.904  0.00  0.00    +0.062 C 
ATOM      5  C   UNL     1       4.954  -2.918  -0.497  0.00  0.00    +0.196 C 
ENDROOT
BRANCH   5   6
ATOM      6  N   UNL     1       3.544  -3.327  -0.468  0.00  0.00    -0.110 NA
ATOM      7  C   UNL     1       2.952  -3.595   0.632  0.00  0.00    +0.377 C 
ATOM      8  N   UNL     1       1.665  -3.998   0.609  0.00  0.00    -0.289 N 
ATOM      9  H   UNL     1       1.500  -4.806   1.197  0.00  0.00    +0.255 HD
ATOM     10  H   UNL     1       1.379  -4.191  -0.348  0.00  0.00    +0.255 HD
ATOM     11  N   UNL     1       3.408  -3.548   1.898  0.00  0.00    -0.289 N 
ATOM     12  H   UNL     1       2.691  -3.280   2.562  0.00  0.00    +0.255 HD
ATOM     13  H   UNL     1       4.251  -3.003   2.027  0.00  0.00    +0.255 HD
ENDBRANCH   5   6
BRANCH   2  14
ATOM     14  O   UNL     1       4.840   0.333  -2.251  0.00  0.00    -0.391 OA
ATOM     15  H   UNL     1       5.753   0.368  -2.598  0.00  0.00    +0.210 HD
ENDBRANCH   2  14
BRANCH   3  16
ATOM     16  C   UNL     1       6.106  -1.734  -3.726  0.00  0.00    +0.310 C 
ATOM     17  O   UNL     1       6.954  -0.889  -3.464  0.00  0.00    -0.251 OA
BRANCH  16  18
ATOM     18  O   UNL     1       6.134  -2.463  -4.862  0.00  0.00    -0.480 OA
ATOM     19  H   UNL     1       5.407  -3.112  -4.938  0.00  0.00    +0.295 HD
ENDBRANCH  16  18
ENDBRANCH   3  16
BRANCH   1  20
ATOM     20  C   UNL     1       6.442  -0.837   0.074  0.00  0.00    +0.085 C 
BRANCH  20  21
ATOM     21  N   UNL     1       7.542  -1.342  -0.747  0.00  0.00    -0.312 N 
ATOM     22  H   UNL     1       7.643  -0.985  -1.698  0.00  0.00    +0.149 HD
ATOM     23  C   UNL     1       8.439  -2.290  -0.302  0.00  0.00    +0.210 C 
ATOM     24  C   UNL     1       9.393  -2.770  -1.363  0.00  0.00    +0.109 C 
ATOM     25  O   UNL     1       8.424  -2.768   0.827  0.00  0.00    -0.276 OA
ENDBRANCH  20  21
BRANCH  20  26
ATOM     26  C   UNL     1       6.568   0.719   0.238  0.00  0.00    +0.009 C 
BRANCH  26  28
ATOM     27  C   UNL     1       5.448   2.839   1.184  0.00  0.00    +0.004 C 
ATOM     28  C   UNL     1       5.406   1.319   1.067  0.00  0.00    +0.002 C 
ENDBRANCH  26  28
BRANCH  26  29
ATOM     29  C   UNL     1       7.958   1.164   0.773  0.00  0.00    +0.002 C 
ATOM     30  C   UNL     1       8.293   0.743   2.197  0.00  0.00    +0.004 C 
ENDBRANCH  26  29
ENDBRANCH  20  26
ENDBRANCH   1  20
TORSDOF 9
