REMARK  Name = 
REMARK  185 active torsions:
REMARK  status: ('A' for Active; 'I' for Inactive)
REMARK    1  A    between atoms: CD1_1  and  CG1_2
REMARK    2  A    between atoms: CG1_2  and  CB_3
REMARK    3  A    between atoms: CB_3  and  CG2_4
REMARK    4  A    between atoms: CB_3  and  CA_5
REMARK    5  A    between atoms: CA_5  and  C_6
REMARK    6  A    between atoms: CA_5  and  N_251
REMARK    7  A    between atoms: N_8  and  CA_9
REMARK    8  A    between atoms: CA_9  and  CB_10
REMARK    9  A    between atoms: CA_9  and  C_15
REMARK   10  A    between atoms: CB_10  and  CG_11
REMARK   11  A    between atoms: CG_11  and  CD_12
REMARK   12  A    between atoms: CD_12  and  OE2_14
REMARK   13  A    between atoms: N_17  and  CA_18
REMARK   14  A    between atoms: CA_18  and  CB_19
REMARK   15  A    between atoms: CA_18  and  C_24
REMARK   16  A    between atoms: CB_19  and  CG_20
REMARK   17  A    between atoms: CG_20  and  CD_21
REMARK   18  A    between atoms: CD_21  and  OE2_23
REMARK   19  A    between atoms: N_26  and  CA_27
REMARK   20  A    between atoms: CA_27  and  CB_28
REMARK   21  A    between atoms: CA_27  and  C_30
REMARK   22  A    between atoms: CB_28  and  OG_29
REMARK   23  A    between atoms: N_32  and  CA_33
REMARK   24  A    between atoms: CA_33  and  CB_34
REMARK   25  A    between atoms: CA_33  and  C_39
REMARK   26  A    between atoms: CB_34  and  CG_35
REMARK   27  A    between atoms: CG_35  and  CD_36
REMARK   28  A    between atoms: N_41  and  CA_42
REMARK   29  A    between atoms: CA_42  and  CB_43
REMARK   30  A    between atoms: CA_42  and  C_47
REMARK   31  A    between atoms: CB_43  and  CG_44
REMARK   32  A    between atoms: N_49  and  CA_50
REMARK   33  A    between atoms: CA_50  and  CB_51
REMARK   34  A    between atoms: CA_50  and  C_56
REMARK   35  A    between atoms: CB_51  and  CG_52
REMARK   36  A    between atoms: CG_52  and  CD_53
REMARK   37  A    between atoms: N_58  and  CA_59
REMARK   38  A    between atoms: CA_59  and  CB_60
REMARK   39  A    between atoms: CA_59  and  C_65
REMARK   40  A    between atoms: CB_60  and  CG_61
REMARK   41  A    between atoms: CG_61  and  CD_62
REMARK   42  A    between atoms: N_67  and  CA_68
REMARK   43  A    between atoms: CA_68  and  CB_69
REMARK   44  A    between atoms: CA_68  and  C_74
REMARK   45  A    between atoms: CB_69  and  CG_70
REMARK   46  A    between atoms: CG_70  and  CD_71
REMARK   47  A    between atoms: CD_71  and  OE2_73
REMARK   48  A    between atoms: N_76  and  CA_77
REMARK   49  A    between atoms: CA_77  and  CB_78
REMARK   50  A    between atoms: CA_77  and  C_83
REMARK   51  A    between atoms: CB_78  and  CG_79
REMARK   52  A    between atoms: CG_79  and  CD_80
REMARK   53  A    between atoms: CD_80  and  CE_81
REMARK   54  A    between atoms: CE_81  and  NZ_82
REMARK   55  A    between atoms: N_85  and  CA_86
REMARK   56  A    between atoms: CA_86  and  CB_87
REMARK   57  A    between atoms: CA_86  and  C_91
REMARK   58  A    between atoms: CB_87  and  CG_88
REMARK   59  A    between atoms: N_93  and  CA_94
REMARK   60  A    between atoms: CA_94  and  CB_95
REMARK   61  A    between atoms: CA_94  and  C_100
REMARK   62  A    between atoms: CB_95  and  CG_96
REMARK   63  A    between atoms: CG_96  and  CD_97
REMARK   64  A    between atoms: CD_97  and  OE2_99
REMARK   65  A    between atoms: N_102  and  CA_103
REMARK   66  A    between atoms: CA_103  and  CB_104
REMARK   67  A    between atoms: CA_103  and  C_109
REMARK   68  A    between atoms: CB_104  and  CG_105
REMARK   69  A    between atoms: CG_105  and  CD_106
REMARK   70  A    between atoms: N_111  and  CA_112
REMARK   71  A    between atoms: CA_112  and  CB_113
REMARK   72  A    between atoms: CA_112  and  C_118
REMARK   73  A    between atoms: CB_113  and  CG_114
REMARK   74  A    between atoms: CG_114  and  CD_115
REMARK   75  A    between atoms: CD_115  and  OE2_117
REMARK   76  A    between atoms: N_120  and  CA_121
REMARK   77  A    between atoms: CA_121  and  CB_122
REMARK   78  A    between atoms: CA_121  and  C_126
REMARK   79  A    between atoms: CB_122  and  CG_123
REMARK   80  A    between atoms: CG_123  and  CD1_124
REMARK   81  A    between atoms: CG_123  and  CD2_125
REMARK   82  A    between atoms: N_128  and  CA_129
REMARK   83  A    between atoms: CA_129  and  CB_130
REMARK   84  A    between atoms: CA_129  and  C_134
REMARK   85  A    between atoms: CB_130  and  CG_131
REMARK   86  A    between atoms: CG_131  and  CD1_132
REMARK   87  A    between atoms: CG_131  and  CD2_133
REMARK   88  A    between atoms: N_136  and  CA_137
REMARK   89  A    between atoms: CA_137  and  CB_138
REMARK   90  A    between atoms: CA_137  and  C_143
REMARK   91  A    between atoms: CB_138  and  CG_139
REMARK   92  A    between atoms: CG_139  and  CD_140
REMARK   93  A    between atoms: CD_140  and  OE2_142
REMARK   94  A    between atoms: N_145  and  CA_146
REMARK   95  A    between atoms: CA_146  and  CB_147
REMARK   96  A    between atoms: CA_146  and  C_151
REMARK   97  A    between atoms: CB_147  and  CG_148
REMARK   98  A    between atoms: CG_148  and  CD1_149
REMARK   99  A    between atoms: CG_148  and  CD2_150
REMARK  100  A    between atoms: N_153  and  CA_154
REMARK  101  A    between atoms: CA_154  and  CB_155
REMARK  102  A    between atoms: CA_154  and  C_159
REMARK  103  A    between atoms: CB_155  and  CG_156
REMARK  104  A    between atoms: CG_156  and  OD2_158
REMARK  105  A    between atoms: N_161  and  CA_162
REMARK  106  A    between atoms: CA_162  and  CB_163
REMARK  107  A    between atoms: CA_162  and  C_168
REMARK  108  A    between atoms: CB_163  and  CG_164
REMARK  109  A    between atoms: CG_164  and  CD_165
REMARK  110  A    between atoms: CD_165  and  CE_166
REMARK  111  A    between atoms: CE_166  and  NZ_167
REMARK  112  A    between atoms: N_170  and  CA_171
REMARK  113  A    between atoms: CA_171  and  CB_172
REMARK  114  A    between atoms: CA_171  and  C_182
REMARK  115  A    between atoms: CB_172  and  CG_173
REMARK  116  A    between atoms: N_184  and  CA_185
REMARK  117  A    between atoms: CA_185  and  CB_186
REMARK  118  A    between atoms: CA_185  and  C_187
REMARK  119  A    between atoms: N_189  and  C_190
REMARK  120  A    between atoms: C_190  and  C_191
REMARK  121  A    between atoms: C_190  and  C_193
REMARK  122  A    between atoms: C_191  and  O_192
REMARK  123  A    between atoms: N_195  and  C_196
REMARK  124  A    between atoms: C_196  and  C_197
REMARK  125  A    between atoms: C_196  and  C_201
REMARK  126  A    between atoms: C_197  and  C_198
REMARK  127  A    between atoms: C_198  and  C_199
REMARK  128  A    between atoms: C_198  and  C_200
REMARK  129  A    between atoms: N_203  and  C_204
REMARK  130  A    between atoms: C_204  and  C_205
REMARK  131  A    between atoms: C_204  and  C_215
REMARK  132  A    between atoms: C_205  and  C_206
REMARK  133  A    between atoms: N_217  and  C_218
REMARK  134  A    between atoms: C_218  and  C_219
REMARK  135  A    between atoms: C_218  and  C_223
REMARK  136  A    between atoms: C_219  and  C_220
REMARK  137  A    between atoms: N_225  and  C_226
REMARK  138  A    between atoms: C_226  and  C_227
REMARK  139  A    between atoms: C_226  and  C_237
REMARK  140  A    between atoms: C_227  and  C_228
REMARK  141  A    between atoms: N_239  and  C_240
REMARK  142  A    between atoms: C_240  and  C_241
REMARK  143  A    between atoms: C_240  and  C_248
REMARK  144  A    between atoms: C_241  and  C_242
REMARK  145  A    between atoms: C_252  and  CA_254
REMARK  146  A    between atoms: CA_254  and  CB_255
REMARK  147  A    between atoms: CA_254  and  N_259
REMARK  148  A    between atoms: CB_255  and  CG_256
REMARK  149  A    between atoms: CG_256  and  CD1_257
REMARK  150  A    between atoms: CG_256  and  CD2_258
REMARK  151  A    between atoms: C_260  and  CA_262
REMARK  152  A    between atoms: CA_262  and  CB_263
REMARK  153  A    between atoms: CA_262  and  N_265
REMARK  154  A    between atoms: CB_263  and  O_264
REMARK  155  A    between atoms: C_266  and  CA_268
REMARK  156  A    between atoms: CA_268  and  CB_269
REMARK  157  A    between atoms: CA_268  and  N_275
REMARK  158  A    between atoms: CB_269  and  CG_270
REMARK  159  A    between atoms: C_276  and  CA_278
REMARK  160  A    between atoms: CA_278  and  CB_279
REMARK  161  A    between atoms: CA_278  and  N_283
REMARK  162  A    between atoms: CB_279  and  CG2_280
REMARK  163  A    between atoms: CB_279  and  CG1_281
REMARK  164  A    between atoms: CG1_281  and  CD1_282
REMARK  165  A    between atoms: C_284  and  CA_286
REMARK  166  A    between atoms: CA_286  and  CB_287
REMARK  167  A    between atoms: CA_286  and  N_291
REMARK  168  A    between atoms: CB_287  and  CG_288
REMARK  169  A    between atoms: CG_288  and  CD1_289
REMARK  170  A    between atoms: CG_288  and  CD2_290
REMARK  171  A    between atoms: C_292  and  CA_294
REMARK  172  A    between atoms: CA_294  and  CB_295
REMARK  173  A    between atoms: CA_294  and  N_297
REMARK  174  A    between atoms: CB_295  and  O_296
REMARK  175  A    between atoms: C_298  and  CA_300
REMARK  176  A    between atoms: CA_300  and  CB_301
REMARK  177  A    between atoms: CA_300  and  N_304
REMARK  178  A    between atoms: CB_301  and  CG2_302
REMARK  179  A    between atoms: CB_301  and  OG1_303
REMARK  180  A    between atoms: C_305  and  CA_307
REMARK  181  A    between atoms: CA_307  and  CB_308
REMARK  182  A    between atoms: CA_307  and  N_316
REMARK  183  A    between atoms: CB_308  and  CG_309
REMARK  184  A    between atoms: CZ_312  and  OH_315
REMARK  185  A    between atoms: C_317  and  C_319
REMARK                            x       y       z     vdW  Elec       q    Type
REMARK                         _______ _______ _______ _____ _____    ______ ____
ROOT
ATOM      1  CA  ASN A  11       4.333  11.289  35.035  0.00  0.00    +0.168 C 
ENDROOT
BRANCH   1   3
ATOM      2  C   LYS A  10       4.952  10.187  32.874  0.00  0.00    +0.234 C 
ATOM      3  N   ASN A  11       4.660  10.154  34.209  0.00  0.00    -0.302 N 
ATOM      4  H   ASN A  11       4.208   9.312  34.521  0.00  0.00    +0.150 HD
ATOM      5  O   LYS A  10       4.776  11.220  32.241  0.00  0.00    -0.274 OA
BRANCH   2   6
ATOM      6  CA  LYS A  10       5.454   8.829  32.206  0.00  0.00    +0.159 C 
BRANCH   6   8
ATOM      7  C   GLU A   9       6.860   8.467  30.231  0.00  0.00    +0.234 C 
ATOM      8  N   LYS A  10       5.843   9.107  30.881  0.00  0.00    -0.302 N 
ATOM      9  H   LYS A  10       5.693  10.067  30.836  0.00  0.00    +0.150 HD
ATOM     10  O   GLU A   9       6.962   7.256  30.437  0.00  0.00    -0.274 OA
BRANCH   7  11
ATOM     11  CA  GLU A   9       7.744   9.213  29.073  0.00  0.00    +0.159 C 
BRANCH  11  13
ATOM     12  C   GLN A   8       8.670  12.037  28.148  0.00  0.00    +0.234 C 
ATOM     13  N   GLU A   9       7.929  10.888  28.450  0.00  0.00    -0.302 N 
ATOM     14  H   GLU A   9       7.054  11.201  28.099  0.00  0.00    +0.150 HD
ATOM     15  O   GLN A   8       9.896  11.949  28.236  0.00  0.00    -0.274 OA
BRANCH  12  16
ATOM     16  CA  GLN A   8       7.873  13.645  27.847  0.00  0.00    +0.159 C 
BRANCH  16  18
ATOM     17  C   GLN A   7       9.947  14.939  28.106  0.00  0.00    +0.234 C 
ATOM     18  N   GLN A   8       9.011  14.340  27.301  0.00  0.00    -0.302 N 
ATOM     19  H   GLN A   8       9.348  14.012  26.411  0.00  0.00    +0.150 HD
ATOM     20  O   GLN A   7       9.695  15.308  29.251  0.00  0.00    -0.274 OA
BRANCH  17  21
ATOM     21  CA  GLN A   7      11.273  15.273  27.402  0.00  0.00    +0.159 C 
BRANCH  21  23
ATOM     22  C   ASN A   6      10.973  14.272  25.079  0.00  0.00    +0.234 C 
ATOM     23  N   GLN A   7      11.624  14.342  26.289  0.00  0.00    -0.302 N 
ATOM     24  H   GLN A   7      12.413  13.728  26.450  0.00  0.00    +0.150 HD
ATOM     25  O   ASN A   6       9.963  14.946  24.868  0.00  0.00    -0.274 OA
BRANCH  22  26
ATOM     26  CA  ASN A   6      11.544  13.297  24.022  0.00  0.00    +0.168 C 
BRANCH  26  28
ATOM     27  C   GLN A   5      10.820  10.972  24.544  0.00  0.00    +0.234 C 
ATOM     28  N   ASN A   6      11.792  11.943  24.593  0.00  0.00    -0.302 N 
ATOM     29  H   ASN A   6      12.729  11.701  24.911  0.00  0.00    +0.150 HD
ATOM     30  O   GLN A   5       9.748  11.253  24.022  0.00  0.00    -0.274 OA
BRANCH  27  31
ATOM     31  CA  GLN A   5      11.140   9.526  25.037  0.00  0.00    +0.159 C 
BRANCH  31  33
ATOM     32  C   SER A   4       9.057   8.187  24.641  0.00  0.00    +0.236 C 
ATOM     33  N   GLN A   5      10.040   8.677  25.491  0.00  0.00    -0.302 N 
ATOM     34  H   GLN A   5      10.142   8.307  26.421  0.00  0.00    +0.150 HD
ATOM     35  O   SER A   4       8.949   8.510  23.459  0.00  0.00    -0.274 OA
BRANCH  32  36
ATOM     36  CA  SER A   4       7.946   7.405  25.339  0.00  0.00    +0.184 C 
BRANCH  36  38
ATOM     37  C   GLU A   3       5.939   8.984  27.124  0.00  0.00    +0.234 C 
ATOM     38  N   SER A   4       6.834   8.573  25.971  0.00  0.00    -0.301 N 
ATOM     39  H   SER A   4       6.779   9.125  25.140  0.00  0.00    +0.150 HD
ATOM     40  O   GLU A   3       5.717   8.136  27.996  0.00  0.00    -0.274 OA
BRANCH  37  41
ATOM     41  CA  GLU A   3       5.069  10.612  27.627  0.00  0.00    +0.159 C 
BRANCH  41  43
ATOM     42  C   GLU A   2       2.294  11.105  26.716  0.00  0.00    +0.234 C 
ATOM     43  N   GLU A   3       3.382  10.812  27.589  0.00  0.00    -0.302 N 
ATOM     44  H   GLU A   3       3.148   9.877  27.808  0.00  0.00    +0.150 HD
ATOM     45  O   GLU A   2       2.422  11.275  25.503  0.00  0.00    -0.274 OA
BRANCH  42  46
ATOM     46  CA  GLU A   2       0.726  10.918  27.238  0.00  0.00    +0.159 C 
BRANCH  46  48
ATOM     47  C   TYR A   1      -0.944  10.065  25.417  0.00  0.00    +0.234 C 
ATOM     48  N   GLU A   2      -0.143  11.112  26.047  0.00  0.00    -0.302 N 
ATOM     49  H   GLU A   2       0.195  11.857  25.446  0.00  0.00    +0.150 HD
ATOM     50  O   TYR A   1      -1.323   8.977  25.838  0.00  0.00    -0.274 OA
BRANCH  47  51
ATOM     51  CA  TYR A   1      -1.392  10.499  24.117  0.00  0.00    +0.162 C 
BRANCH  51  52
ATOM     52  N   TYR A   1       0.215  10.804  23.456  0.00  0.00    -0.302 N 
ATOM     53  H   TYR A   1       0.589  11.704  23.753  0.00  0.00    +0.150 HD
ATOM     54  C   TYR A   1       1.070  10.284  22.464  0.00  0.00    +0.234 C 
ATOM     55  O   TYR A   1       0.865   9.145  22.091  0.00  0.00    -0.274 OA
BRANCH  54  56
ATOM     56  CA  TYR A   1       1.934  11.113  21.393  0.00  0.00    +0.159 C 
BRANCH  56  57
ATOM     57  N   TYR A   1       2.794  10.234  20.615  0.00  0.00    -0.302 N 
ATOM     58  H   TYR A   1       3.483  10.743  20.092  0.00  0.00    +0.150 HD
ATOM     59  C   TYR A   1       2.309   9.156  19.866  0.00  0.00    +0.236 C 
ATOM     60  O   TYR A   1       1.163   9.030  19.450  0.00  0.00    -0.274 OA
BRANCH  59  61
ATOM     61  CA  TYR A   1       3.398   8.128  19.569  0.00  0.00    +0.184 C 
BRANCH  61  62
ATOM     62  N   TYR A   1       3.821   7.455  20.785  0.00  0.00    -0.301 N 
ATOM     63  H   TYR A   1       4.662   6.913  20.652  0.00  0.00    +0.150 HD
ATOM     64  C   TYR A   1       2.939   6.960  21.739  0.00  0.00    +0.234 C 
ATOM     65  O   TYR A   1       1.725   7.088  21.761  0.00  0.00    -0.274 OA
BRANCH  64  66
ATOM     66  CA  TYR A   1       3.589   6.313  22.942  0.00  0.00    +0.165 C 
BRANCH  66  67
ATOM     67  N   TYR A   1       3.681   7.296  24.003  0.00  0.00    -0.302 N 
ATOM     68  H   TYR A   1       3.831   6.903  24.935  0.00  0.00    +0.150 HD
ATOM     69  C   TYR A   1       3.980   8.639  23.839  0.00  0.00    +0.234 C 
ATOM     70  O   TYR A   1       4.188   9.227  22.788  0.00  0.00    -0.274 OA
BRANCH  69  71
ATOM     71  CA  TYR A   1       4.412   9.234  25.161  0.00  0.00    +0.162 C 
BRANCH  71  72
ATOM     72  N   TYR A   1       3.475   8.770  26.535  0.00  0.00    -0.302 N 
ATOM     73  H   TYR A   1       2.520   8.816  26.201  0.00  0.00    +0.150 HD
ATOM     74  C   TYR A   1       3.542   7.784  27.590  0.00  0.00    +0.234 C 
ATOM     75  O   TYR A   1       3.983   6.654  27.393  0.00  0.00    -0.274 OA
BRANCH  74  76
ATOM     76  CA  TYR A   1       2.874   7.868  29.103  0.00  0.00    +0.159 C 
BRANCH  76  77
ATOM     77  N   TYR A   1       1.758   6.680  28.884  0.00  0.00    -0.302 N 
ATOM     78  H   TYR A   1       1.263   6.424  29.735  0.00  0.00    +0.150 HD
ATOM     79  C   TYR A   1       1.252   6.253  27.586  0.00  0.00    +0.236 C 
ATOM     80  O   TYR A   1       1.907   6.358  26.540  0.00  0.00    -0.274 OA
BRANCH  79  81
ATOM     81  CA  TYR A   1      -0.253   5.823  27.275  0.00  0.00    +0.184 C 
BRANCH  81  82
ATOM     82  N   TYR A   1      -0.708   6.537  25.978  0.00  0.00    -0.300 N 
ATOM     83  H   TYR A   1      -0.747   7.555  26.011  0.00  0.00    +0.150 HD
ATOM     84  C   TYR A   1      -0.534   6.089  24.652  0.00  0.00    +0.237 C 
ATOM     85  O   TYR A   1       0.007   4.998  24.448  0.00  0.00    -0.274 OA
BRANCH  84  86
ATOM     86  CA  TYR A   1      -1.373   6.875  23.428  0.00  0.00    +0.187 C 
BRANCH  86  87
ATOM     87  N   TYR A   1      -1.061   8.399  22.920  0.00  0.00    -0.300 N 
ATOM     88  H   TYR A   1      -0.057   8.524  23.035  0.00  0.00    +0.150 HD
ATOM     89  C   TYR A   1      -1.494   9.295  21.676  0.00  0.00    +0.234 C 
ATOM     90  O   TYR A   1      -2.061   8.685  20.754  0.00  0.00    -0.274 OA
BRANCH  89  91
ATOM     91  CA  TYR A   1      -1.431  11.255  21.654  0.00  0.00    +0.163 C 
BRANCH  91  92
ATOM     92  N   TYR A   1      -1.973  12.463  22.782  0.00  0.00    -0.304 N 
ATOM     93  H   TYR A   1      -2.956  12.691  22.737  0.00  0.00    +0.149 HD
ATOM     94  C   UNK A   0      -1.235  13.226  23.751  0.00  0.00    +0.211 C 
ATOM     95  C   UNK A   0      -1.993  13.674  25.039  0.00  0.00    +0.109 C 
ATOM     96  O   UNK A   0      -0.002  13.251  23.812  0.00  0.00    -0.276 OA
ENDBRANCH  91  92
BRANCH  91  97
ATOM     97  CB  TYR A   1      -1.493  12.024  20.281  0.00  0.00    +0.067 C 
BRANCH  97  98
ATOM     98  CG  TYR A   1      -0.941  13.488  20.411  0.00  0.00    -0.045 A 
ATOM     99  CD2 TYR A   1      -1.696  14.650  20.394  0.00  0.00    +0.007 A 
ATOM    100  CE2 TYR A   1      -1.099  15.926  20.630  0.00  0.00    +0.045 A 
ATOM    101  CZ  TYR A   1       0.208  16.047  21.069  0.00  0.00    +0.117 A 
ATOM    102  CE1 TYR A   1       0.920  14.908  21.205  0.00  0.00    +0.045 A 
ATOM    103  CD1 TYR A   1       0.391  13.728  20.688  0.00  0.00    +0.007 A 
BRANCH 101 104
ATOM    104  OH  TYR A   1       0.820  17.242  21.277  0.00  0.00    -0.507 OA
ATOM    105  HH  TYR A   1       1.782  17.087  21.350  0.00  0.00    +0.292 HD
ENDBRANCH 101 104
ENDBRANCH  97  98
ENDBRANCH  91  97
ENDBRANCH  89  91
ENDBRANCH  86  87
BRANCH  86 106
ATOM    106  CB  TYR A   1      -2.881   6.673  23.867  0.00  0.00    +0.141 C 
ATOM    107  CG2 TYR A   1      -3.475   5.281  23.906  0.00  0.00    +0.040 C 
BRANCH 106 108
ATOM    108  OG1 TYR A   1      -3.216   7.172  25.174  0.00  0.00    -0.390 OA
ATOM    109  HG1 TYR A   1      -2.482   7.023  25.791  0.00  0.00    +0.210 HD
ENDBRANCH 106 108
ENDBRANCH  86 106
ENDBRANCH  84  86
ENDBRANCH  81  82
BRANCH  81 110
ATOM    110  CB  TYR A   1      -1.311   5.922  28.421  0.00  0.00    +0.187 C 
BRANCH 110 111
ATOM    111  O   TYR A   1      -2.194   7.056  28.506  0.00  0.00    -0.393 OA
ATOM    112  H   TYR A   1      -1.917   7.821  27.973  0.00  0.00    +0.209 HD
ENDBRANCH 110 111
ENDBRANCH  81 110
ENDBRANCH  79  81
ENDBRANCH  76  77
BRANCH  76 113
ATOM    113  CB  TYR A   1       2.520   9.479  29.813  0.00  0.00    +0.034 C 
BRANCH 113 114
ATOM    114  CG  TYR A   1       1.799  10.198  30.993  0.00  0.00    -0.015 C 
ATOM    115  CD2 TYR A   1       2.047  11.757  30.976  0.00  0.00    +0.007 C 
ATOM    116  CD1 TYR A   1       2.097   9.517  32.277  0.00  0.00    +0.007 C 
ENDBRANCH 113 114
ENDBRANCH  76 113
ENDBRANCH  74  76
ENDBRANCH  71  72
BRANCH  71 117
ATOM    117  CB  TYR A   1       5.559  10.672  24.850  0.00  0.00    +0.015 C 
ATOM    118  CG2 TYR A   1       4.826  11.959  24.695  0.00  0.00    +0.010 C 
BRANCH 117 119
ATOM    119  CG1 TYR A   1       6.915  11.355  25.506  0.00  0.00    +0.002 C 
ATOM    120  CD1 TYR A   1       8.156  10.641  25.841  0.00  0.00    +0.004 C 
ENDBRANCH 117 119
ENDBRANCH  71 117
ENDBRANCH  69  71
ENDBRANCH  66  67
BRANCH  66 121
ATOM    121  CB  TYR A   1       4.811   5.495  22.524  0.00  0.00    +0.088 C 
BRANCH 121 122
ATOM    122  CG  TYR A   1       4.449   4.567  21.412  0.00  0.00    +0.061 A 
ATOM    123  ND1 TYR A   1       5.189   4.512  20.259  0.00  0.00    -0.241 NA
ATOM    124  CE1 TYR A   1       4.459   3.807  19.422  0.00  0.00    +0.196 A 
ATOM    125  NE2 TYR A   1       3.264   3.442  19.976  0.00  0.00    -0.351 N 
ATOM    126  HE2 TYR A   1       2.493   2.990  19.506  0.00  0.00    +0.166 HD
ATOM    127  CD2 TYR A   1       3.264   3.877  21.265  0.00  0.00    +0.107 A 
ENDBRANCH 121 122
ENDBRANCH  66 121
ENDBRANCH  64  66
ENDBRANCH  61  62
BRANCH  61 128
ATOM    128  CB  TYR A   1       4.566   8.929  18.959  0.00  0.00    +0.187 C 
BRANCH 128 129
ATOM    129  O   TYR A   1       5.636   8.118  18.502  0.00  0.00    -0.393 OA
ATOM    130  H   TYR A   1       6.178   7.918  19.286  0.00  0.00    +0.209 HD
ENDBRANCH 128 129
ENDBRANCH  61 128
ENDBRANCH  59  61
ENDBRANCH  56  57
BRANCH  56 131
ATOM    131  CB  TYR A   1       2.718  12.308  21.939  0.00  0.00    +0.034 C 
BRANCH 131 132
ATOM    132  CG  TYR A   1       3.818  13.130  21.151  0.00  0.00    -0.015 C 
ATOM    133  CD2 TYR A   1       4.433  14.229  22.057  0.00  0.00    +0.007 C 
ATOM    134  CD1 TYR A   1       3.483  13.797  19.802  0.00  0.00    +0.007 C 
ENDBRANCH 131 132
ENDBRANCH  56 131
ENDBRANCH  54  56
ENDBRANCH  51  52
BRANCH  51 135
ATOM    135  CB  TYR A   1      -3.033   9.966  23.555  0.00  0.00    +0.015 C 
ATOM    136  CG2 TYR A   1      -3.896  10.367  22.272  0.00  0.00    +0.010 C 
BRANCH 135 138
ATOM    137  CD1 TYR A   1      -5.181  10.614  24.890  0.00  0.00    +0.004 C 
ATOM    138  CG1 TYR A   1      -4.061   9.653  24.654  0.00  0.00    +0.002 C 
ENDBRANCH 135 138
ENDBRANCH  51 135
ENDBRANCH  47  51
ENDBRANCH  46  48
BRANCH  46 139
ATOM    139  CB  GLU A   2       0.119   9.622  27.600  0.00  0.00    +0.043 C 
BRANCH 139 140
ATOM    140  CG  GLU A   2       0.251   8.711  28.679  0.00  0.00    +0.123 C 
BRANCH 140 141
ATOM    141  CD  GLU A   2      -0.333   8.596  30.017  0.00  0.00    +0.305 C 
ATOM    142  OE1 GLU A   2       0.049   7.812  30.876  0.00  0.00    -0.251 OA
BRANCH 141 143
ATOM    143  OE2 GLU A   2      -1.477   9.267  30.080  0.00  0.00    -0.481 OA
ATOM    144  HE2 GLU A   2      -2.023   8.691  30.650  0.00  0.00    +0.295 HD
ENDBRANCH 141 143
ENDBRANCH 140 141
ENDBRANCH 139 140
ENDBRANCH  46 139
ENDBRANCH  42  46
ENDBRANCH  41  43
BRANCH  41 145
ATOM    145  CB  GLU A   3       5.429  11.385  29.225  0.00  0.00    +0.043 C 
BRANCH 145 146
ATOM    146  CG  GLU A   3       6.769  11.600  30.363  0.00  0.00    +0.123 C 
BRANCH 146 147
ATOM    147  CD  GLU A   3       7.436  12.851  30.664  0.00  0.00    +0.305 C 
ATOM    148  OE1 GLU A   3       6.829  13.892  30.875  0.00  0.00    -0.251 OA
BRANCH 147 149
ATOM    149  OE2 GLU A   3       8.798  12.797  30.705  0.00  0.00    -0.481 OA
ATOM    150  HE2 GLU A   3       9.254  12.010  30.339  0.00  0.00    +0.295 HD
ENDBRANCH 147 149
ENDBRANCH 146 147
ENDBRANCH 145 146
ENDBRANCH  41 145
ENDBRANCH  37  41
ENDBRANCH  36  38
BRANCH  36 151
ATOM    151  CB  SER A   4       7.593   6.362  24.209  0.00  0.00    +0.187 C 
BRANCH 151 152
ATOM    152  OG  SER A   4       7.289   5.032  24.654  0.00  0.00    -0.393 OA
ATOM    153  H   SER A   4       6.324   5.020  24.825  0.00  0.00    +0.209 HD
ENDBRANCH 151 152
ENDBRANCH  36 151
ENDBRANCH  32  36
ENDBRANCH  31  33
BRANCH  31 154
ATOM    154  CB  GLN A   5      11.783   8.726  23.920  0.00  0.00    +0.041 C 
BRANCH 154 155
ATOM    155  CG  GLN A   5      13.150   9.210  23.550  0.00  0.00    +0.098 C 
BRANCH 155 156
ATOM    156  CD  GLN A   5      14.008   9.216  24.781  0.00  0.00    +0.211 C 
ATOM    157  NE2 GLN A   5      14.237   7.990  25.329  0.00  0.00    -0.329 N 
ATOM    158 HE21 GLN A   5      14.794   7.930  26.171  0.00  0.00    +0.145 HD
ATOM    159 HE22 GLN A   5      13.850   7.134  24.950  0.00  0.00    +0.145 HD
ATOM    160  OE1 GLN A   5      14.353  10.262  25.320  0.00  0.00    -0.276 OA
ENDBRANCH 155 156
ENDBRANCH 154 155
ENDBRANCH  31 154
ENDBRANCH  27  31
ENDBRANCH  26  28
BRANCH  26 161
ATOM    161  CB  ASN A   6      10.605  13.314  22.798  0.00  0.00    +0.127 C 
BRANCH 161 162
ATOM    162  CG  ASN A   6      10.552  14.720  22.179  0.00  0.00    +0.213 C 
ATOM    163  ND2 ASN A   6       9.236  15.018  21.789  0.00  0.00    -0.329 N 
ATOM    164 HD21 ASN A   6       9.108  15.966  21.479  0.00  0.00    +0.145 HD
ATOM    165 HD22 ASN A   6       8.436  14.556  22.203  0.00  0.00    +0.145 HD
ATOM    166  OD1 ASN A   6      11.491  15.436  21.904  0.00  0.00    -0.276 OA
ENDBRANCH 161 162
ENDBRANCH  26 161
ENDBRANCH  22  26
ENDBRANCH  21  23
BRANCH  21 167
ATOM    167  CB  GLN A   7      11.273  16.751  26.977  0.00  0.00    +0.041 C 
BRANCH 167 168
ATOM    168  CG  GLN A   7      10.885  17.751  28.076  0.00  0.00    +0.098 C 
BRANCH 168 169
ATOM    169  CD  GLN A   7      11.798  17.724  29.282  0.00  0.00    +0.211 C 
ATOM    170  NE2 GLN A   7      11.427  18.576  30.282  0.00  0.00    -0.329 N 
ATOM    171 HE21 GLN A   7      11.952  18.516  31.145  0.00  0.00    +0.145 HD
ATOM    172 HE22 GLN A   7      10.496  18.968  30.322  0.00  0.00    +0.145 HD
ATOM    173  OE1 GLN A   7      12.812  17.042  29.374  0.00  0.00    -0.276 OA
ENDBRANCH 168 169
ENDBRANCH 167 168
ENDBRANCH  21 167
ENDBRANCH  17  21
ENDBRANCH  16  18
BRANCH  16 174
ATOM    174  CB  GLN A   8       6.636  14.260  27.054  0.00  0.00    +0.041 C 
BRANCH 174 175
ATOM    175  CG  GLN A   8       5.237  14.035  27.620  0.00  0.00    +0.098 C 
BRANCH 175 176
ATOM    176  CD  GLN A   8       4.037  14.680  26.871  0.00  0.00    +0.211 C 
ATOM    177  NE2 GLN A   8       4.058  16.028  26.798  0.00  0.00    -0.329 N 
ATOM    178 HE21 GLN A   8       3.204  16.447  26.451  0.00  0.00    +0.145 HD
ATOM    179 HE22 GLN A   8       4.560  16.516  27.520  0.00  0.00    +0.145 HD
ATOM    180  OE1 GLN A   8       3.090  14.035  26.418  0.00  0.00    -0.276 OA
ENDBRANCH 175 176
ENDBRANCH 174 175
ENDBRANCH  16 174
ENDBRANCH  12  16
ENDBRANCH  11  13
BRANCH  11 181
ATOM    181  CB  GLU A   9       8.196   7.820  28.250  0.00  0.00    +0.043 C 
BRANCH 181 182
ATOM    182  CG  GLU A   9       7.252   6.341  27.860  0.00  0.00    +0.123 C 
BRANCH 182 183
ATOM    183  CD  GLU A   9       6.051   5.924  26.729  0.00  0.00    +0.305 C 
ATOM    184  OE1 GLU A   9       5.651   6.296  25.689  0.00  0.00    -0.251 OA
BRANCH 183 185
ATOM    185  OE2 GLU A   9       5.404   4.814  27.282  0.00  0.00    -0.481 OA
ATOM    186  HE2 GLU A   9       4.476   5.149  27.156  0.00  0.00    +0.295 HD
ENDBRANCH 183 185
ENDBRANCH 182 183
ENDBRANCH 181 182
ENDBRANCH  11 181
ENDBRANCH   7  11
ENDBRANCH   6   8
BRANCH   6 187
ATOM    187  CB  LYS A  10       6.687   8.378  32.902  0.00  0.00    +0.032 C 
BRANCH 187 188
ATOM    188  CG  LYS A  10       6.104   7.827  34.136  0.00  0.00    +0.003 C 
BRANCH 188 189
ATOM    189  CD  LYS A  10       7.171   7.412  35.007  0.00  0.00    +0.015 C 
BRANCH 189 190
ATOM    190  CE  LYS A  10       6.482   7.005  36.400  0.00  0.00    +0.077 C 
BRANCH 190 191
ATOM    191  NZ  LYS A  10       7.078   6.328  37.564  0.00  0.00    -0.330 NA
ATOM    192  HZ1 LYS A  10       6.858   6.802  38.441  0.00  0.00    +0.118 HD
ATOM    193  HZ2 LYS A  10       8.100   6.413  37.619  0.00  0.00    +0.118 HD
ENDBRANCH 190 191
ENDBRANCH 189 190
ENDBRANCH 188 189
ENDBRANCH 187 188
ENDBRANCH   6 187
ENDBRANCH   2   6
ENDBRANCH   1   3
BRANCH   1 194
ATOM    194  C   ASN A  11       4.942  11.015  36.441  0.00  0.00    +0.234 C 
ATOM    195  N   GLU A  12       6.177  10.313  36.482  0.00  0.00    -0.302 N 
ATOM    196  H   GLU A  12       6.669  10.259  35.603  0.00  0.00    +0.150 HD
ATOM    197  O   ASN A  11       4.362  11.484  37.417  0.00  0.00    -0.274 OA
BRANCH 195 198
ATOM    198  CA  GLU A  12       6.941   9.885  37.736  0.00  0.00    +0.159 C 
BRANCH 198 199
ATOM    199  C   GLU A  12       8.279   8.710  37.743  0.00  0.00    +0.234 C 
ATOM    200  N   GLN A  13       8.895   8.193  36.568  0.00  0.00    -0.302 N 
ATOM    201  H   GLN A  13       9.109   8.937  35.903  0.00  0.00    +0.150 HD
ATOM    202  O   GLU A  12       8.628   8.239  38.832  0.00  0.00    -0.274 OA
BRANCH 200 203
ATOM    203  CA  GLN A  13       9.443   6.634  35.952  0.00  0.00    +0.159 C 
BRANCH 203 204
ATOM    204  C   GLN A  13      10.085   6.866  34.535  0.00  0.00    +0.234 C 
ATOM    205  N   GLU A  14      10.623   5.725  33.958  0.00  0.00    -0.302 N 
ATOM    206  H   GLU A  14      10.780   4.895  34.527  0.00  0.00    +0.150 HD
ATOM    207  O   GLN A  13      10.005   7.955  33.966  0.00  0.00    -0.274 OA
BRANCH 205 208
ATOM    208  CA  GLU A  14      11.023   5.550  32.549  0.00  0.00    +0.159 C 
BRANCH 208 209
ATOM    209  C   GLU A  14      11.693   4.142  32.395  0.00  0.00    +0.234 C 
ATOM    210  N   LEU A  15      12.015   3.774  31.101  0.00  0.00    -0.302 N 
ATOM    211  H   LEU A  15      11.602   4.255  30.312  0.00  0.00    +0.150 HD
ATOM    212  O   GLU A  14      11.933   3.441  33.378  0.00  0.00    -0.274 OA
BRANCH 210 213
ATOM    213  CA  LEU A  15      12.868   2.620  30.734  0.00  0.00    +0.159 C 
BRANCH 213 214
ATOM    214  C   LEU A  15      13.330   2.779  29.230  0.00  0.00    +0.234 C 
ATOM    215  N   LEU A  16      14.434   2.038  28.844  0.00  0.00    -0.302 N 
ATOM    216  H   LEU A  16      14.903   1.461  29.533  0.00  0.00    +0.150 HD
ATOM    217  O   LEU A  15      12.725   3.529  28.459  0.00  0.00    -0.274 OA
BRANCH 215 218
ATOM    218  CA  LEU A  16      15.069   1.996  27.499  0.00  0.00    +0.159 C 
BRANCH 218 219
ATOM    219  C   LEU A  16      15.940   0.678  27.330  0.00  0.00    +0.234 C 
ATOM    220  N   GLU A  17      16.465   0.389  26.074  0.00  0.00    -0.302 N 
ATOM    221  H   GLU A  17      16.355   1.060  25.319  0.00  0.00    +0.150 HD
ATOM    222  O   LEU A  16      16.161  -0.045  28.304  0.00  0.00    -0.274 OA
BRANCH 220 223
ATOM    223  CA  GLU A  17      17.351  -0.789  25.756  0.00  0.00    +0.159 C 
BRANCH 223 224
ATOM    224  C   GLU A  17      17.886  -0.681  24.279  0.00  0.00    +0.234 C 
ATOM    225  N   LEU A  18      18.883  -1.593  23.937  0.00  0.00    -0.302 N 
ATOM    226  H   LEU A  18      19.381  -2.053  24.691  0.00  0.00    +0.150 HD
ATOM    227  O   GLU A  17      17.423   0.136  23.483  0.00  0.00    -0.274 OA
BRANCH 225 228
ATOM    228  CA  LEU A  18      19.438  -1.787  22.575  0.00  0.00    +0.159 C 
BRANCH 228 229
ATOM    229  C   LEU A  18      20.391  -3.048  22.579  0.00  0.00    +0.234 C 
ATOM    230  N   ASP A  19      19.863  -4.307  22.815  0.00  0.00    -0.302 N 
ATOM    231  H   ASP A  19      18.852  -4.410  22.837  0.00  0.00    +0.150 HD
ATOM    232  O   LEU A  18      21.611  -2.910  22.456  0.00  0.00    -0.274 OA
BRANCH 230 233
ATOM    233  CA  ASP A  19      20.651  -5.610  22.832  0.00  0.00    +0.169 C 
BRANCH 233 234
ATOM    234  C   ASP A  19      19.994  -6.678  23.783  0.00  0.00    +0.234 C 
ATOM    235  N   LYS A  20      20.531  -7.960  23.820  0.00  0.00    -0.302 N 
ATOM    236  H   LYS A  20      21.368  -8.185  23.291  0.00  0.00    +0.150 HD
ATOM    237  O   ASP A  19      19.028  -6.339  24.469  0.00  0.00    -0.274 OA
BRANCH 235 238
ATOM    238  CA  LYS A  20      20.155  -9.028  24.820  0.00  0.00    +0.159 C 
BRANCH 238 239
ATOM    239  C   LYS A  20      21.094 -10.297  24.663  0.00  0.00    +0.234 C 
ATOM    240  N   TRP A  21      20.880 -11.344  25.546  0.00  0.00    -0.302 N 
ATOM    241  H   TRP A  21      20.441 -11.147  26.438  0.00  0.00    +0.150 HD
ATOM    242  O   LYS A  20      21.934 -10.352  23.763  0.00  0.00    -0.274 OA
BRANCH 240 243
ATOM    243  CA  TRP A  21      21.464 -12.718  25.481  0.00  0.00    +0.163 C 
BRANCH 243 244
ATOM    244  C   TRP A  21      20.699 -13.715  26.449  0.00  0.00    +0.234 C 
ATOM    245  N   ALA A  22      21.101 -15.049  26.472  0.00  0.00    -0.303 N 
ATOM    246  H   ALA A  22      21.909 -15.334  25.929  0.00  0.00    +0.149 HD
ATOM    247  O   TRP A  21      19.796 -13.305  27.183  0.00  0.00    -0.274 OA
BRANCH 245 248
ATOM    248  CA  ALA A  22      20.606 -16.082  27.446  0.00  0.00    +0.156 C 
ATOM    249  CB  ALA A  22      19.114 -16.335  27.262  0.00  0.00    +0.038 C 
BRANCH 248 250
ATOM    250  C   ALA A  22      21.398 -17.442  27.296  0.00  0.00    +0.234 C 
ATOM    251  N   UNK A  23      21.114 -18.494  28.163  0.00  0.00    -0.301 N 
ATOM    252  H   UNK A  23      20.332 -18.418  28.808  0.00  0.00    +0.150 HD
ATOM    253  O   ALA A  22      22.280 -17.551  26.438  0.00  0.00    -0.274 OA
BRANCH 251 254
ATOM    254  C   UNK A  23      21.751 -19.868  28.105  0.00  0.00    +0.184 C 
BRANCH 254 255
ATOM    255  C   UNK A  23      21.070 -20.906  29.090  0.00  0.00    +0.236 C 
ATOM    256  N   UNK A  23      21.478 -22.235  28.999  0.00  0.00    -0.302 N 
ATOM    257  H   UNK A  23      22.200 -22.496  28.330  0.00  0.00    +0.150 HD
ATOM    258  O   UNK A  23      20.221 -20.529  29.900  0.00  0.00    -0.274 OA
BRANCH 256 259
ATOM    259  C   UNK A  23      21.024 -23.381  29.868  0.00  0.00    +0.159 C 
BRANCH 259 260
ATOM    260  C   UNK A  23      21.826 -24.683  29.460  0.00  0.00    +0.234 C 
ATOM    261  N   UNK A  23      21.576 -25.826  30.197  0.00  0.00    -0.302 N 
ATOM    262  H   UNK A  23      21.132 -25.747  31.105  0.00  0.00    +0.150 HD
ATOM    263  O   UNK A  23      22.627 -24.661  28.524  0.00  0.00    -0.274 OA
BRANCH 261 264
ATOM    264  C   UNK A  23      22.082 -27.201  29.931  0.00  0.00    +0.163 C 
BRANCH 264 265
ATOM    265  C   UNK A  23      21.380 -28.233  30.897  0.00  0.00    +0.234 C 
ATOM    266  N   UNK A  23      21.697 -29.573  30.750  0.00  0.00    -0.302 N 
ATOM    267  H   UNK A  23      22.293 -29.876  29.985  0.00  0.00    +0.150 HD
ATOM    268  O   UNK A  23      20.570 -27.846  31.745  0.00  0.00    -0.274 OA
BRANCH 266 269
ATOM    269  C   UNK A  23      21.148 -30.685  31.576  0.00  0.00    +0.168 C 
BRANCH 269 270
ATOM    270  C   UNK A  23      21.726 -32.071  31.109  0.00  0.00    +0.234 C 
ATOM    271  N   UNK A  23      21.324 -33.192  31.824  0.00  0.00    -0.302 N 
ATOM    272  H   UNK A  23      20.807 -33.098  32.692  0.00  0.00    +0.150 HD
ATOM    273  O   UNK A  23      22.515 -32.138  30.166  0.00  0.00    -0.274 OA
BRANCH 271 274
ATOM    274  C   UNK A  23      21.741 -34.590  31.512  0.00  0.00    +0.163 C 
BRANCH 274 275
ATOM    275  C   UNK A  23      21.141 -35.583  32.561  0.00  0.00    +0.234 C 
ATOM    276  N   UNK A  23      21.423 -36.923  32.375  0.00  0.00    -0.302 N 
ATOM    277  H   UNK A  23      22.022 -37.226  31.612  0.00  0.00    +0.150 HD
ATOM    278  O   UNK A  23      20.419 -35.180  33.476  0.00  0.00    -0.274 OA
BRANCH 276 279
ATOM    279  C   UNK A  23      21.018 -38.005  33.300  0.00  0.00    +0.163 C 
BRANCH 279 280
ATOM    280  C   UNK A  23      21.685 -39.323  32.802  0.00  0.00    +0.231 C 
ATOM    281  N   UNK A  23      21.280 -40.505  33.360  0.00  0.00    -0.328 N 
ATOM    282  H   UNK A  23      21.623 -41.347  32.910  0.00  0.00    +0.145 HD
ATOM    283  H   UNK A  23      20.418 -40.597  33.877  0.00  0.00    +0.145 HD
ATOM    284  O   UNK A  23      22.597 -39.331  31.974  0.00  0.00    -0.274 OA
ENDBRANCH 279 280
BRANCH 279 285
ATOM    285  C   UNK A  23      19.481 -38.139  33.443  0.00  0.00    +0.067 C 
BRANCH 285 286
ATOM    286  C   UNK A  23      18.834 -38.493  32.119  0.00  0.00    -0.045 A 
ATOM    287  C   UNK A  23      18.629 -37.491  31.165  0.00  0.00    +0.004 A 
ATOM    288  C   UNK A  23      18.336 -37.828  29.846  0.00  0.00    +0.000 A 
ATOM    289  C   UNK A  23      18.210 -39.165  29.480  0.00  0.00    +0.000 A 
ATOM    290  C   UNK A  23      18.303 -40.162  30.449  0.00  0.00    +0.000 A 
ATOM    291  C   UNK A  23      18.605 -39.826  31.761  0.00  0.00    +0.004 A 
ENDBRANCH 285 286
ENDBRANCH 279 285
ENDBRANCH 276 279
ENDBRANCH 274 275
BRANCH 274 292
ATOM    292  C   UNK A  23      23.263 -34.791  31.451  0.00  0.00    +0.069 C 
BRANCH 292 293
ATOM    293  C   UNK A  23      23.936 -34.614  32.779  0.00  0.00    -0.020 A 
ATOM    294  C   UNK A  23      24.687 -35.597  33.500  0.00  0.00    +0.003 A 
ATOM    295  C   UNK A  23      25.175 -34.980  34.651  0.00  0.00    +0.047 A 
ATOM    296  C   UNK A  23      26.016 -35.628  35.561  0.00  0.00    +0.026 A 
ATOM    297  C   UNK A  23      26.360 -36.954  35.292  0.00  0.00    +0.002 A 
ATOM    298  C   UNK A  23      25.858 -37.613  34.173  0.00  0.00    +0.001 A 
ATOM    299  N   UNK A  23      24.683 -33.698  34.668  0.00  0.00    -0.360 N 
ATOM    300  H   UNK A  23      24.861 -33.021  35.396  0.00  0.00    +0.165 HD
ATOM    301  C   UNK A  23      25.018 -36.950  33.272  0.00  0.00    +0.010 A 
ATOM    302  C   UNK A  23      23.945 -33.464  33.544  0.00  0.00    +0.087 A 
ENDBRANCH 292 293
ENDBRANCH 274 292
ENDBRANCH 271 274
ENDBRANCH 269 270
BRANCH 269 303
ATOM    303  C   UNK A  23      19.619 -30.755  31.586  0.00  0.00    +0.127 C 
BRANCH 303 304
ATOM    304  C   UNK A  23      19.072 -31.131  30.229  0.00  0.00    +0.213 C 
ATOM    305  N   UNK A  23      17.840 -31.714  30.258  0.00  0.00    -0.329 N 
ATOM    306  H   UNK A  23      17.423 -31.903  29.355  0.00  0.00    +0.145 HD
ATOM    307  H   UNK A  23      17.219 -31.594  31.046  0.00  0.00    +0.145 HD
ATOM    308  O   UNK A  23      19.638 -30.935  29.162  0.00  0.00    -0.276 OA
ENDBRANCH 303 304
ENDBRANCH 269 303
ENDBRANCH 266 269
ENDBRANCH 264 265
BRANCH 264 309
ATOM    309  C   UNK A  23      23.601 -27.280  30.079  0.00  0.00    +0.069 C 
BRANCH 309 310
ATOM    310  C   UNK A  23      24.085 -26.972  31.467  0.00  0.00    -0.020 A 
ATOM    311  C   UNK A  23      24.877 -27.827  32.293  0.00  0.00    +0.003 A 
ATOM    312  C   UNK A  23      25.175 -27.121  33.458  0.00  0.00    +0.047 A 
ATOM    313  C   UNK A  23      26.000 -27.635  34.461  0.00  0.00    +0.026 A 
ATOM    314  C   UNK A  23      26.536 -28.909  34.267  0.00  0.00    +0.002 A 
ATOM    315  C   UNK A  23      26.235 -29.651  33.127  0.00  0.00    +0.001 A 
ATOM    316  N   UNK A  23      24.523 -25.916  33.384  0.00  0.00    -0.360 N 
ATOM    317  H   UNK A  23      24.551 -25.202  34.098  0.00  0.00    +0.165 HD
ATOM    318  C   UNK A  23      25.401 -29.126  32.136  0.00  0.00    +0.010 A 
ATOM    319  C   UNK A  23      23.881 -25.807  32.185  0.00  0.00    +0.087 A 
ENDBRANCH 309 310
ENDBRANCH 264 309
ENDBRANCH 261 264
ENDBRANCH 259 260
BRANCH 259 320
ATOM    320  C   UNK A  23      19.502 -23.618  29.717  0.00  0.00    +0.034 C 
BRANCH 320 321
ATOM    321  C   UNK A  23      18.860 -24.731  30.580  0.00  0.00    -0.015 C 
ATOM    322  C   UNK A  23      17.386 -24.918  30.228  0.00  0.00    +0.007 C 
ATOM    323  C   UNK A  23      19.028 -24.522  32.088  0.00  0.00    +0.007 C 
ENDBRANCH 320 321
ENDBRANCH 259 320
ENDBRANCH 256 259
ENDBRANCH 254 255
BRANCH 254 324
ATOM    324  C   UNK A  23      23.257 -19.827  28.443  0.00  0.00    +0.187 C 
BRANCH 324 325
ATOM    325  O   UNK A  23      24.061 -19.160  27.475  0.00  0.00    -0.393 OA
ATOM    326  H   UNK A  23      23.495 -18.541  26.966  0.00  0.00    +0.209 HD
ENDBRANCH 324 325
ENDBRANCH 254 324
ENDBRANCH 251 254
ENDBRANCH 248 250
ENDBRANCH 245 248
ENDBRANCH 243 244
BRANCH 243 327
ATOM    327  CB  TRP A  21      22.965 -12.685  25.803  0.00  0.00    +0.069 C 
BRANCH 327 328
ATOM    328  CG  TRP A  21      23.229 -12.096  27.159  0.00  0.00    -0.020 A 
ATOM    329  CD2 TRP A  21      23.809 -10.817  27.436  0.00  0.00    +0.003 A 
ATOM    330  CE2 TRP A  21      23.722 -10.613  28.813  0.00  0.00    +0.047 A 
ATOM    331  CZ2 TRP A  21      24.159  -9.441  29.437  0.00  0.00    +0.026 A 
ATOM    332  CH2 TRP A  21      24.716  -8.450  28.628  0.00  0.00    +0.002 A 
ATOM    333  CZ3 TRP A  21      24.822  -8.623  27.250  0.00  0.00    +0.001 A 
ATOM    334  NE1 TRP A  21      23.137 -11.730  29.356  0.00  0.00    -0.360 N 
ATOM    335  HE1 TRP A  21      22.913 -11.844  30.334  0.00  0.00    +0.165 HD
ATOM    336  CE3 TRP A  21      24.365  -9.796  26.640  0.00  0.00    +0.010 A 
ATOM    337  CD1 TRP A  21      22.875 -12.646  28.377  0.00  0.00    +0.087 A 
ENDBRANCH 327 328
ENDBRANCH 243 327
ENDBRANCH 240 243
ENDBRANCH 238 239
BRANCH 238 338
ATOM    338  CB  LYS A  20      18.683  -9.452  24.621  0.00  0.00    +0.032 C 
BRANCH 338 339
ATOM    339  CG  LYS A  20      18.087 -10.438  25.642  0.00  0.00    +0.003 C 
BRANCH 339 340
ATOM    340  CD  LYS A  20      18.205 -10.007  27.110  0.00  0.00    +0.015 C 
BRANCH 340 341
ATOM    341  CE  LYS A  20      17.335  -8.787  27.370  0.00  0.00    +0.077 C 
BRANCH 341 342
ATOM    342  NZ  LYS A  20      17.400  -8.368  28.761  0.00  0.00    -0.330 NA
ATOM    343  HZ1 LYS A  20      16.785  -7.559  28.865  0.00  0.00    +0.118 HD
ATOM    344  HZ2 LYS A  20      17.011  -9.096  29.356  0.00  0.00    +0.118 HD
ENDBRANCH 341 342
ENDBRANCH 340 341
ENDBRANCH 339 340
ENDBRANCH 338 339
ENDBRANCH 238 338
ENDBRANCH 235 238
ENDBRANCH 233 234
BRANCH 233 345
ATOM    345  CB  ASP A  19      22.126  -5.468  23.210  0.00  0.00    +0.152 C 
BRANCH 345 346
ATOM    346  CG  ASP A  19      22.252  -4.862  24.584  0.00  0.00    +0.307 C 
ATOM    347  OD1 ASP A  19      21.909  -5.436  25.607  0.00  0.00    -0.251 OA
BRANCH 346 348
ATOM    348  OD2 ASP A  19      22.734  -3.602  24.600  0.00  0.00    -0.481 OA
ATOM    349  HD2 ASP A  19      22.759  -3.205  23.695  0.00  0.00    +0.295 HD
ENDBRANCH 346 348
ENDBRANCH 345 346
ENDBRANCH 233 345
ENDBRANCH 230 233
ENDBRANCH 228 229
BRANCH 228 350
ATOM    350  CB  LEU A  18      20.232  -0.521  22.141  0.00  0.00    +0.034 C 
BRANCH 350 351
ATOM    351  CG  LEU A  18      20.909  -0.557  20.748  0.00  0.00    -0.015 C 
ATOM    352  CD2 LEU A  18      21.778   0.692  20.553  0.00  0.00    +0.007 C 
ATOM    353  CD1 LEU A  18      19.924  -0.687  19.587  0.00  0.00    +0.007 C 
ENDBRANCH 350 351
ENDBRANCH 228 350
ENDBRANCH 225 228
ENDBRANCH 223 224
BRANCH 223 354
ATOM    354  CB  GLU A  17      16.604  -2.131  25.951  0.00  0.00    +0.043 C 
BRANCH 354 355
ATOM    355  CG  GLU A  17      17.396  -3.435  25.709  0.00  0.00    +0.123 C 
BRANCH 355 356
ATOM    356  CD  GLU A  17      16.559  -4.641  26.060  0.00  0.00    +0.305 C 
ATOM    357  OE1 GLU A  17      15.373  -4.592  26.337  0.00  0.00    -0.251 OA
BRANCH 356 358
ATOM    358  OE2 GLU A  17      17.208  -5.812  26.006  0.00  0.00    -0.481 OA
ATOM    359  HE2 GLU A  17      18.114  -5.824  25.605  0.00  0.00    +0.295 HD
ENDBRANCH 356 358
ENDBRANCH 355 356
ENDBRANCH 354 355
ENDBRANCH 223 354
ENDBRANCH 220 223
ENDBRANCH 218 219
BRANCH 218 360
ATOM    360  CB  LEU A  16      15.907   3.264  27.223  0.00  0.00    +0.034 C 
BRANCH 360 361
ATOM    361  CG  LEU A  16      17.192   3.430  28.073  0.00  0.00    -0.015 C 
ATOM    362  CD2 LEU A  16      16.932   3.676  29.561  0.00  0.00    +0.007 C 
ATOM    363  CD1 LEU A  16      18.048   4.590  27.543  0.00  0.00    +0.007 C 
ENDBRANCH 360 361
ENDBRANCH 218 360
ENDBRANCH 215 218
ENDBRANCH 213 214
BRANCH 213 364
ATOM    364  CB  LEU A  15      12.081   1.327  30.979  0.00  0.00    +0.034 C 
BRANCH 364 365
ATOM    365  CG  LEU A  15      12.797   0.020  30.617  0.00  0.00    -0.015 C 
ATOM    366  CD2 LEU A  15      11.847  -1.155  30.852  0.00  0.00    +0.007 C 
ATOM    367  CD1 LEU A  15      14.096  -0.195  31.397  0.00  0.00    +0.007 C 
ENDBRANCH 364 365
ENDBRANCH 213 364
ENDBRANCH 210 213
ENDBRANCH 208 209
BRANCH 208 368
ATOM    368  CB  GLU A  14      11.970   6.681  32.169  0.00  0.00    +0.043 C 
BRANCH 368 369
ATOM    369  CG  GLU A  14      12.521   6.643  30.763  0.00  0.00    +0.123 C 
BRANCH 369 370
ATOM    370  CD  GLU A  14      13.321   7.891  30.534  0.00  0.00    +0.305 C 
ATOM    371  OE1 GLU A  14      14.514   7.977  30.768  0.00  0.00    -0.251 OA
BRANCH 370 372
ATOM    372  OE2 GLU A  14      12.581   8.922  30.081  0.00  0.00    -0.481 OA
ATOM    373  HE2 GLU A  14      11.629   8.728  30.031  0.00  0.00    +0.295 HD
ENDBRANCH 370 372
ENDBRANCH 369 370
ENDBRANCH 368 369
ENDBRANCH 208 368
ENDBRANCH 205 208
ENDBRANCH 203 204
BRANCH 203 374
ATOM    374  CB  GLN A  13       8.459   5.083  35.716  0.00  0.00    +0.041 C 
BRANCH 374 375
ATOM    375  CG  GLN A  13       7.128   4.738  34.764  0.00  0.00    +0.098 C 
BRANCH 375 376
ATOM    376  CD  GLN A  13       6.112   3.736  35.282  0.00  0.00    +0.211 C 
ATOM    377  NE2 GLN A  13       4.769   4.038  35.076  0.00  0.00    -0.329 N 
ATOM    378 HE21 GLN A  13       4.082   3.395  35.467  0.00  0.00    +0.145 HD
ATOM    379 HE22 GLN A  13       4.432   4.972  34.903  0.00  0.00    +0.145 HD
ATOM    380  OE1 GLN A  13       6.425   2.699  35.809  0.00  0.00    -0.276 OA
ENDBRANCH 375 376
ENDBRANCH 374 375
ENDBRANCH 203 374
ENDBRANCH 200 203
ENDBRANCH 198 199
BRANCH 198 381
ATOM    381  CB  GLU A  12       5.821   9.485  38.808  0.00  0.00    +0.043 C 
BRANCH 381 382
ATOM    382  CG  GLU A  12       6.192   9.084  40.225  0.00  0.00    +0.123 C 
BRANCH 382 383
ATOM    383  CD  GLU A  12       7.087  10.099  40.884  0.00  0.00    +0.305 C 
ATOM    384  OE1 GLU A  12       7.360  11.197  40.427  0.00  0.00    -0.251 OA
BRANCH 383 385
ATOM    385  OE2 GLU A  12       7.536   9.682  42.086  0.00  0.00    -0.481 OA
ATOM    386  HE2 GLU A  12       7.248   8.777  42.309  0.00  0.00    +0.295 HD
ENDBRANCH 383 385
ENDBRANCH 382 383
ENDBRANCH 381 382
ENDBRANCH 198 381
ENDBRANCH 195 198
ENDBRANCH   1 194
BRANCH   1 387
ATOM    387  CB  ASN A  11       2.800  11.457  35.054  0.00  0.00    +0.127 C 
BRANCH 387 388
ATOM    388  CG  ASN A  11       2.101  10.137  35.374  0.00  0.00    +0.213 C 
ATOM    389  ND2 ASN A  11       0.739  10.153  35.309  0.00  0.00    -0.329 N 
ATOM    390 HD21 ASN A  11       0.284   9.252  35.412  0.00  0.00    +0.145 HD
ATOM    391 HD22 ASN A  11       0.264  10.820  34.714  0.00  0.00    +0.145 HD
ATOM    392  OD1 ASN A  11       2.693   9.076  35.569  0.00  0.00    -0.276 OA
ENDBRANCH 387 388
ENDBRANCH   1 387
TORSDOF 166
