REMARK  Name = 
REMARK  17 active torsions:
REMARK  status: ('A' for Active; 'I' for Inactive)
REMARK    1  A    between atoms: C_1  and  C_2
REMARK    2  A    between atoms: C_2  and  C_3
REMARK    3  A    between atoms: C_2  and  C_4
REMARK    4  A    between atoms: C_2  and  N_5
REMARK    5  A    between atoms: C_6  and  C_8
REMARK    6  A    between atoms: N_20  and  C_21
REMARK    7  A    between atoms: C_21  and  C_22
REMARK    8  A    between atoms: C_22  and  C_24
REMARK    9  A    between atoms: C_22  and  O_54
REMARK   10  A    between atoms: C_24  and  C_26
REMARK   11  A    between atoms: C_24  and  N_33
REMARK   12  A    between atoms: C_26  and  C_27
REMARK   13  A    between atoms: C_34  and  C_36
REMARK   14  A    between atoms: C_36  and  C_37
REMARK   15  A    between atoms: C_36  and  N_41
REMARK   16  A    between atoms: C_37  and  C_38
REMARK   17  A    between atoms: C_42  and  C_44
REMARK                            x       y       z     vdW  Elec       q    Type
REMARK                         _______ _______ _______ _____ _____    ______ ____
ROOT
ATOM      1  C   UNL     1       7.190  -3.663   2.104  0.00  0.00    +0.107 C 
ENDROOT
BRANCH   1   2
ATOM      2  N   UNL     1       6.873  -2.688   1.011  0.00  0.00    -0.308 N 
ATOM      3  H   UNL     1       7.088  -2.972   0.059  0.00  0.00    +0.149 HD
ATOM      4  C   UNL     1       6.149  -1.533   1.185  0.00  0.00    +0.234 C 
ATOM      5  O   UNL     1       5.654  -1.226   2.268  0.00  0.00    -0.274 OA
BRANCH   4   6
ATOM      6  C   UNL     1       5.965  -0.629  -0.073  0.00  0.00    +0.168 C 
BRANCH   6   7
ATOM      7  N   UNL     1       5.079  -1.282  -1.045  0.00  0.00    -0.298 N 
ATOM      8  H   UNL     1       4.074  -1.142  -0.953  0.00  0.00    +0.150 HD
ATOM      9  C   UNL     1       5.478  -2.202  -1.984  0.00  0.00    +0.263 C 
ATOM     10  O   UNL     1       6.646  -2.532  -2.149  0.00  0.00    -0.269 OA
BRANCH   9  11
ATOM     11  C   UNL     1       4.389  -2.785  -2.827  0.00  0.00    +0.126 A 
ATOM     12  C   UNL     1       4.729  -3.734  -3.779  0.00  0.00    +0.033 A 
ATOM     13  C   UNL     1       3.702  -4.354  -4.475  0.00  0.00    +0.012 A 
ATOM     14  C   UNL     1       2.380  -4.007  -4.197  0.00  0.00    +0.000 A 
ATOM     15  C   UNL     1       2.128  -2.983  -3.256  0.00  0.00    +0.072 A 
ATOM     16  C   UNL     1       0.803  -2.636  -3.017  0.00  0.00    +0.028 A 
ATOM     17  C   UNL     1      -0.257  -3.311  -3.634  0.00  0.00    +0.002 A 
ATOM     18  C   UNL     1       0.001  -4.343  -4.529  0.00  0.00    +0.001 A 
ATOM     19  C   UNL     1       1.317  -4.678  -4.828  0.00  0.00    +0.010 A 
ATOM     20  N   UNL     1       3.116  -2.373  -2.574  0.00  0.00    -0.242 NA
ENDBRANCH   9  11
ENDBRANCH   6   7
BRANCH   6  21
ATOM     21  C   UNL     1       7.303  -0.113  -0.619  0.00  0.00    +0.127 C 
BRANCH  21  22
ATOM     22  C   UNL     1       7.134   1.021  -1.609  0.00  0.00    +0.213 C 
ATOM     23  N   UNL     1       6.770   0.679  -2.873  0.00  0.00    -0.329 N 
ATOM     24  H   UNL     1       6.740   1.421  -3.561  0.00  0.00    +0.145 HD
ATOM     25  H   UNL     1       6.851  -0.275  -3.199  0.00  0.00    +0.145 HD
ATOM     26  O   UNL     1       7.317   2.200  -1.313  0.00  0.00    -0.276 OA
ENDBRANCH  21  22
ENDBRANCH   6  21
ENDBRANCH   4   6
ENDBRANCH   1   2
BRANCH   1  27
ATOM     27  C   UNL     1       6.079  -4.763   2.197  0.00  0.00    +0.149 C 
BRANCH  27  28
ATOM     28  O   UNL     1       5.985  -5.377   0.881  0.00  0.00    -0.389 OA
ATOM     29  H   UNL     1       5.148  -5.871   0.855  0.00  0.00    +0.210 HD
ENDBRANCH  27  28
BRANCH  27  30
ATOM     30  C   UNL     1       6.233  -5.956   3.227  0.00  0.00    +0.118 C 
BRANCH  30  32
ATOM     31  C   UNL     1       6.489  -7.105   5.421  0.00  0.00    +0.143 C 
ATOM     32  N   UNL     1       6.282  -5.785   4.705  0.00  0.00    -0.289 NA
ATOM     33  C   UNL     1       5.114  -5.069   5.250  0.00  0.00    +0.089 C 
ATOM     34  C   UNL     1       3.807  -5.871   5.496  0.00  0.00    +0.006 C 
ATOM     35  C   UNL     1       4.000  -7.292   6.040  0.00  0.00    -0.005 C 
ATOM     36  C   UNL     1       3.953  -7.458   7.571  0.00  0.00    +0.004 C 
ATOM     37  C   UNL     1       3.814  -6.226   8.464  0.00  0.00    +0.000 C 
ATOM     38  C   UNL     1       3.375  -4.926   7.808  0.00  0.00    +0.000 C 
ATOM     39  C   UNL     1       2.825  -5.109   6.401  0.00  0.00    +0.005 C 
ATOM     40  C   UNL     1       5.216  -7.975   5.398  0.00  0.00    +0.032 C 
BRANCH  31  43
ATOM     41  N   UNL     1       7.464  -8.240   7.431  0.00  0.00    -0.309 N 
ATOM     42  H   UNL     1       7.459  -9.018   6.785  0.00  0.00    +0.149 HD
ATOM     43  C   UNL     1       7.056  -7.005   6.914  0.00  0.00    +0.231 C 
ATOM     44  O   UNL     1       7.091  -5.976   7.563  0.00  0.00    -0.274 OA
BRANCH  41  46
ATOM     45  C   UNL     1       6.735  -8.365   9.846  0.00  0.00    +0.031 C 
ATOM     46  C   UNL     1       7.872  -8.577   8.828  0.00  0.00    +0.026 C 
ATOM     47  C   UNL     1       8.234 -10.081   8.871  0.00  0.00    +0.031 C 
ATOM     48  C   UNL     1       9.098  -7.787   9.308  0.00  0.00    +0.031 C 
ENDBRANCH  41  46
ENDBRANCH  31  43
ENDBRANCH  30  32
ENDBRANCH  27  30
ENDBRANCH   1  27
BRANCH   1  49
ATOM     49  C   UNL     1       8.593  -4.257   1.830  0.00  0.00    +0.060 C 
BRANCH  49  50
ATOM     50  C   UNL     1       9.712  -3.235   1.702  0.00  0.00    -0.046 A 
ATOM     51  C   UNL     1      10.489  -3.175   0.535  0.00  0.00    +0.004 A 
ATOM     52  C   UNL     1      11.546  -2.264   0.424  0.00  0.00    +0.000 A 
ATOM     53  C   UNL     1      11.839  -1.403   1.478  0.00  0.00    +0.000 A 
ATOM     54  C   UNL     1      11.070  -1.448   2.641  0.00  0.00    +0.000 A 
ATOM     55  C   UNL     1      10.015  -2.361   2.754  0.00  0.00    +0.004 A 
ENDBRANCH  49  50
ENDBRANCH   1  49
TORSDOF 14
