REMARK  Name = 
REMARK  19 active torsions:
REMARK  status: ('A' for Active; 'I' for Inactive)
REMARK    1  A    between atoms: C_1  and  C_2
REMARK    2  A    between atoms: C_2  and  C_3
REMARK    3  A    between atoms: C_2  and  C_4
REMARK    4  A    between atoms: C_4  and  C_6
REMARK    5  A    between atoms: C_4  and  N_54
REMARK    6  A    between atoms: C_12  and  C_14
REMARK    7  A    between atoms: C_17  and  C_19
REMARK    8  A    between atoms: C_22  and  C_25
REMARK    9  A    between atoms: C_28  and  C_31
REMARK   10  A    between atoms: C_34  and  C_36
REMARK   11  A    between atoms: C_42  and  C_44
REMARK   12  A    between atoms: C_44  and  C_46
REMARK   13  A    between atoms: C_44  and  N_49
REMARK   14  A    between atoms: C_46  and  C_47
REMARK   15  A    between atoms: C_46  and  C_48
REMARK   16  A    between atoms: C_50  and  O_52
REMARK   17  A    between atoms: O_52  and  C_53
REMARK   18  A    between atoms: C_55  and  O_57
REMARK   19  A    between atoms: O_57  and  C_58
REMARK                            x       y       z     vdW  Elec       q    Type
REMARK                         _______ _______ _______ _____ _____    ______ ____
ROOT
ATOM      1  C   UNL     1       2.248   0.743  -5.163  0.00  0.00    -0.000 A 
ATOM      2  C   UNL     1       2.702  -0.356  -5.893  0.00  0.00    +0.010 A 
ATOM      3  C   UNL     1       3.245  -0.174  -7.165  0.00  0.00    +0.009 A 
ATOM      4  C   UNL     1       3.324   1.104  -7.743  0.00  0.00    -0.018 A 
ATOM      5  C   UNL     1       2.924   2.201  -6.960  0.00  0.00    +0.009 A 
ATOM      6  C   UNL     1       2.404   2.027  -5.683  0.00  0.00    +0.010 A 
ENDROOT
BRANCH   1  10
ATOM      7  C   UNL     1       0.706   0.916  -1.901  0.00  0.00    +0.128 A 
ATOM      8  N   UNL     1       1.568   1.393  -2.856  0.00  0.00    -0.340 N 
ATOM      9  H   UNL     1       2.195   2.179  -2.755  0.00  0.00    +0.167 HD
ATOM     10  C   UNL     1       1.501   0.558  -3.939  0.00  0.00    +0.066 A 
ATOM     11  C   UNL     1       0.544  -0.371  -3.597  0.00  0.00    +0.139 A 
ATOM     12  N   UNL     1      -0.016  -0.071  -2.387  0.00  0.00    -0.238 NA
BRANCH   7  15
ATOM     13  C   UNL     1       0.041  -0.766   0.698  0.00  0.00    +0.237 C 
ATOM     14  N   UNL     1      -0.009   0.596   0.443  0.00  0.00    -0.290 N 
ATOM     15  C   UNL     1       0.755   1.416  -0.502  0.00  0.00    +0.142 C 
ATOM     16  C   UNL     1       0.146   2.830  -0.406  0.00  0.00    +0.032 C 
ATOM     17  C   UNL     1      -1.095   2.671   0.463  0.00  0.00    +0.021 C 
ATOM     18  C   UNL     1      -0.781   1.461   1.317  0.00  0.00    +0.108 C 
ATOM     19  O   UNL     1      -0.680  -1.239   1.588  0.00  0.00    -0.274 OA
BRANCH  13  20
ATOM     20  C   UNL     1       0.897  -1.730  -0.186  0.00  0.00    +0.165 C 
BRANCH  20  21
ATOM     21  N   UNL     1      -0.020  -2.601  -0.928  0.00  0.00    -0.270 N 
ATOM     22  H   UNL     1      -1.011  -2.398  -0.887  0.00  0.00    +0.153 HD
ATOM     23  C   UNL     1       0.373  -3.380  -1.970  0.00  0.00    +0.401 C 
ATOM     24  O   UNL     1       1.528  -3.540  -2.343  0.00  0.00    -0.226 OA
BRANCH  23  25
ATOM     25  O   UNL     1      -0.709  -3.965  -2.540  0.00  0.00    -0.454 OA
ATOM     26  C   UNL     1      -0.372  -4.885  -3.579  0.00  0.00    +0.282 C 
ENDBRANCH  23  25
ENDBRANCH  20  21
BRANCH  20  28
ATOM     27  C   UNL     1       1.323  -3.574   1.574  0.00  0.00    +0.009 C 
ATOM     28  C   UNL     1       1.934  -2.562   0.606  0.00  0.00    +0.012 C 
ATOM     29  C   UNL     1       2.952  -1.659   1.299  0.00  0.00    +0.009 C 
ENDBRANCH  20  28
ENDBRANCH  13  20
ENDBRANCH   7  15
ENDBRANCH   1  10
BRANCH   4  30
ATOM     30  C   UNL     1       3.712   1.299  -9.151  0.00  0.00    -0.018 A 
ATOM     31  C   UNL     1       3.401   0.339 -10.130  0.00  0.00    +0.009 A 
ATOM     32  C   UNL     1       3.653   0.573 -11.481  0.00  0.00    +0.010 A 
ATOM     33  C   UNL     1       4.205   1.785 -11.894  0.00  0.00    -0.000 A 
ATOM     34  C   UNL     1       4.560   2.732 -10.929  0.00  0.00    +0.010 A 
ATOM     35  C   UNL     1       4.327   2.486  -9.578  0.00  0.00    +0.009 A 
BRANCH  33  36
ATOM     36  C   UNL     1       4.396   2.056 -13.306  0.00  0.00    +0.066 A 
ATOM     37  N   UNL     1       4.408   3.318 -13.838  0.00  0.00    -0.340 N 
ATOM     38  H   UNL     1       4.295   4.181 -13.326  0.00  0.00    +0.167 HD
ATOM     39  C   UNL     1       4.738   3.221 -15.161  0.00  0.00    +0.128 A 
ATOM     40  N   UNL     1       4.807   1.962 -15.538  0.00  0.00    -0.238 NA
ATOM     41  C   UNL     1       4.631   1.234 -14.390  0.00  0.00    +0.139 A 
BRANCH  39  42
ATOM     42  C   UNL     1       5.065   4.403 -15.986  0.00  0.00    +0.142 C 
ATOM     43  N   UNL     1       6.069   5.297 -15.389  0.00  0.00    -0.290 N 
ATOM     44  C   UNL     1       7.343   5.029 -14.900  0.00  0.00    +0.237 C 
ATOM     45  O   UNL     1       8.096   5.972 -14.618  0.00  0.00    -0.274 OA
ATOM     46  C   UNL     1       5.715   6.687 -15.683  0.00  0.00    +0.108 C 
ATOM     47  C   UNL     1       4.450   6.636 -16.535  0.00  0.00    +0.021 C 
ATOM     48  C   UNL     1       3.832   5.306 -16.152  0.00  0.00    +0.032 C 
BRANCH  44  49
ATOM     49  C   UNL     1       7.811   3.580 -14.557  0.00  0.00    +0.165 C 
BRANCH  49  50
ATOM     50  N   UNL     1       8.056   3.578 -13.105  0.00  0.00    -0.270 N 
ATOM     51  H   UNL     1       8.555   4.369 -12.709  0.00  0.00    +0.153 HD
ATOM     52  C   UNL     1       7.958   2.464 -12.328  0.00  0.00    +0.401 C 
ATOM     53  O   UNL     1       7.542   1.376 -12.704  0.00  0.00    -0.226 OA
BRANCH  52  54
ATOM     54  O   UNL     1       8.441   2.720 -11.089  0.00  0.00    -0.454 OA
ATOM     55  C   UNL     1       8.483   1.562 -10.243  0.00  0.00    +0.282 C 
ENDBRANCH  52  54
ENDBRANCH  49  50
BRANCH  49  56
ATOM     56  C   UNL     1       9.099   3.182 -15.328  0.00  0.00    +0.012 C 
ATOM     57  C   UNL     1       8.870   3.205 -16.843  0.00  0.00    +0.009 C 
ATOM     58  C   UNL     1       9.590   1.777 -14.942  0.00  0.00    +0.009 C 
ENDBRANCH  49  56
ENDBRANCH  44  49
ENDBRANCH  39  42
ENDBRANCH  33  36
ENDBRANCH   4  30
TORSDOF 13
