REMARK  Name = 
REMARK  11 active torsions:
REMARK  status: ('A' for Active; 'I' for Inactive)
REMARK    1  A    between atoms: C_1  and  C_2
REMARK    2  A    between atoms: C_5  and  C_36
REMARK    3  A    between atoms: N_6  and  C_7
REMARK    4  A    between atoms: N_15  and  C_16
REMARK    5  A    between atoms: C_16  and  C_17
REMARK    6  A    between atoms: C_17  and  C_18
REMARK    7  A    between atoms: C_18  and  C_19
REMARK    8  A    between atoms: C_18  and  N_25
REMARK    9  A    between atoms: C_26  and  C_28
REMARK   10  A    between atoms: C_36  and  C_37
REMARK   11  A    between atoms: C_36  and  C_38
REMARK                            x       y       z     vdW  Elec       q    Type
REMARK                         _______ _______ _______ _____ _____    ______ ____
ROOT
ATOM      1  C   UNL     1      -0.615  -5.827   1.236  0.00  0.00    +0.042 C 
ENDROOT
BRANCH   1   2
ATOM      2  C   UNL     1      -0.092  -5.429  -0.156  0.00  0.00    +0.087 C 
BRANCH   2   6
ATOM      3  C   UNL     1       2.656  -2.397  -0.178  0.00  0.00    +0.093 C 
ATOM      4  C   UNL     1       3.242  -3.626   0.558  0.00  0.00    +0.044 C 
ATOM      5  C   UNL     1       2.289  -4.867   0.460  0.00  0.00    +0.059 C 
ATOM      6  N   UNL     1       1.013  -4.446  -0.165  0.00  0.00    -0.296 NA
ATOM      7  C   UNL     1       1.449  -4.178  -1.556  0.00  0.00    +0.059 C 
ATOM      8  C   UNL     1       2.423  -5.327  -1.887  0.00  0.00    +0.020 C 
ATOM      9  C   UNL     1       2.846  -5.886  -0.532  0.00  0.00    +0.020 C 
ATOM     10  C   UNL     1       2.154  -2.803  -1.575  0.00  0.00    +0.044 C 
BRANCH   3  13
ATOM     11  C   UNL     1       2.524  -0.579   2.267  0.00  0.00    +0.088 C 
ATOM     12  C   UNL     1       3.337  -0.328   1.052  0.00  0.00    +0.131 A 
ATOM     13  N   UNL     1       3.432  -1.164  -0.058  0.00  0.00    -0.312 N 
ATOM     14  C   UNL     1       4.251  -0.478  -0.941  0.00  0.00    +0.136 A 
ATOM     15  N   UNL     1       4.607   0.665  -0.383  0.00  0.00    -0.134 NA
ATOM     16  N   UNL     1       4.051   0.753   0.852  0.00  0.00    -0.135 NA
BRANCH  14  17
ATOM     17  C   UNL     1       4.716  -0.858  -2.319  0.00  0.00    +0.051 C 
ATOM     18  C   UNL     1       6.108  -0.261  -2.599  0.00  0.00    +0.015 C 
ATOM     19  C   UNL     1       3.756  -0.327  -3.391  0.00  0.00    +0.015 C 
ENDBRANCH  14  17
ENDBRANCH   3  13
ENDBRANCH   2   6
ENDBRANCH   1   2
BRANCH   1  20
ATOM     20  C   UNL     1      -1.843  -6.775   1.136  0.00  0.00    +0.104 C 
BRANCH  20  21
ATOM     21  C   UNL     1      -1.525  -8.091   0.450  0.00  0.00    -0.027 A 
ATOM     22  C   UNL     1      -2.227  -8.448  -0.714  0.00  0.00    +0.005 A 
ATOM     23  C   UNL     1      -1.875  -9.586  -1.440  0.00  0.00    +0.000 A 
ATOM     24  C   UNL     1      -0.826 -10.391  -1.004  0.00  0.00    +0.000 A 
ATOM     25  C   UNL     1      -0.151 -10.077   0.174  0.00  0.00    +0.000 A 
ATOM     26  C   UNL     1      -0.503  -8.938   0.903  0.00  0.00    +0.005 A 
ENDBRANCH  20  21
BRANCH  20  27
ATOM     27  N   UNL     1      -2.423  -7.008   2.454  0.00  0.00    -0.308 N 
ATOM     28  H   UNL     1      -2.055  -7.758   3.023  0.00  0.00    +0.149 HD
ATOM     29  C   UNL     1      -3.400  -6.174   2.948  0.00  0.00    +0.217 C 
ATOM     30  O   UNL     1      -3.925  -5.303   2.260  0.00  0.00    -0.275 OA
BRANCH  29  31
ATOM     31  C   UNL     1      -3.753  -6.383   4.425  0.00  0.00    +0.075 C 
ATOM     32  C   UNL     1      -4.890  -5.437   4.869  0.00  0.00    +0.018 C 
ATOM     33  C   UNL     1      -4.466  -3.966   4.934  0.00  0.00    +0.076 C 
ATOM     34  C   UNL     1      -3.177  -3.763   5.711  0.00  0.00    +0.249 C 
ATOM     35  F   UNL     1      -3.433  -3.935   7.036  0.00  0.00    -0.206 F 
ATOM     36  F   UNL     1      -2.752  -2.483   5.567  0.00  0.00    -0.206 F 
ATOM     37  C   UNL     1      -2.061  -4.713   5.306  0.00  0.00    +0.076 C 
ATOM     38  C   UNL     1      -2.531  -6.167   5.330  0.00  0.00    +0.018 C 
ENDBRANCH  29  31
ENDBRANCH  20  27
ENDBRANCH   1  20
TORSDOF 8
