REMARK  Name = 
REMARK  17 active torsions:
REMARK  status: ('A' for Active; 'I' for Inactive)
REMARK    1  A    between atoms: C_1  and  C_2
REMARK    2  A    between atoms: C_2  and  C_3
REMARK    3  A    between atoms: C_2  and  C_4
REMARK    4  A    between atoms: C_2  and  N_5
REMARK    5  A    between atoms: C_6  and  C_8
REMARK    6  A    between atoms: N_20  and  C_21
REMARK    7  A    between atoms: C_21  and  C_22
REMARK    8  A    between atoms: C_22  and  C_24
REMARK    9  A    between atoms: C_22  and  O_54
REMARK   10  A    between atoms: C_24  and  C_26
REMARK   11  A    between atoms: C_24  and  N_33
REMARK   12  A    between atoms: C_26  and  C_27
REMARK   13  A    between atoms: C_34  and  C_36
REMARK   14  A    between atoms: C_36  and  C_37
REMARK   15  A    between atoms: C_36  and  N_41
REMARK   16  A    between atoms: C_37  and  C_38
REMARK   17  A    between atoms: C_42  and  C_44
REMARK                            x       y       z     vdW  Elec       q    Type
REMARK                         _______ _______ _______ _____ _____    ______ ____
ROOT
ATOM      1  C   UNL     1       5.287   3.689   3.883  0.00  0.00    +0.107 C 
ENDROOT
BRANCH   1   2
ATOM      2  N   UNL     1       4.719   3.648   2.537  0.00  0.00    -0.308 N 
ATOM      3  H   UNL     1       5.320   3.802   1.734  0.00  0.00    +0.149 HD
ATOM      4  C   UNL     1       3.363   3.598   2.328  0.00  0.00    +0.234 C 
ATOM      5  O   UNL     1       2.558   3.716   3.242  0.00  0.00    -0.274 OA
BRANCH   4   6
ATOM      6  C   UNL     1       2.930   3.432   0.860  0.00  0.00    +0.168 C 
BRANCH   6   7
ATOM      7  N   UNL     1       2.660   4.748   0.286  0.00  0.00    -0.298 N 
ATOM      8  H   UNL     1       1.713   5.122   0.275  0.00  0.00    +0.150 HD
ATOM      9  C   UNL     1       3.655   5.493  -0.304  0.00  0.00    +0.263 C 
ATOM     10  O   UNL     1       4.829   5.128  -0.330  0.00  0.00    -0.269 OA
BRANCH   9  11
ATOM     11  C   UNL     1       3.226   6.777  -0.958  0.00  0.00    +0.126 A 
ATOM     12  C   UNL     1       4.146   7.436  -1.762  0.00  0.00    +0.033 A 
ATOM     13  C   UNL     1       3.728   8.563  -2.452  0.00  0.00    +0.012 A 
ATOM     14  C   UNL     1       2.408   9.004  -2.327  0.00  0.00    +0.000 A 
ATOM     15  C   UNL     1       1.549   8.302  -1.449  0.00  0.00    +0.072 A 
ATOM     16  C   UNL     1       0.252   8.793  -1.314  0.00  0.00    +0.028 A 
ATOM     17  C   UNL     1      -0.210   9.892  -2.052  0.00  0.00    +0.002 A 
ATOM     18  C   UNL     1       0.634  10.543  -2.939  0.00  0.00    +0.001 A 
ATOM     19  C   UNL     1       1.950  10.112  -3.063  0.00  0.00    +0.010 A 
ATOM     20  N   UNL     1       1.946   7.201  -0.769  0.00  0.00    -0.242 NA
ENDBRANCH   9  11
ENDBRANCH   6   7
BRANCH   6  21
ATOM     21  C   UNL     1       1.706   2.524   0.884  0.00  0.00    +0.127 C 
BRANCH  21  22
ATOM     22  C   UNL     1       1.155   2.255  -0.484  0.00  0.00    +0.213 C 
ATOM     23  N   UNL     1       1.737   1.225  -1.153  0.00  0.00    -0.329 N 
ATOM     24  H   UNL     1       1.421   1.055  -2.098  0.00  0.00    +0.145 HD
ATOM     25  H   UNL     1       2.668   0.907  -0.890  0.00  0.00    +0.145 HD
ATOM     26  O   UNL     1       0.231   2.892  -0.976  0.00  0.00    -0.276 OA
ENDBRANCH  21  22
ENDBRANCH   6  21
ENDBRANCH   4   6
ENDBRANCH   1   2
BRANCH   1  27
ATOM     27  C   UNL     1       6.710   3.061   3.955  0.00  0.00    +0.149 C 
BRANCH  27  28
ATOM     28  O   UNL     1       7.143   3.074   5.333  0.00  0.00    -0.389 OA
ATOM     29  H   UNL     1       8.044   2.710   5.368  0.00  0.00    +0.210 HD
ENDBRANCH  27  28
BRANCH  27  30
ATOM     30  C   UNL     1       6.798   1.577   3.431  0.00  0.00    +0.118 C 
BRANCH  30  32
ATOM     31  C   UNL     1       6.195  -0.131   1.677  0.00  0.00    +0.143 C 
ATOM     32  N   UNL     1       6.404   1.313   2.029  0.00  0.00    -0.289 NA
ATOM     33  C   UNL     1       7.261   1.993   1.055  0.00  0.00    +0.089 C 
ATOM     34  C   UNL     1       8.596   1.306   0.696  0.00  0.00    +0.006 C 
ATOM     35  C   UNL     1       8.543  -0.232   0.623  0.00  0.00    -0.005 C 
ATOM     36  C   UNL     1       8.385  -0.826  -0.785  0.00  0.00    +0.004 C 
ATOM     37  C   UNL     1       7.862   0.105  -1.869  0.00  0.00    +0.000 C 
ATOM     38  C   UNL     1       8.280   1.565  -1.803  0.00  0.00    +0.000 C 
ATOM     39  C   UNL     1       9.162   1.891  -0.608  0.00  0.00    +0.005 C 
ATOM     40  C   UNL     1       7.555  -0.839   1.631  0.00  0.00    +0.032 C 
BRANCH  31  43
ATOM     41  N   UNL     1       5.203  -1.546  -0.244  0.00  0.00    -0.309 N 
ATOM     42  H   UNL     1       5.548  -2.328   0.297  0.00  0.00    +0.149 HD
ATOM     43  C   UNL     1       5.262  -0.292   0.373  0.00  0.00    +0.231 C 
ATOM     44  O   UNL     1       4.562   0.632  -0.048  0.00  0.00    -0.274 OA
BRANCH  41  46
ATOM     45  C   UNL     1       4.444  -0.896  -2.602  0.00  0.00    +0.031 C 
ATOM     46  C   UNL     1       4.349  -1.902  -1.432  0.00  0.00    +0.026 C 
ATOM     47  C   UNL     1       4.793  -3.262  -2.022  0.00  0.00    +0.031 C 
ATOM     48  C   UNL     1       2.878  -2.056  -1.014  0.00  0.00    +0.031 C 
ENDBRANCH  41  46
ENDBRANCH  31  43
ENDBRANCH  30  32
ENDBRANCH  27  30
ENDBRANCH   1  27
BRANCH   1  49
ATOM     49  C   UNL     1       5.193   5.119   4.494  0.00  0.00    +0.060 C 
BRANCH  49  50
ATOM     50  C   UNL     1       5.901   6.197   3.702  0.00  0.00    -0.046 A 
ATOM     51  C   UNL     1       7.219   6.562   3.999  0.00  0.00    +0.004 A 
ATOM     52  C   UNL     1       7.894   7.484   3.196  0.00  0.00    +0.000 A 
ATOM     53  C   UNL     1       7.255   8.058   2.098  0.00  0.00    +0.000 A 
ATOM     54  C   UNL     1       5.927   7.743   1.827  0.00  0.00    +0.000 A 
ATOM     55  C   UNL     1       5.251   6.825   2.631  0.00  0.00    +0.004 A 
ENDBRANCH  49  50
ENDBRANCH   1  49
TORSDOF 14
