REMARK  Name = 
REMARK  12 active torsions:
REMARK  status: ('A' for Active; 'I' for Inactive)
REMARK    1  A    between atoms: C_1  and  C_2
REMARK    2  A    between atoms: C_2  and  C_3
REMARK    3  A    between atoms: C_3  and  C_4
REMARK    4  A    between atoms: C_3  and  C_6
REMARK    5  A    between atoms: C_4  and  C_5
REMARK    6  A    between atoms: C_6  and  C_8
REMARK    7  A    between atoms: C_6  and  N_25
REMARK    8  A    between atoms: C_10  and  N_21
REMARK    9  A    between atoms: C_13  and  C_18
REMARK   10  A    between atoms: C_15  and  O_17
REMARK   11  A    between atoms: C_18  and  O_20
REMARK   12  A    between atoms: C_26  and  C_28
REMARK                            x       y       z     vdW  Elec       q    Type
REMARK                         _______ _______ _______ _____ _____    ______ ____
ROOT
ATOM      1  C   UNL     1       4.976  -1.704   0.364  0.00  0.00    +0.079 C 
ATOM      2  C   UNL     1       4.686  -3.214   0.522  0.00  0.00    +0.137 C 
ATOM      3  C   UNL     1       4.481  -3.479   2.017  0.00  0.00    +0.130 C 
ATOM      4  C   UNL     1       5.036  -2.242   2.721  0.00  0.00    +0.062 C 
ATOM      5  C   UNL     1       4.713  -1.104   1.759  0.00  0.00    +0.196 C 
ENDROOT
BRANCH   5   6
ATOM      6  N   UNL     1       5.580   0.040   1.980  0.00  0.00    -0.110 NA
ATOM      7  C   UNL     1       5.197   1.031   2.695  0.00  0.00    +0.377 C 
ATOM      8  N   UNL     1       5.996   2.105   2.843  0.00  0.00    -0.289 N 
ATOM      9  H   UNL     1       5.500   2.987   2.738  0.00  0.00    +0.255 HD
ATOM     10  H   UNL     1       6.764   2.048   2.177  0.00  0.00    +0.255 HD
ATOM     11  N   UNL     1       4.044   1.223   3.375  0.00  0.00    -0.289 N 
ATOM     12  H   UNL     1       4.204   1.750   4.227  0.00  0.00    +0.255 HD
ATOM     13  H   UNL     1       3.534   0.379   3.586  0.00  0.00    +0.255 HD
ENDBRANCH   5   6
BRANCH   2  14
ATOM     14  O   UNL     1       3.559  -3.710  -0.192  0.00  0.00    -0.391 OA
ATOM     15  H   UNL     1       2.762  -3.248   0.125  0.00  0.00    +0.210 HD
ENDBRANCH   2  14
BRANCH   3  16
ATOM     16  C   UNL     1       5.166  -4.757   2.446  0.00  0.00    +0.310 C 
ATOM     17  O   UNL     1       5.983  -4.842   3.349  0.00  0.00    -0.251 OA
BRANCH  16  18
ATOM     18  O   UNL     1       4.724  -5.845   1.771  0.00  0.00    -0.480 OA
ATOM     19  H   UNL     1       4.072  -5.643   1.067  0.00  0.00    +0.295 HD
ENDBRANCH  16  18
ENDBRANCH   3  16
BRANCH   1  20
ATOM     20  C   UNL     1       4.442  -0.958  -0.901  0.00  0.00    +0.085 C 
BRANCH  20  21
ATOM     21  N   UNL     1       5.049  -1.615  -2.079  0.00  0.00    -0.312 N 
ATOM     22  H   UNL     1       4.790  -2.579  -2.254  0.00  0.00    +0.149 HD
ATOM     23  C   UNL     1       6.015  -1.031  -2.867  0.00  0.00    +0.210 C 
ATOM     24  C   UNL     1       6.497  -1.893  -4.007  0.00  0.00    +0.109 C 
ATOM     25  O   UNL     1       6.460   0.097  -2.687  0.00  0.00    -0.276 OA
ENDBRANCH  20  21
BRANCH  20  26
ATOM     26  C   UNL     1       2.892  -0.812  -1.151  0.00  0.00    +0.009 C 
BRANCH  26  28
ATOM     27  C   UNL     1       0.620  -0.072  -0.112  0.00  0.00    +0.004 C 
ATOM     28  C   UNL     1       2.134  -0.136   0.010  0.00  0.00    +0.002 C 
ENDBRANCH  26  28
BRANCH  26  29
ATOM     29  C   UNL     1       2.568  -0.124  -2.507  0.00  0.00    +0.002 C 
ATOM     30  C   UNL     1       3.101   1.291  -2.679  0.00  0.00    +0.004 C 
ENDBRANCH  26  29
ENDBRANCH  20  26
ENDBRANCH   1  20
TORSDOF 9
REMARK  Name = 
REMARK  12 active torsions:
REMARK  status: ('A' for Active; 'I' for Inactive)
REMARK    1  A    between atoms: C_1  and  C_2
REMARK    2  A    between atoms: C_2  and  C_3
REMARK    3  A    between atoms: C_3  and  C_4
REMARK    4  A    between atoms: C_3  and  C_6
REMARK    5  A    between atoms: C_4  and  C_5
REMARK    6  A    between atoms: C_6  and  C_8
REMARK    7  A    between atoms: C_6  and  N_25
REMARK    8  A    between atoms: C_10  and  N_21
REMARK    9  A    between atoms: C_13  and  C_18
REMARK   10  A    between atoms: C_15  and  O_17
REMARK   11  A    between atoms: C_18  and  O_20
REMARK   12  A    between atoms: C_26  and  C_28
REMARK                            x       y       z     vdW  Elec       q    Type
REMARK                         _______ _______ _______ _____ _____    ______ ____
ROOT
ATOM      1  O   HOH     1       0.498   3.188  -1.203  0.00  0.00    -0.410 OA
ATOM      2  H   HOH     0       0.962   2.890  -0.405  0.00  0.00    +0.205 HD
ATOM      3  H   HOH     0       0.763   2.545  -1.878  0.00  0.00    +0.205 HD
ENDROOT
TORSDOF 0
