REMARK  Name = 
REMARK  11 active torsions:
REMARK  status: ('A' for Active; 'I' for Inactive)
REMARK    1  A    between atoms: C_1  and  C_2
REMARK    2  A    between atoms: C_5  and  C_7
REMARK    3  A    between atoms: N_9  and  C_10
REMARK    4  A    between atoms: C_10  and  C_11
REMARK    5  A    between atoms: C_10  and  C_12
REMARK    6  A    between atoms: C_10  and  C_13
REMARK    7  A    between atoms: C_15  and  C_22
REMARK    8  A    between atoms: C_16  and  O_21
REMARK    9  A    between atoms: N_19  and  C_20
REMARK   10  A    between atoms: N_24  and  C_25
REMARK   11  A    between atoms: C_25  and  C_26
REMARK                            x       y       z     vdW  Elec       q    Type
REMARK                         _______ _______ _______ _____ _____    ______ ____
ROOT
ATOM      1  C   UNL     1       5.583  -5.705  -0.089  0.00  0.00    +0.045 A 
ATOM      2  N   UNL     1       4.173  -5.884  -0.049  0.00  0.00    -0.310 N 
ATOM      3  C   UNL     1       3.198  -4.813  -0.049  0.00  0.00    +0.152 C 
ATOM      4  C   UNL     1       3.589  -7.159   0.009  0.00  0.00    +0.294 A 
ATOM      5  O   UNL     1       2.380  -7.395   0.088  0.00  0.00    -0.264 OA
ATOM      6  C   UNL     1       4.471  -8.356  -0.010  0.00  0.00    +0.194 A 
ATOM      7  C   UNL     1       5.795  -8.186  -0.105  0.00  0.00    +0.085 A 
ATOM      8  C   UNL     1       6.332  -6.839  -0.117  0.00  0.00    +0.040 A 
ENDROOT
BRANCH   7   9
ATOM      9  C   UNL     1       6.736  -9.364  -0.097  0.00  0.00    +0.248 C 
ATOM     10  N   UNL     1       6.219 -10.539  -0.579  0.00  0.00    -0.307 N 
ATOM     11  H   UNL     1       5.243 -10.552  -0.856  0.00  0.00    +0.149 HD
ATOM     12  O   UNL     1       7.889  -9.243   0.306  0.00  0.00    -0.270 OA
BRANCH  10  13
ATOM     13  C   UNL     1       6.912 -11.802  -0.528  0.00  0.00    +0.139 C 
BRANCH  13  14
ATOM     14  C   UNL     1       7.613 -12.094  -1.828  0.00  0.00    -0.030 A 
ATOM     15  C   UNL     1       6.938 -12.715  -2.891  0.00  0.00    +0.008 A 
ATOM     16  C   UNL     1       7.593 -12.939  -4.104  0.00  0.00    +0.038 A 
ATOM     17  C   UNL     1       8.916 -12.539  -4.253  0.00  0.00    +0.123 A 
ATOM     18  F   UNL     1       9.539 -12.743  -5.421  0.00  0.00    -0.205 F 
ATOM     19  C   UNL     1       9.600 -11.922  -3.213  0.00  0.00    +0.038 A 
ATOM     20  C   UNL     1       8.947 -11.696  -2.002  0.00  0.00    +0.008 A 
ENDBRANCH  13  14
ENDBRANCH  10  13
ENDBRANCH   7   9
BRANCH   1  21
ATOM     21  C   UNL     1       6.389  -4.319  -0.079  0.00  0.00    +0.070 C 
ATOM     22  C   UNL     1       7.268  -4.295   1.199  0.00  0.00    +0.038 C 
ATOM     23  C   UNL     1       7.290  -4.274  -1.339  0.00  0.00    +0.038 C 
BRANCH  21  25
ATOM     24  C   UNL     1       5.992  -1.785  -0.032  0.00  0.00    +0.301 C 
ATOM     25  N   UNL     1       5.553  -3.107  -0.077  0.00  0.00    -0.297 N 
ATOM     26  H   UNL     1       4.577  -3.163  -0.292  0.00  0.00    +0.150 HD
ATOM     27  O   UNL     1       7.177  -1.471   0.027  0.00  0.00    -0.265 OA
BRANCH  24  31
ATOM     28  C   UNL     1       3.708   2.496  -0.074  0.00  0.00    +0.111 C 
ATOM     29  C   UNL     1       3.864   1.032  -0.091  0.00  0.00    +0.215 A 
ATOM     30  O   UNL     1       5.141   0.532  -0.049  0.00  0.00    -0.417 OA
ATOM     31  C   UNL     1       4.904  -0.819  -0.074  0.00  0.00    +0.304 A 
ATOM     32  N   UNL     1       3.617  -1.115  -0.136  0.00  0.00    -0.102 NA
ATOM     33  N   UNL     1       2.947   0.088  -0.142  0.00  0.00    -0.112 NA
ENDBRANCH  24  31
ENDBRANCH  21  25
ENDBRANCH   1  21
BRANCH   6  34
ATOM     34  O   UNL     1       3.849  -9.592   0.105  0.00  0.00    -0.502 OA
ATOM     35  H   UNL     1       2.917  -9.375   0.333  0.00  0.00    +0.292 HD
ENDBRANCH   6  34
TORSDOF 7
