REMARK  Name = 
REMARK  13 active torsions:
REMARK  status: ('A' for Active; 'I' for Inactive)
REMARK    1  A    between atoms: C_1  and  C_2
REMARK    2  A    between atoms: C_2  and  O_3
REMARK    3  A    between atoms: O_3  and  C_4
REMARK    4  A    between atoms: C_4  and  C_6
REMARK    5  A    between atoms: C_7  and  C_22
REMARK    6  A    between atoms: N_8  and  C_21
REMARK    7  A    between atoms: C_12  and  O_19
REMARK    8  A    between atoms: C_13  and  C_15
REMARK    9  A    between atoms: C_15  and  N_16
REMARK   10  A    between atoms: N_16  and  C_17
REMARK   11  A    between atoms: N_16  and  C_18
REMARK   12  A    between atoms: C_22  and  S_23
REMARK   13  A    between atoms: S_23  and  C_24
REMARK                            x       y       z     vdW  Elec       q    Type
REMARK                         _______ _______ _______ _____ _____    ______ ____
ROOT
ATOM      1  C   UNL     1       4.882   2.208  -2.149  0.00  0.00    +0.089 A 
ATOM      2  C   UNL     1       4.631   3.633  -2.001  0.00  0.00    +0.022 A 
ATOM      3  C   UNL     1       5.091   4.219  -3.190  0.00  0.00    +0.051 A 
ATOM      4  C   UNL     1       5.028   5.602  -3.431  0.00  0.00    +0.045 A 
ATOM      5  C   UNL     1       4.559   6.424  -2.416  0.00  0.00    +0.062 A 
ATOM      6 BR   UNL     1       4.512   8.299  -2.731  0.00  0.00    -0.046 Br
ATOM      7  C   UNL     1       4.120   5.890  -1.210  0.00  0.00    +0.136 A 
ATOM      8  N   UNL     1       5.573   3.215  -4.017  0.00  0.00    -0.345 N 
ATOM      9  C   UNL     1       6.050   3.508  -5.356  0.00  0.00    +0.149 C 
ATOM     10  C   UNL     1       4.049   4.486  -0.987  0.00  0.00    +0.019 A 
ATOM     11  C   UNL     1       5.558   2.000  -3.368  0.00  0.00    +0.044 A 
ENDROOT
BRANCH   1  12
ATOM     12  C   UNL     1       4.573   1.135  -1.198  0.00  0.00    +0.342 C 
ATOM     13  O   UNL     1       4.579   1.269   0.018  0.00  0.00    -0.245 OA
BRANCH  12  14
ATOM     14  O   UNL     1       4.289  -0.050  -1.824  0.00  0.00    -0.461 OA
BRANCH  14  16
ATOM     15  C   UNL     1       5.342  -1.691  -0.365  0.00  0.00    +0.048 C 
ATOM     16  C   UNL     1       4.047  -1.176  -0.970  0.00  0.00    +0.229 C 
ENDBRANCH  14  16
ENDBRANCH  12  14
ENDBRANCH   1  12
BRANCH   7  17
ATOM     17  O   UNL     1       3.750   6.749  -0.202  0.00  0.00    -0.505 OA
ATOM     18  H   UNL     1       3.767   7.655  -0.557  0.00  0.00    +0.292 HD
ENDBRANCH   7  17
BRANCH  10  19
ATOM     19  C   UNL     1       3.451   3.914   0.298  0.00  0.00    +0.123 C 
BRANCH  19  20
ATOM     20  N   UNL     1       2.410   4.693   1.005  0.00  0.00    -0.304 NA
ATOM     21  C   UNL     1       2.090   4.064   2.286  0.00  0.00    +0.104 C 
ATOM     22  C   UNL     1       1.196   4.859   0.210  0.00  0.00    +0.104 C 
ENDBRANCH  19  20
ENDBRANCH  10  19
BRANCH  11  23
ATOM     23  C   UNL     1       6.116   0.686  -3.896  0.00  0.00    +0.128 C 
BRANCH  23  24
ATOM     24  S   UNL     1       7.726   0.769  -4.745  0.00  0.00    -0.119 S 
BRANCH  24  25
ATOM     25  C   UNL     1       8.035  -0.941  -5.197  0.00  0.00    +0.008 A 
ATOM     26  C   UNL     1       7.803  -2.020  -4.336  0.00  0.00    +0.015 A 
ATOM     27  C   UNL     1       8.204  -3.315  -4.689  0.00  0.00    +0.001 A 
ATOM     28  C   UNL     1       8.836  -3.547  -5.909  0.00  0.00    +0.000 A 
ATOM     29  C   UNL     1       9.050  -2.485  -6.784  0.00  0.00    +0.001 A 
ATOM     30  C   UNL     1       8.652  -1.196  -6.432  0.00  0.00    +0.015 A 
ENDBRANCH  24  25
ENDBRANCH  23  24
ENDBRANCH  11  23
TORSDOF 9
