REMARK  Name = 
REMARK  13 active torsions:
REMARK  status: ('A' for Active; 'I' for Inactive)
REMARK    1  A    between atoms: C_1  and  C_2
REMARK    2  A    between atoms: C_2  and  O_3
REMARK    3  A    between atoms: O_3  and  C_4
REMARK    4  A    between atoms: C_4  and  C_6
REMARK    5  A    between atoms: C_7  and  C_22
REMARK    6  A    between atoms: N_8  and  C_21
REMARK    7  A    between atoms: C_12  and  O_19
REMARK    8  A    between atoms: C_13  and  C_15
REMARK    9  A    between atoms: C_15  and  N_16
REMARK   10  A    between atoms: N_16  and  C_17
REMARK   11  A    between atoms: N_16  and  C_18
REMARK   12  A    between atoms: C_22  and  S_23
REMARK   13  A    between atoms: S_23  and  C_24
REMARK                            x       y       z     vdW  Elec       q    Type
REMARK                         _______ _______ _______ _____ _____    ______ ____
ROOT
ATOM      1  C   UNL     1       4.878  -3.072   0.499  0.00  0.00    +0.089 A 
ATOM      2  C   UNL     1       6.122  -3.445   1.162  0.00  0.00    +0.022 A 
ATOM      3  C   UNL     1       6.135  -4.844   1.179  0.00  0.00    +0.051 A 
ATOM      4  C   UNL     1       7.159  -5.591   1.786  0.00  0.00    +0.045 A 
ATOM      5  C   UNL     1       8.165  -4.909   2.453  0.00  0.00    +0.062 A 
ATOM      6 BR   UNL     1       9.525  -5.921   3.309  0.00  0.00    -0.046 Br
ATOM      7  C   UNL     1       8.184  -3.517   2.472  0.00  0.00    +0.136 A 
ATOM      8  N   UNL     1       5.010  -5.301   0.509  0.00  0.00    -0.345 N 
ATOM      9  C   UNL     1       4.793  -6.721   0.301  0.00  0.00    +0.149 C 
ATOM     10  C   UNL     1       7.235  -2.738   1.755  0.00  0.00    +0.019 A 
ATOM     11  C   UNL     1       4.185  -4.252   0.164  0.00  0.00    +0.044 A 
ENDROOT
BRANCH   1  12
ATOM     12  C   UNL     1       4.337  -1.721   0.293  0.00  0.00    +0.342 C 
ATOM     13  O   UNL     1       4.526  -0.794   1.075  0.00  0.00    -0.245 OA
BRANCH  12  14
ATOM     14  O   UNL     1       3.560  -1.617  -0.825  0.00  0.00    -0.461 OA
BRANCH  14  16
ATOM     15  C   UNL     1       3.051   0.394  -2.081  0.00  0.00    +0.048 C 
ATOM     16  C   UNL     1       2.685  -0.479  -0.899  0.00  0.00    +0.229 C 
ENDBRANCH  14  16
ENDBRANCH  12  14
ENDBRANCH   1  12
BRANCH   7  17
ATOM     17  O   UNL     1       9.155  -2.886   3.211  0.00  0.00    -0.505 OA
ATOM     18  H   UNL     1       9.775  -3.557   3.541  0.00  0.00    +0.292 HD
ENDBRANCH   7  17
BRANCH  10  19
ATOM     19  C   UNL     1       7.373  -1.217   1.672  0.00  0.00    +0.123 C 
BRANCH  19  20
ATOM     20  N   UNL     1       8.737  -0.641   1.672  0.00  0.00    -0.304 NA
ATOM     21  C   UNL     1       8.672   0.819   1.713  0.00  0.00    +0.104 C 
ATOM     22  C   UNL     1       9.545  -1.081   0.539  0.00  0.00    +0.104 C 
ENDBRANCH  19  20
ENDBRANCH  10  19
BRANCH  11  23
ATOM     23  C   UNL     1       2.811  -4.374  -0.484  0.00  0.00    +0.128 C 
BRANCH  23  24
ATOM     24  S   UNL     1       1.713  -5.665   0.187  0.00  0.00    -0.119 S 
BRANCH  24  25
ATOM     25  C   UNL     1       0.265  -5.557  -0.869  0.00  0.00    +0.008 A 
ATOM     26  C   UNL     1      -0.344  -4.345  -1.215  0.00  0.00    +0.015 A 
ATOM     27  C   UNL     1      -1.563  -4.332  -1.906  0.00  0.00    +0.001 A 
ATOM     28  C   UNL     1      -2.186  -5.527  -2.259  0.00  0.00    +0.000 A 
ATOM     29  C   UNL     1      -1.578  -6.739  -1.945  0.00  0.00    +0.001 A 
ATOM     30  C   UNL     1      -0.361  -6.752  -1.253  0.00  0.00    +0.015 A 
ENDBRANCH  24  25
ENDBRANCH  23  24
ENDBRANCH  11  23
TORSDOF 9
