REMARK  Name = 
REMARK  19 active torsions:
REMARK  status: ('A' for Active; 'I' for Inactive)
REMARK    1  A    between atoms: C_1  and  C_2
REMARK    2  A    between atoms: C_2  and  C_3
REMARK    3  A    between atoms: C_2  and  C_4
REMARK    4  A    between atoms: C_4  and  N_5
REMARK    5  A    between atoms: N_5  and  C_6
REMARK    6  A    between atoms: N_5  and  S_33
REMARK    7  A    between atoms: C_6  and  C_7
REMARK    8  A    between atoms: C_7  and  C_9
REMARK    9  A    between atoms: C_7  and  O_28
REMARK   10  A    between atoms: C_9  and  C_11
REMARK   11  A    between atoms: C_9  and  N_18
REMARK   12  A    between atoms: C_11  and  C_12
REMARK   13  A    between atoms: C_19  and  O_21
REMARK   14  A    between atoms: O_21  and  C_22
REMARK   15  A    between atoms: O_28  and  P_29
REMARK   16  A    between atoms: P_29  and  O_31
REMARK   17  A    between atoms: P_29  and  O_32
REMARK   18  A    between atoms: S_33  and  C_36
REMARK   19  A    between atoms: C_39  and  N_42
REMARK                            x       y       z     vdW  Elec       q    Type
REMARK                         _______ _______ _______ _____ _____    ______ ____
ROOT
ATOM      1  C   UNL     1       2.206   1.976  -0.380  0.00  0.00    +0.166 C 
ENDROOT
BRANCH   1   2
ATOM      2  C   UNL     1       3.026   0.675  -0.741  0.00  0.00    +0.111 C 
BRANCH   2   3
ATOM      3  N   UNL     1       2.364  -0.597  -0.363  0.00  0.00    -0.275 N 
ATOM      4  H   UNL     1       2.348  -1.360  -1.027  0.00  0.00    +0.152 HD
ATOM      5  C   UNL     1       2.114  -0.953   0.942  0.00  0.00    +0.401 C 
ATOM      6  O   UNL     1       2.214  -0.201   1.893  0.00  0.00    -0.226 OA
BRANCH   5   7
ATOM      7  O   UNL     1       1.802  -2.282   1.030  0.00  0.00    -0.445 OA
BRANCH   7   8
ATOM      8  C   UNL     1       1.535  -2.768   2.364  0.00  0.00    +0.206 C 
ATOM      9  C   UNL     1       2.713  -2.671   3.334  0.00  0.00    +0.204 C 
ATOM     10  O   UNL     1       2.700  -3.839   4.175  0.00  0.00    -0.376 OA
ATOM     11  C   UNL     1       1.607  -4.669   3.772  0.00  0.00    +0.163 C 
ATOM     12  C   UNL     1       1.273  -4.263   2.354  0.00  0.00    +0.075 C 
ENDBRANCH   7   8
ENDBRANCH   5   7
ENDBRANCH   2   3
BRANCH   2  13
ATOM     13  C   UNL     1       3.740   0.577  -2.130  0.00  0.00    +0.060 C 
BRANCH  13  14
ATOM     14  C   UNL     1       3.112  -0.052  -3.362  0.00  0.00    -0.046 A 
ATOM     15  C   UNL     1       3.969  -0.460  -4.418  0.00  0.00    +0.004 A 
ATOM     16  C   UNL     1       3.472  -1.096  -5.559  0.00  0.00    +0.000 A 
ATOM     17  C   UNL     1       2.108  -1.333  -5.681  0.00  0.00    +0.000 A 
ATOM     18  C   UNL     1       1.244  -0.907  -4.669  0.00  0.00    +0.000 A 
ATOM     19  C   UNL     1       1.745  -0.263  -3.526  0.00  0.00    +0.004 A 
ENDBRANCH  13  14
ENDBRANCH   2  13
ENDBRANCH   1   2
BRANCH   1  20
ATOM     20  O   UNL     1       1.152   2.361  -1.364  0.00  0.00    -0.280 OA
BRANCH  20  21
ATOM     21  P   UNL     1      -0.036   3.418  -0.683  0.00  0.00    +0.473 P 
ATOM     22  O   UNL     1      -0.471   3.912  -2.058  0.00  0.00    -0.228 OA
BRANCH  21  23
ATOM     23  O   UNL     1      -1.017   2.158  -0.384  0.00  0.00    -0.303 OA
ATOM     24  H   UNL     1      -1.585   2.015  -1.163  0.00  0.00    +0.222 HD
ENDBRANCH  21  23
BRANCH  21  25
ATOM     25  O   UNL     1      -1.224   4.475  -0.003  0.00  0.00    -0.303 OA
ATOM     26  H   UNL     1      -1.783   4.710  -0.771  0.00  0.00    +0.222 HD
ENDBRANCH  21  25
ENDBRANCH  20  21
ENDBRANCH   1  20
BRANCH   1  27
ATOM     27  C   UNL     1       3.060   3.253  -0.191  0.00  0.00    +0.143 C 
BRANCH  27  28
ATOM     28  N   UNL     1       4.293   3.430   0.719  0.00  0.00    -0.174 NA
BRANCH  28  29
ATOM     29  S   UNL     1       4.774   5.140   0.550  0.00  0.00    +0.061 S 
ATOM     30  O   UNL     1       4.755   5.449  -0.871  0.00  0.00    -0.153 OA
ATOM     31  O   UNL     1       5.966   5.397   1.321  0.00  0.00    -0.153 OA
BRANCH  29  32
ATOM     32  C   UNL     1       3.405   6.050   1.286  0.00  0.00    +0.106 A 
ATOM     33  C   UNL     1       2.347   6.511   0.489  0.00  0.00    +0.030 A 
ATOM     34  C   UNL     1       1.255   7.159   1.083  0.00  0.00    +0.024 A 
ATOM     35  C   UNL     1       1.201   7.350   2.466  0.00  0.00    +0.025 A 
ATOM     36  C   UNL     1       2.318   6.997   3.229  0.00  0.00    +0.024 A 
ATOM     37  C   UNL     1       3.411   6.341   2.649  0.00  0.00    +0.030 A 
BRANCH  35  38
ATOM     38  N   UNL     1       0.164   8.096   3.037  0.00  0.00    -0.358 N 
ATOM     39  H   UNL     1      -0.716   8.038   2.533  0.00  0.00    +0.142 HD
ATOM     40  H   UNL     1       0.040   7.940   4.034  0.00  0.00    +0.142 HD
ENDBRANCH  35  38
ENDBRANCH  29  32
ENDBRANCH  28  29
BRANCH  28  41
ATOM     41  C   UNL     1       4.163   2.903   2.140  0.00  0.00    +0.112 C 
BRANCH  41  43
ATOM     42  C   UNL     1       6.589   1.905   2.583  0.00  0.00    +0.008 C 
ATOM     43  C   UNL     1       5.399   2.720   3.099  0.00  0.00    -0.001 C 
ATOM     44  C   UNL     1       5.899   3.921   3.917  0.00  0.00    +0.008 C 
ENDBRANCH  41  43
ENDBRANCH  28  41
ENDBRANCH  27  28
ENDBRANCH   1  27
TORSDOF 17
