REMARK  Name = 
REMARK  19 active torsions:
REMARK  status: ('A' for Active; 'I' for Inactive)
REMARK    1  A    between atoms: C_1  and  C_2
REMARK    2  A    between atoms: C_2  and  C_3
REMARK    3  A    between atoms: C_2  and  C_4
REMARK    4  A    between atoms: C_4  and  N_5
REMARK    5  A    between atoms: N_5  and  C_6
REMARK    6  A    between atoms: N_5  and  S_33
REMARK    7  A    between atoms: C_6  and  C_7
REMARK    8  A    between atoms: C_7  and  C_9
REMARK    9  A    between atoms: C_7  and  O_28
REMARK   10  A    between atoms: C_9  and  C_11
REMARK   11  A    between atoms: C_9  and  N_18
REMARK   12  A    between atoms: C_11  and  C_12
REMARK   13  A    between atoms: C_19  and  O_21
REMARK   14  A    between atoms: O_21  and  C_22
REMARK   15  A    between atoms: O_28  and  P_29
REMARK   16  A    between atoms: P_29  and  O_31
REMARK   17  A    between atoms: P_29  and  O_32
REMARK   18  A    between atoms: S_33  and  C_36
REMARK   19  A    between atoms: C_39  and  N_42
REMARK                            x       y       z     vdW  Elec       q    Type
REMARK                         _______ _______ _______ _____ _____    ______ ____
ROOT
ATOM      1  C   UNL     1       2.846   0.155   2.016  0.00  0.00    +0.166 C 
ENDROOT
BRANCH   1   2
ATOM      2  C   UNL     1       1.519  -0.564   2.331  0.00  0.00    +0.143 C 
BRANCH   2   3
ATOM      3  N   UNL     1       0.166   0.039   2.051  0.00  0.00    -0.174 NA
BRANCH   3   4
ATOM      4  S   UNL     1      -1.102  -1.159   2.510  0.00  0.00    +0.061 S 
ATOM      5  O   UNL     1      -0.737  -2.433   1.927  0.00  0.00    -0.153 OA
ATOM      6  O   UNL     1      -2.394  -0.561   2.245  0.00  0.00    -0.153 OA
BRANCH   4   7
ATOM      7  C   UNL     1      -0.949  -1.336   4.298  0.00  0.00    +0.106 A 
ATOM      8  C   UNL     1      -0.022  -2.234   4.839  0.00  0.00    +0.030 A 
ATOM      9  C   UNL     1       0.160  -2.303   6.228  0.00  0.00    +0.024 A 
ATOM     10  C   UNL     1      -0.640  -1.552   7.094  0.00  0.00    +0.025 A 
ATOM     11  C   UNL     1      -1.603  -0.702   6.543  0.00  0.00    +0.024 A 
ATOM     12  C   UNL     1      -1.780  -0.607   5.154  0.00  0.00    +0.030 A 
BRANCH  10  13
ATOM     13  N   UNL     1      -0.320  -1.471   8.455  0.00  0.00    -0.358 N 
ATOM     14  H   UNL     1       0.161  -2.283   8.829  0.00  0.00    +0.142 HD
ATOM     15  H   UNL     1      -1.088  -1.176   9.051  0.00  0.00    +0.142 HD
ENDBRANCH  10  13
ENDBRANCH   4   7
ENDBRANCH   3   4
BRANCH   3  16
ATOM     16  C   UNL     1      -0.188   1.395   2.606  0.00  0.00    +0.112 C 
BRANCH  16  18
ATOM     17  C   UNL     1       0.431   2.862   0.579  0.00  0.00    +0.008 C 
ATOM     18  C   UNL     1       0.618   2.593   2.075  0.00  0.00    -0.001 C 
ATOM     19  C   UNL     1       0.274   3.877   2.846  0.00  0.00    +0.008 C 
ENDBRANCH  16  18
ENDBRANCH   3  16
ENDBRANCH   2   3
ENDBRANCH   1   2
BRANCH   1  20
ATOM     20  C   UNL     1       3.061   0.606   0.534  0.00  0.00    +0.111 C 
BRANCH  20  21
ATOM     21  N   UNL     1       3.919   1.810   0.487  0.00  0.00    -0.275 N 
ATOM     22  H   UNL     1       3.469   2.713   0.430  0.00  0.00    +0.152 HD
ATOM     23  C   UNL     1       5.258   1.875   0.720  0.00  0.00    +0.401 C 
ATOM     24  O   UNL     1       6.011   0.929   0.869  0.00  0.00    -0.226 OA
BRANCH  23  25
ATOM     25  O   UNL     1       5.624   3.182   0.781  0.00  0.00    -0.445 OA
BRANCH  25  26
ATOM     26  C   UNL     1       7.024   3.503   0.889  0.00  0.00    +0.206 C 
ATOM     27  C   UNL     1       7.786   2.856   2.034  0.00  0.00    +0.204 C 
ATOM     28  O   UNL     1       8.866   3.743   2.362  0.00  0.00    -0.376 OA
ATOM     29  C   UNL     1       8.492   5.068   1.971  0.00  0.00    +0.163 C 
ATOM     30  C   UNL     1       7.179   4.978   1.219  0.00  0.00    +0.075 C 
ENDBRANCH  25  26
ENDBRANCH  23  25
ENDBRANCH  20  21
BRANCH  20  31
ATOM     31  C   UNL     1       3.476  -0.512  -0.450  0.00  0.00    +0.060 C 
BRANCH  31  32
ATOM     32  C   UNL     1       3.434  -0.160  -1.933  0.00  0.00    -0.046 A 
ATOM     33  C   UNL     1       2.302  -0.446  -2.717  0.00  0.00    +0.004 A 
ATOM     34  C   UNL     1       2.327  -0.289  -4.106  0.00  0.00    +0.000 A 
ATOM     35  C   UNL     1       3.489   0.175  -4.734  0.00  0.00    +0.000 A 
ATOM     36  C   UNL     1       4.591   0.515  -3.970  0.00  0.00    +0.000 A 
ATOM     37  C   UNL     1       4.569   0.345  -2.578  0.00  0.00    +0.004 A 
ENDBRANCH  31  32
ENDBRANCH  20  31
ENDBRANCH   1  20
BRANCH   1  38
ATOM     38  O   UNL     1       3.890  -0.753   2.398  0.00  0.00    -0.280 OA
BRANCH  38  39
ATOM     39  P   UNL     1       4.324  -0.906   3.933  0.00  0.00    +0.473 P 
ATOM     40  O   UNL     1       4.573  -2.295   4.400  0.00  0.00    -0.228 OA
BRANCH  39  41
ATOM     41  O   UNL     1       3.197  -0.175   4.801  0.00  0.00    -0.303 OA
ATOM     42  H   UNL     1       3.171  -0.538   5.708  0.00  0.00    +0.222 HD
ENDBRANCH  39  41
BRANCH  39  43
ATOM     43  O   UNL     1       5.562   0.074   4.109  0.00  0.00    -0.303 OA
ATOM     44  H   UNL     1       6.373  -0.326   3.742  0.00  0.00    +0.222 HD
ENDBRANCH  39  43
ENDBRANCH  38  39
ENDBRANCH   1  38
TORSDOF 17
