REMARK  Name = 
REMARK  17 active torsions:
REMARK  status: ('A' for Active; 'I' for Inactive)
REMARK    1  A    between atoms: C_1  and  C_2
REMARK    2  A    between atoms: C_2  and  C_3
REMARK    3  A    between atoms: C_2  and  C_4
REMARK    4  A    between atoms: C_4  and  N_5
REMARK    5  A    between atoms: N_5  and  C_6
REMARK    6  A    between atoms: N_5  and  S_33
REMARK    7  A    between atoms: C_6  and  C_7
REMARK    8  A    between atoms: C_7  and  C_9
REMARK    9  A    between atoms: C_7  and  O_28
REMARK   10  A    between atoms: C_9  and  C_11
REMARK   11  A    between atoms: C_9  and  N_18
REMARK   12  A    between atoms: C_11  and  C_12
REMARK   13  A    between atoms: C_19  and  O_21
REMARK   14  A    between atoms: O_21  and  C_22
REMARK   15  A    between atoms: O_28  and  P_29
REMARK   16  A    between atoms: S_33  and  C_36
REMARK   17  A    between atoms: C_39  and  N_42
REMARK                            x       y       z     vdW  Elec       q    Type
REMARK                         _______ _______ _______ _____ _____    ______ ____
ROOT
ATOM      1  C   UNL     1       2.384  -0.442   2.466  0.00  0.00    +0.158 C 
ENDROOT
BRANCH   1   2
ATOM      2  C   UNL     1       1.489  -1.658   2.032  0.00  0.00    +0.143 C 
BRANCH   2   3
ATOM      3  N   UNL     1       0.841  -2.423   3.180  0.00  0.00    -0.174 NA
BRANCH   3   4
ATOM      4  S   UNL     1      -0.258  -1.412   4.032  0.00  0.00    +0.061 S 
ATOM      5  O   UNL     1      -1.203  -0.924   3.029  0.00  0.00    -0.153 OA
ATOM      6  O   UNL     1       0.424  -0.388   4.788  0.00  0.00    -0.153 OA
BRANCH   4   7
ATOM      7  C   UNL     1      -1.130  -2.396   5.198  0.00  0.00    +0.106 A 
ATOM      8  C   UNL     1      -2.513  -2.399   5.166  0.00  0.00    +0.030 A 
ATOM      9  C   UNL     1      -3.219  -3.110   6.134  0.00  0.00    +0.024 A 
ATOM     10  C   UNL     1      -2.535  -3.841   7.111  0.00  0.00    +0.025 A 
ATOM     11  C   UNL     1      -1.141  -3.744   7.176  0.00  0.00    +0.024 A 
ATOM     12  C   UNL     1      -0.424  -3.033   6.213  0.00  0.00    +0.030 A 
BRANCH  10  13
ATOM     13  N   UNL     1      -3.250  -4.461   8.140  0.00  0.00    -0.358 N 
ATOM     14  H   UNL     1      -4.174  -4.776   7.864  0.00  0.00    +0.142 HD
ATOM     15  H   UNL     1      -2.725  -5.194   8.608  0.00  0.00    +0.142 HD
ENDBRANCH  10  13
ENDBRANCH   4   7
ENDBRANCH   3   4
BRANCH   3  16
ATOM     16  C   UNL     1       0.254  -3.756   2.715  0.00  0.00    +0.112 C 
BRANCH  16  18
ATOM     17  C   UNL     1       2.343  -5.253   2.434  0.00  0.00    +0.008 C 
ATOM     18  C   UNL     1       1.103  -4.651   1.771  0.00  0.00    -0.001 C 
ATOM     19  C   UNL     1       0.242  -5.800   1.216  0.00  0.00    +0.008 C 
ENDBRANCH  16  18
ENDBRANCH   3  16
ENDBRANCH   2   3
ENDBRANCH   1   2
BRANCH   1  20
ATOM     20  C   UNL     1       2.501   0.737   1.315  0.00  0.00    +0.111 C 
BRANCH  20  21
ATOM     21  N   UNL     1       1.192   0.982   0.596  0.00  0.00    -0.275 N 
ATOM     22  H   UNL     1       0.923   0.119   0.127  0.00  0.00    +0.152 HD
ATOM     23  C   UNL     1       0.968   1.960  -0.339  0.00  0.00    +0.401 C 
ATOM     24  O   UNL     1       1.776   2.795  -0.742  0.00  0.00    -0.226 OA
BRANCH  23  25
ATOM     25  O   UNL     1      -0.322   1.851  -0.754  0.00  0.00    -0.445 OA
BRANCH  25  26
ATOM     26  C   UNL     1      -0.858   2.908  -1.594  0.00  0.00    +0.206 C 
ATOM     27  C   UNL     1      -1.203   4.141  -0.761  0.00  0.00    +0.204 C 
ATOM     28  O   UNL     1      -2.529   4.564  -1.101  0.00  0.00    -0.376 OA
ATOM     29  C   UNL     1      -2.966   3.816  -2.237  0.00  0.00    +0.163 C 
ATOM     30  C   UNL     1      -2.206   2.510  -2.180  0.00  0.00    +0.075 C 
ENDBRANCH  25  26
ENDBRANCH  23  25
ENDBRANCH  20  21
BRANCH  20  31
ATOM     31  C   UNL     1       3.241   2.005   1.821  0.00  0.00    +0.060 C 
BRANCH  31  32
ATOM     32  C   UNL     1       2.419   3.017   2.574  0.00  0.00    -0.046 A 
ATOM     33  C   UNL     1       2.215   4.315   2.085  0.00  0.00    +0.004 A 
ATOM     34  C   UNL     1       1.485   5.247   2.823  0.00  0.00    +0.000 A 
ATOM     35  C   UNL     1       0.924   4.883   4.044  0.00  0.00    +0.000 A 
ATOM     36  C   UNL     1       1.130   3.605   4.549  0.00  0.00    +0.000 A 
ATOM     37  C   UNL     1       1.900   2.691   3.826  0.00  0.00    +0.004 A 
ENDBRANCH  31  32
ENDBRANCH  20  31
ENDBRANCH   1  20
BRANCH   1  38
ATOM     38  O   UNL     1       3.635  -0.942   3.053  0.00  0.00    -0.361 OA
BRANCH  38  39
ATOM     39  P   UNL     1       4.401  -2.035   1.952  0.00  0.00    -0.015 P 
ATOM     40  O   UNL     1       5.167  -3.127   0.850  0.00  0.00    -0.577 OA
ATOM     41  O   UNL     1       5.706  -1.450   2.511  0.00  0.00    -0.577 OA
ATOM     42  O   UNL     1       3.779  -1.291   0.738  0.00  0.00    -0.638 OA
ENDBRANCH  38  39
ENDBRANCH   1  38
TORSDOF 15
REMARK  Name = 
REMARK  17 active torsions:
REMARK  status: ('A' for Active; 'I' for Inactive)
REMARK    1  A    between atoms: C_1  and  C_2
REMARK    2  A    between atoms: C_2  and  C_3
REMARK    3  A    between atoms: C_2  and  C_4
REMARK    4  A    between atoms: C_4  and  N_5
REMARK    5  A    between atoms: N_5  and  C_6
REMARK    6  A    between atoms: N_5  and  S_33
REMARK    7  A    between atoms: C_6  and  C_7
REMARK    8  A    between atoms: C_7  and  C_9
REMARK    9  A    between atoms: C_7  and  O_28
REMARK   10  A    between atoms: C_9  and  C_11
REMARK   11  A    between atoms: C_9  and  N_18
REMARK   12  A    between atoms: C_11  and  C_12
REMARK   13  A    between atoms: C_19  and  O_21
REMARK   14  A    between atoms: O_21  and  C_22
REMARK   15  A    between atoms: O_28  and  P_29
REMARK   16  A    between atoms: S_33  and  C_36
REMARK   17  A    between atoms: C_39  and  N_42
REMARK                            x       y       z     vdW  Elec       q    Type
REMARK                         _______ _______ _______ _____ _____    ______ ____
ROOT
ATOM      1 NA   UNL     1       3.880   2.113  -1.551  0.00  0.00    +0.000 Na
ENDROOT
TORSDOF 0
REMARK  Name = 
REMARK  17 active torsions:
REMARK  status: ('A' for Active; 'I' for Inactive)
REMARK    1  A    between atoms: C_1  and  C_2
REMARK    2  A    between atoms: C_2  and  C_3
REMARK    3  A    between atoms: C_2  and  C_4
REMARK    4  A    between atoms: C_4  and  N_5
REMARK    5  A    between atoms: N_5  and  C_6
REMARK    6  A    between atoms: N_5  and  S_33
REMARK    7  A    between atoms: C_6  and  C_7
REMARK    8  A    between atoms: C_7  and  C_9
REMARK    9  A    between atoms: C_7  and  O_28
REMARK   10  A    between atoms: C_9  and  C_11
REMARK   11  A    between atoms: C_9  and  N_18
REMARK   12  A    between atoms: C_11  and  C_12
REMARK   13  A    between atoms: C_19  and  O_21
REMARK   14  A    between atoms: O_21  and  C_22
REMARK   15  A    between atoms: O_28  and  P_29
REMARK   16  A    between atoms: S_33  and  C_36
REMARK   17  A    between atoms: C_39  and  N_42
REMARK                            x       y       z     vdW  Elec       q    Type
REMARK                         _______ _______ _______ _____ _____    ______ ____
ROOT
ATOM      1 NA   UNL     1      -0.880   1.114   2.105  0.00  0.00    +0.000 Na
ENDROOT
TORSDOF 0
