REMARK  Name = 
REMARK  10 active torsions:
REMARK  status: ('A' for Active; 'I' for Inactive)
REMARK    1  A    between atoms: C_1  and  C_2
REMARK    2  A    between atoms: C_2  and  C_3
REMARK    3  A    between atoms: C_2  and  O_4
REMARK    4  A    between atoms: O_4  and  C_5
REMARK    5  A    between atoms: C_7  and  N_20
REMARK    6  A    between atoms: C_9  and  O_19
REMARK    7  A    between atoms: C_12  and  C_17
REMARK    8  A    between atoms: C_14  and  O_16
REMARK    9  A    between atoms: C_17  and  O_18
REMARK   10  A    between atoms: C_21  and  C_22
REMARK                            x       y       z     vdW  Elec       q    Type
REMARK                         _______ _______ _______ _____ _____    ______ ____
ROOT
ATOM      1  C   UNL     1       4.407   1.459   0.658  0.00  0.00    +0.179 C 
ATOM      2  C   UNL     1       4.777   2.334  -0.580  0.00  0.00    +0.176 C 
ATOM      3  C   UNL     1       4.443   1.714  -1.936  0.00  0.00    +0.178 C 
ATOM      4  O   UNL     1       4.955   0.395  -2.020  0.00  0.00    -0.341 OA
ATOM      5  C   UNL     1       4.380  -0.447  -1.030  0.00  0.00    +0.275 C 
ATOM      6  C   UNL     1       4.752  -0.040   0.433  0.00  0.00    +0.191 C 
ENDROOT
BRANCH   6   7
ATOM      7  N   UNL     1       3.895  -0.960   1.172  0.00  0.00    -0.293 NA
ATOM      8  C   UNL     1       3.876  -1.412   2.364  0.00  0.00    -0.044 C 
ATOM      9  O   UNL     1       3.089  -2.306   2.726  0.00  0.00    -0.864 OA
ATOM     10  C   UNL     1       4.785  -0.852   3.449  0.00  0.00    +0.047 C 
ENDBRANCH   6   7
BRANCH   2  11
ATOM     11  O   UNL     1       4.113   3.623  -0.549  0.00  0.00    -0.386 OA
ATOM     12  H   UNL     1       3.198   3.450  -0.258  0.00  0.00    +0.210 HD
ENDBRANCH   2  11
BRANCH   5  13
ATOM     13  O   UNL     1       2.949  -0.458  -1.141  0.00  0.00    -0.365 OA
ATOM     14  H   UNL     1       2.694  -0.835  -0.259  0.00  0.00    +0.213 HD
ENDBRANCH   5  13
BRANCH   1  15
ATOM     15  O   UNL     1       5.119   1.976   1.826  0.00  0.00    -0.369 OA
BRANCH  15  17
ATOM     16  C   UNL     1       3.388   3.490   2.678  0.00  0.00    +0.037 C 
ATOM     17  C   UNL     1       4.826   3.331   2.205  0.00  0.00    +0.113 C 
ATOM     18  C   UNL     1       5.804   3.797   3.281  0.00  0.00    +0.037 C 
ENDBRANCH  15  17
ENDBRANCH   1  15
BRANCH   3  19
ATOM     19  C   UNL     1       5.047   2.552  -3.083  0.00  0.00    +0.190 C 
BRANCH  19  20
ATOM     20  O   UNL     1       4.579   3.898  -3.111  0.00  0.00    -0.392 OA
ATOM     21  H   UNL     1       4.506   4.187  -2.181  0.00  0.00    +0.210 HD
ENDBRANCH  19  20
ENDBRANCH   3  19
TORSDOF 7
