REMARK  Name = 
REMARK  18 active torsions:
REMARK  status: ('A' for Active; 'I' for Inactive)
REMARK    1  A    between atoms: C_1  and  C_2
REMARK    2  A    between atoms: C_2  and  C_41
REMARK    3  A    between atoms: C_7  and  C_27
REMARK    4  A    between atoms: C_11  and  C_13
REMARK    5  A    between atoms: C_13  and  C_15
REMARK    6  A    between atoms: C_13  and  N_19
REMARK    7  A    between atoms: C_15  and  C_16
REMARK    8  A    between atoms: C_15  and  C_17
REMARK    9  A    between atoms: C_15  and  C_18
REMARK   10  A    between atoms: N_22  and  C_23
REMARK   11  A    between atoms: C_23  and  C_24
REMARK   12  A    between atoms: C_23  and  C_25
REMARK   13  A    between atoms: C_23  and  C_26
REMARK   14  A    between atoms: N_29  and  C_30
REMARK   15  A    between atoms: C_30  and  C_31
REMARK   16  A    between atoms: C_30  and  C_36
REMARK   17  A    between atoms: C_31  and  C_32
REMARK   18  A    between atoms: C_36  and  C_38
REMARK                            x       y       z     vdW  Elec       q    Type
REMARK                         _______ _______ _______ _____ _____    ______ ____
ROOT
ATOM      1  C   UNL     1       1.941   1.892  -0.049  0.00  0.00    +0.011 C 
ATOM      2  C   UNL     1      -0.049  -0.098  -0.049  0.00  0.00    -0.025 C 
ATOM      3  C   UNL     1      -0.049  -0.098  -0.049  0.00  0.00    +0.011 C 
ATOM      4  C   UNL     1      -0.049  -0.098  -0.049  0.00  0.00    +0.030 C 
ATOM      5  C   UNL     1      -0.049  -0.098  -0.049  0.00  0.00    +0.166 C 
ATOM      6  N   UNL     1      -0.049  -0.098  -0.049  0.00  0.00    -0.288 N 
ATOM      7  C   UNL     1      -0.049  -0.098  -0.049  0.00  0.00    +0.237 C 
ATOM      8  O   UNL     1      -0.049  -0.098  -0.049  0.00  0.00    -0.274 OA
ATOM      9  C   UNL     1      -0.049  -0.098  -0.049  0.00  0.00    +0.113 C 
ATOM     10  C   UNL     1      -0.049  -0.098  -0.049  0.00  0.00    +0.018 C 
ENDROOT
BRANCH   5  11
ATOM     11  C   UNL     1      -0.049  -0.098  -0.049  0.00  0.00    +0.234 C 
ATOM     12  N   UNL     1      -0.049  -0.098  -0.049  0.00  0.00    -0.304 N 
ATOM     13  H   UNL     1      -0.686  -1.589  -0.100  0.00  0.00    +0.149 HD
ATOM     14  O   UNL     1      -0.049  -0.098  -0.049  0.00  0.00    -0.274 OA
BRANCH  12  15
ATOM     15  C   UNL     1      -0.049  -0.098  -0.049  0.00  0.00    +0.149 C 
BRANCH  15  16
ATOM     16  C   UNL     1      -0.049  -0.098  -0.049  0.00  0.00    +0.237 C 
ATOM     17  O   UNL     1      -0.049  -0.098  -0.049  0.00  0.00    -0.285 OA
BRANCH  16  18
ATOM     18  C   UNL     1      -0.049  -0.098  -0.049  0.00  0.00    +0.279 C 
ATOM     19  N   UNL     1      -0.049  -0.098  -0.049  0.00  0.00    -0.323 N 
ATOM     20  H   UNL     1      -0.454  -1.457   0.607  0.00  0.00    +0.145 HD
ATOM     21  H   UNL     1      -0.454  -1.457   0.607  0.00  0.00    +0.145 HD
ATOM     22  O   UNL     1      -0.049  -0.098  -0.049  0.00  0.00    -0.267 OA
ENDBRANCH  16  18
ENDBRANCH  15  16
BRANCH  15  23
ATOM     23  C   UNL     1      -0.049  -0.098  -0.049  0.00  0.00    +0.034 C 
BRANCH  23  24
ATOM     24  C   UNL     1      -0.049  -0.098  -0.049  0.00  0.00    -0.009 C 
ATOM     25  C   UNL     1      -0.049  -0.098  -0.049  0.00  0.00    +0.003 C 
ATOM     26  C   UNL     1      -0.049  -0.098  -0.049  0.00  0.00    +0.001 C 
ATOM     27  C   UNL     1      -0.049  -0.098  -0.049  0.00  0.00    +0.003 C 
ENDBRANCH  23  24
ENDBRANCH  15  23
ENDBRANCH  12  15
ENDBRANCH   5  11
BRANCH   7  28
ATOM     28  C   UNL     1      -0.049  -0.098  -0.049  0.00  0.00    +0.166 C 
BRANCH  28  29
ATOM     29  N   UNL     1      -0.049  -0.098  -0.049  0.00  0.00    -0.288 N 
ATOM     30  H   UNL     1      -0.529  -1.114  -0.500  0.00  0.00    +0.151 HD
ATOM     31  C   UNL     1      -0.049  -0.098  -0.049  0.00  0.00    +0.301 C 
ATOM     32  N   UNL     1      -0.049   0.459   0.507  0.00  0.00    -0.295 N 
ATOM     33  H   UNL     1      -0.049   0.647   0.696  0.00  0.00    +0.151 HD
ATOM     34  O   UNL     1      -0.049  -0.098  -0.049  0.00  0.00    -0.253 OA
BRANCH  32  35
ATOM     35  C   UNL     1      -0.049  -0.098  -0.049  0.00  0.00    +0.028 C 
ATOM     36  C   UNL     1      -1.282   1.324   0.767  0.00  0.00    +0.031 C 
ATOM     37  C   UNL     1      -1.280   1.421   0.509  0.00  0.00    +0.031 C 
ATOM     38  C   UNL     1      -1.280   1.413   0.535  0.00  0.00    +0.031 C 
ENDBRANCH  32  35
ENDBRANCH  28  29
BRANCH  28  39
ATOM     39  C   UNL     1      -0.049  -0.098  -0.049  0.00  0.00    -0.011 C 
ATOM     40  C   UNL     1      -0.049  -0.098  -0.049  0.00  0.00    +0.013 C 
ATOM     41  C   UNL     1      -0.049  -0.098  -0.049  0.00  0.00    +0.013 C 
ATOM     42  C   UNL     1      -0.049  -0.098  -0.049  0.00  0.00    +0.013 C 
ENDBRANCH  28  39
ENDBRANCH   7  28
TORSDOF 10
