REMARK  Name = 
REMARK  17 active torsions:
REMARK  status: ('A' for Active; 'I' for Inactive)
REMARK    1  A    between atoms: C_1  and  C_2
REMARK    2  A    between atoms: C_2  and  C_3
REMARK    3  A    between atoms: C_2  and  C_4
REMARK    4  A    between atoms: C_2  and  N_5
REMARK    5  A    between atoms: C_6  and  C_8
REMARK    6  A    between atoms: N_11  and  C_44
REMARK    7  A    between atoms: N_14  and  C_15
REMARK    8  A    between atoms: C_15  and  C_16
REMARK    9  A    between atoms: C_16  and  C_18
REMARK   10  A    between atoms: C_16  and  O_43
REMARK   11  A    between atoms: C_18  and  C_19
REMARK   12  A    between atoms: C_19  and  C_21
REMARK   13  A    between atoms: C_19  and  C_28
REMARK   14  A    between atoms: C_21  and  C_22
REMARK   15  A    between atoms: N_30  and  C_31
REMARK   16  A    between atoms: C_33  and  O_42
REMARK   17  A    between atoms: C_44  and  C_45
REMARK                            x       y       z     vdW  Elec       q    Type
REMARK                         _______ _______ _______ _____ _____    ______ ____
ROOT
ATOM      1  C   UNL     1       5.711  -3.233  -4.778  0.00  0.00    +0.129 C 
ENDROOT
BRANCH   1   2
ATOM      2  O   UNL     1       6.337  -4.256  -5.565  0.00  0.00    -0.391 OA
ATOM      3  H   UNL     1       6.896  -4.789  -4.973  0.00  0.00    +0.210 HD
ENDBRANCH   1   2
BRANCH   1   4
ATOM      4  C   UNL     1       4.675  -2.469  -5.658  0.00  0.00    +0.116 C 
BRANCH   4   6
ATOM      5  C   UNL     1       3.881  -4.290  -7.189  0.00  0.00    +0.157 C 
ATOM      6  N   UNL     1       3.481  -3.239  -6.173  0.00  0.00    -0.287 NA
ATOM      7  C   UNL     1       2.560  -2.285  -6.859  0.00  0.00    +0.100 C 
ATOM      8  C   UNL     1       3.041  -1.735  -8.228  0.00  0.00    +0.100 C 
ATOM      9  N   UNL     1       3.415  -2.807  -9.164  0.00  0.00    -0.295 NA
ATOM     10  C   UNL     1       4.418  -3.694  -8.526  0.00  0.00    +0.113 C 
BRANCH   5  13
ATOM     11  N   UNL     1       1.720  -5.480  -6.654  0.00  0.00    -0.309 N 
ATOM     12  H   UNL     1       1.712  -4.837  -5.869  0.00  0.00    +0.149 HD
ATOM     13  C   UNL     1       2.755  -5.308  -7.553  0.00  0.00    +0.232 C 
ATOM     14  O   UNL     1       2.836  -6.000  -8.572  0.00  0.00    -0.274 OA
BRANCH  11  16
ATOM     15  C   UNL     1       0.969  -7.816  -7.114  0.00  0.00    +0.031 C 
ATOM     16  C   UNL     1       0.550  -6.344  -6.928  0.00  0.00    +0.026 C 
ATOM     17  C   UNL     1      -0.424  -6.289  -5.737  0.00  0.00    +0.031 C 
ATOM     18  C   UNL     1      -0.212  -5.862  -8.180  0.00  0.00    +0.031 C 
ENDBRANCH  11  16
ENDBRANCH   5  13
BRANCH   9  19
ATOM     19  C   UNL     1       3.856  -2.258 -10.454  0.00  0.00    +0.121 C 
BRANCH  19  20
ATOM     20  C   UNL     1       4.073  -3.261 -11.565  0.00  0.00    -0.015 A 
ATOM     21  C   UNL     1       3.365  -4.461 -11.678  0.00  0.00    +0.008 A 
ATOM     22  C   UNL     1       3.608  -5.316 -12.750  0.00  0.00    +0.020 A 
ATOM     23  C   UNL     1       4.534  -4.930 -13.703  0.00  0.00    +0.111 A 
ATOM     24  N   UNL     1       5.213  -3.765 -13.657  0.00  0.00    -0.263 NA
ATOM     25  C   UNL     1       4.964  -2.963 -12.595  0.00  0.00    +0.115 A 
ENDBRANCH  19  20
ENDBRANCH   9  19
ENDBRANCH   4   6
ENDBRANCH   1   4
BRANCH   1  26
ATOM     26  C   UNL     1       6.887  -2.375  -4.253  0.00  0.00    +0.045 C 
BRANCH  26  27
ATOM     27  C   UNL     1       6.634  -1.156  -3.337  0.00  0.00    +0.082 C 
BRANCH  27  28
ATOM     28  C   UNL     1       7.991  -0.495  -2.994  0.00  0.00    +0.217 C 
ATOM     29  N   UNL     1       7.917   0.618  -2.189  0.00  0.00    -0.306 N 
ATOM     30  H   UNL     1       7.018   1.022  -1.967  0.00  0.00    +0.149 HD
ATOM     31  O   UNL     1       9.069  -0.895  -3.427  0.00  0.00    -0.275 OA
BRANCH  29  32
ATOM     32  C   UNL     1       9.106   1.351  -1.779  0.00  0.00    +0.132 C 
ATOM     33  C   UNL     1       8.744   2.469  -0.844  0.00  0.00    -0.022 A 
ATOM     34  C   UNL     1       9.342   2.317   0.408  0.00  0.00    -0.040 A 
ATOM     35  C   UNL     1       9.107   3.226   1.429  0.00  0.00    +0.004 A 
ATOM     36  C   UNL     1       8.264   4.310   1.180  0.00  0.00    +0.000 A 
ATOM     37  C   UNL     1       7.673   4.475  -0.083  0.00  0.00    +0.000 A 
ATOM     38  C   UNL     1      10.199   1.097   0.480  0.00  0.00    +0.069 C 
ATOM     39  C   UNL     1       7.915   3.553  -1.104  0.00  0.00    +0.006 A 
ATOM     40  C   UNL     1      10.115   0.500  -0.938  0.00  0.00    +0.143 C 
BRANCH  40  41
ATOM     41  O   UNL     1      11.413   0.514  -1.548  0.00  0.00    -0.389 OA
ATOM     42  H   UNL     1      11.316   0.013  -2.382  0.00  0.00    +0.210 HD
ENDBRANCH  40  41
ENDBRANCH  29  32
ENDBRANCH  27  28
BRANCH  27  43
ATOM     43  C   UNL     1       5.784  -1.451  -2.078  0.00  0.00    +0.048 C 
BRANCH  43  44
ATOM     44  C   UNL     1       6.417  -2.340  -1.033  0.00  0.00    -0.047 A 
ATOM     45  C   UNL     1       6.204  -3.722  -1.047  0.00  0.00    +0.003 A 
ATOM     46  C   UNL     1       6.846  -4.554  -0.128  0.00  0.00    +0.000 A 
ATOM     47  C   UNL     1       7.703  -4.012   0.827  0.00  0.00    +0.000 A 
ATOM     48  C   UNL     1       7.884  -2.634   0.889  0.00  0.00    +0.000 A 
ATOM     49  C   UNL     1       7.233  -1.802  -0.025  0.00  0.00    +0.003 A 
ENDBRANCH  43  44
ENDBRANCH  27  43
ENDBRANCH  26  27
ENDBRANCH   1  26
TORSDOF 14
