REMARK  Name = 
REMARK  10 active torsions:
REMARK  status: ('A' for Active; 'I' for Inactive)
REMARK    1  A    between atoms: C_1  and  C_2
REMARK    2  A    between atoms: C_2  and  C_3
REMARK    3  A    between atoms: C_2  and  O_4
REMARK    4  A    between atoms: O_4  and  C_5
REMARK    5  A    between atoms: C_7  and  N_20
REMARK    6  A    between atoms: C_9  and  O_19
REMARK    7  A    between atoms: C_12  and  C_17
REMARK    8  A    between atoms: C_14  and  O_16
REMARK    9  A    between atoms: C_17  and  O_18
REMARK   10  A    between atoms: C_21  and  C_22
REMARK                            x       y       z     vdW  Elec       q    Type
REMARK                         _______ _______ _______ _____ _____    ______ ____
ROOT
ATOM      1  C   UNL     1       4.448  -0.922   0.236  0.00  0.00    +0.179 C 
ATOM      2  C   UNL     1       4.952  -0.007  -0.909  0.00  0.00    +0.176 C 
ATOM      3  C   UNL     1       4.563  -0.573  -2.281  0.00  0.00    +0.178 C 
ATOM      4  O   UNL     1       5.023  -1.914  -2.459  0.00  0.00    -0.341 OA
ATOM      5  C   UNL     1       4.495  -2.799  -1.477  0.00  0.00    +0.275 C 
ATOM      6  C   UNL     1       4.885  -2.388  -0.039  0.00  0.00    +0.191 C 
ENDROOT
BRANCH   6   7
ATOM      7  N   UNL     1       4.147  -3.290   0.850  0.00  0.00    -0.293 NA
ATOM      8  C   UNL     1       4.626  -4.395   1.304  0.00  0.00    -0.044 C 
ATOM      9  O   UNL     1       3.975  -5.191   2.003  0.00  0.00    -0.864 OA
ATOM     10  C   UNL     1       6.084  -4.808   1.028  0.00  0.00    +0.047 C 
ENDBRANCH   6   7
BRANCH   2  11
ATOM     11  O   UNL     1       4.415   1.323  -0.810  0.00  0.00    -0.386 OA
ATOM     12  H   UNL     1       3.447   1.236  -0.753  0.00  0.00    +0.210 HD
ENDBRANCH   2  11
BRANCH   5  13
ATOM     13  O   UNL     1       3.072  -2.876  -1.584  0.00  0.00    -0.365 OA
ATOM     14  H   UNL     1       2.828  -3.265  -0.708  0.00  0.00    +0.213 HD
ENDBRANCH   5  13
BRANCH   1  15
ATOM     15  O   UNL     1       4.989  -0.548   1.523  0.00  0.00    -0.369 OA
BRANCH  15  17
ATOM     16  C   UNL     1       3.219   1.068   2.184  0.00  0.00    +0.037 C 
ATOM     17  C   UNL     1       4.707   0.750   2.037  0.00  0.00    +0.113 C 
ATOM     18  C   UNL     1       5.376   0.825   3.409  0.00  0.00    +0.037 C 
ENDBRANCH  15  17
ENDBRANCH   1  15
BRANCH   3  19
ATOM     19  C   UNL     1       5.166   0.256  -3.425  0.00  0.00    +0.190 C 
BRANCH  19  20
ATOM     20  O   UNL     1       4.652  -0.206  -4.680  0.00  0.00    -0.392 OA
ATOM     21  H   UNL     1       4.547  -1.173  -4.576  0.00  0.00    +0.210 HD
ENDBRANCH  19  20
ENDBRANCH   3  19
TORSDOF 7
