REMARK  Name = 
REMARK  16 active torsions:
REMARK  status: ('A' for Active; 'I' for Inactive)
REMARK    1  A    between atoms: C_1  and  C_2
REMARK    2  A    between atoms: C_2  and  C_3
REMARK    3  A    between atoms: C_2  and  C_4
REMARK    4  A    between atoms: C_4  and  N_5
REMARK    5  A    between atoms: N_5  and  C_6
REMARK    6  A    between atoms: N_5  and  S_34
REMARK    7  A    between atoms: C_6  and  C_7
REMARK    8  A    between atoms: C_7  and  C_9
REMARK    9  A    between atoms: C_7  and  O_33
REMARK   10  A    between atoms: C_9  and  C_11
REMARK   11  A    between atoms: C_9  and  N_18
REMARK   12  A    between atoms: C_11  and  C_12
REMARK   13  A    between atoms: C_19  and  O_21
REMARK   14  A    between atoms: O_21  and  C_22
REMARK   15  A    between atoms: S_34  and  C_37
REMARK   16  A    between atoms: C_40  and  N_43
REMARK                            x       y       z     vdW  Elec       q    Type
REMARK                         _______ _______ _______ _____ _____    ______ ____
ROOT
ATOM      1  C   UNL     1       0.118  -2.215  -2.313  0.00  0.00    +0.151 C 
ENDROOT
BRANCH   1   2
ATOM      2  O   UNL     1      -0.521  -2.028  -3.590  0.00  0.00    -0.389 OA
ATOM      3  H   UNL     1       0.145  -2.156  -4.287  0.00  0.00    +0.210 HD
ENDBRANCH   1   2
BRANCH   1   4
ATOM      4  C   UNL     1       0.830  -3.590  -2.312  0.00  0.00    +0.142 C 
BRANCH   4   5
ATOM      5  N   UNL     1       1.560  -4.040  -1.072  0.00  0.00    -0.174 NA
BRANCH   5   6
ATOM      6  S   UNL     1       2.799  -2.943  -0.571  0.00  0.00    +0.061 S 
ATOM      7  O   UNL     1       2.138  -1.890   0.174  0.00  0.00    -0.153 OA
ATOM      8  O   UNL     1       3.584  -2.623  -1.745  0.00  0.00    -0.153 OA
BRANCH   6   9
ATOM      9  C   UNL     1       3.843  -3.853   0.552  0.00  0.00    +0.106 A 
ATOM     10  C   UNL     1       3.616  -3.772   1.930  0.00  0.00    +0.030 A 
ATOM     11  C   UNL     1       4.475  -4.428   2.822  0.00  0.00    +0.024 A 
ATOM     12  C   UNL     1       5.551  -5.189   2.355  0.00  0.00    +0.025 A 
ATOM     13  C   UNL     1       5.836  -5.163   0.986  0.00  0.00    +0.024 A 
ATOM     14  C   UNL     1       4.983  -4.511   0.081  0.00  0.00    +0.030 A 
BRANCH  12  15
ATOM     15  N   UNL     1       6.456  -5.758   3.258  0.00  0.00    -0.358 N 
ATOM     16  H   UNL     1       6.050  -5.993   4.159  0.00  0.00    +0.142 HD
ATOM     17  H   UNL     1       6.998  -6.526   2.873  0.00  0.00    +0.142 HD
ENDBRANCH  12  15
ENDBRANCH   6   9
ENDBRANCH   5   6
BRANCH   5  18
ATOM     18  C   UNL     1       0.734  -4.631   0.032  0.00  0.00    +0.112 C 
BRANCH  18  20
ATOM     19  C   UNL     1       0.184  -6.940  -0.915  0.00  0.00    +0.008 C 
ATOM     20  C   UNL     1      -0.369  -5.605  -0.426  0.00  0.00    -0.001 C 
ATOM     21  C   UNL     1      -1.393  -5.847   0.688  0.00  0.00    +0.008 C 
ENDBRANCH  18  20
ENDBRANCH   5  18
ENDBRANCH   4   5
ENDBRANCH   1   4
BRANCH   1  22
ATOM     22  C   UNL     1      -0.938  -1.928  -1.208  0.00  0.00    +0.110 C 
BRANCH  22  23
ATOM     23  N   UNL     1      -1.052  -0.470  -1.091  0.00  0.00    -0.275 N 
ATOM     24  H   UNL     1      -0.206   0.036  -0.869  0.00  0.00    +0.152 HD
ATOM     25  C   UNL     1      -2.134   0.326  -1.210  0.00  0.00    +0.401 C 
ATOM     26  O   UNL     1      -3.301   0.015  -1.343  0.00  0.00    -0.226 OA
BRANCH  25  27
ATOM     27  O   UNL     1      -1.699   1.593  -1.021  0.00  0.00    -0.444 OA
BRANCH  27  28
ATOM     28  C   UNL     1      -2.537   2.360  -0.166  0.00  0.00    +0.212 C 
ATOM     29  C   UNL     1      -2.288   3.820  -0.377  0.00  0.00    +0.090 C 
ATOM     30  C   UNL     1      -2.009   4.525  -1.667  0.00  0.00    +0.040 C 
ATOM     31  C   UNL     1      -1.222   5.729  -1.123  0.00  0.00    +0.163 C 
ATOM     32  O   UNL     1      -0.676   5.347   0.171  0.00  0.00    -0.351 OA
ATOM     33  C   UNL     1      -0.940   3.955   0.276  0.00  0.00    +0.257 C 
ATOM     34  O   UNL     1      -1.129   3.349   1.546  0.00  0.00    -0.347 OA
ATOM     35  C   UNL     1      -1.995   2.204   1.278  0.00  0.00    +0.208 C 
ENDBRANCH  27  28
ENDBRANCH  25  27
ENDBRANCH  22  23
BRANCH  22  36
ATOM     36  C   UNL     1      -2.289  -2.675  -1.371  0.00  0.00    +0.060 C 
BRANCH  36  37
ATOM     37  C   UNL     1      -3.096  -2.925  -0.098  0.00  0.00    -0.046 A 
ATOM     38  C   UNL     1      -4.208  -3.784  -0.164  0.00  0.00    +0.004 A 
ATOM     39  C   UNL     1      -4.926  -4.129   0.987  0.00  0.00    +0.000 A 
ATOM     40  C   UNL     1      -4.554  -3.609   2.224  0.00  0.00    +0.000 A 
ATOM     41  C   UNL     1      -3.485  -2.722   2.303  0.00  0.00    +0.000 A 
ATOM     42  C   UNL     1      -2.771  -2.374   1.152  0.00  0.00    +0.004 A 
ENDBRANCH  36  37
ENDBRANCH  22  36
ENDBRANCH   1  22
TORSDOF 14
