REMARK  Name = 
REMARK  16 active torsions:
REMARK  status: ('A' for Active; 'I' for Inactive)
REMARK    1  A    between atoms: C_1  and  C_2
REMARK    2  A    between atoms: C_2  and  C_3
REMARK    3  A    between atoms: C_2  and  C_4
REMARK    4  A    between atoms: C_4  and  N_5
REMARK    5  A    between atoms: N_5  and  C_6
REMARK    6  A    between atoms: N_5  and  S_34
REMARK    7  A    between atoms: C_6  and  C_7
REMARK    8  A    between atoms: C_7  and  C_9
REMARK    9  A    between atoms: C_7  and  O_33
REMARK   10  A    between atoms: C_9  and  C_11
REMARK   11  A    between atoms: C_9  and  N_18
REMARK   12  A    between atoms: C_11  and  C_12
REMARK   13  A    between atoms: C_19  and  O_21
REMARK   14  A    between atoms: O_21  and  C_22
REMARK   15  A    between atoms: S_34  and  C_37
REMARK   16  A    between atoms: C_40  and  N_43
REMARK                            x       y       z     vdW  Elec       q    Type
REMARK                         _______ _______ _______ _____ _____    ______ ____
ROOT
ATOM      1  C   UNL     1       0.060   2.471  -2.009  0.00  0.00    +0.151 C 
ENDROOT
BRANCH   1   2
ATOM      2  O   UNL     1      -0.909   1.892  -2.889  0.00  0.00    -0.389 OA
ATOM      3  H   UNL     1      -1.700   2.461  -2.865  0.00  0.00    +0.210 HD
ENDBRANCH   1   2
BRANCH   1   4
ATOM      4  C   UNL     1       0.622   3.730  -2.638  0.00  0.00    +0.142 C 
BRANCH   4   5
ATOM      5  N   UNL     1       1.812   4.367  -1.954  0.00  0.00    -0.174 NA
BRANCH   5   6
ATOM      6  S   UNL     1       2.331   5.647  -3.125  0.00  0.00    +0.061 S 
ATOM      7  O   UNL     1       1.531   6.819  -2.831  0.00  0.00    -0.153 OA
ATOM      8  O   UNL     1       2.311   5.065  -4.453  0.00  0.00    -0.153 OA
BRANCH   6   9
ATOM      9  C   UNL     1       4.028   6.024  -2.778  0.00  0.00    +0.106 A 
ATOM     10  C   UNL     1       4.343   7.102  -1.950  0.00  0.00    +0.030 A 
ATOM     11  C   UNL     1       5.673   7.518  -1.830  0.00  0.00    +0.024 A 
ATOM     12  C   UNL     1       6.697   6.865  -2.523  0.00  0.00    +0.025 A 
ATOM     13  C   UNL     1       6.355   5.864  -3.435  0.00  0.00    +0.024 A 
ATOM     14  C   UNL     1       5.031   5.428  -3.552  0.00  0.00    +0.030 A 
BRANCH  12  15
ATOM     15  N   UNL     1       8.001   7.373  -2.490  0.00  0.00    -0.358 N 
ATOM     16  H   UNL     1       8.237   7.841  -1.621  0.00  0.00    +0.142 HD
ATOM     17  H   UNL     1       8.711   6.701  -2.766  0.00  0.00    +0.142 HD
ENDBRANCH  12  15
ENDBRANCH   6   9
ENDBRANCH   5   6
BRANCH   5  18
ATOM     18  C   UNL     1       1.546   4.983  -0.570  0.00  0.00    +0.112 C 
BRANCH  18  20
ATOM     19  C   UNL     1       1.697   4.969   1.943  0.00  0.00    +0.008 C 
ATOM     20  C   UNL     1       1.396   4.088   0.710  0.00  0.00    -0.001 C 
ATOM     21  C   UNL     1       0.011   3.514   1.069  0.00  0.00    +0.008 C 
ENDBRANCH  18  20
ENDBRANCH   5  18
ENDBRANCH   4   5
ENDBRANCH   1   4
BRANCH   1  22
ATOM     22  C   UNL     1       1.137   1.441  -1.569  0.00  0.00    +0.110 C 
BRANCH  22  23
ATOM     23  N   UNL     1       0.610   0.590  -0.500  0.00  0.00    -0.275 N 
ATOM     24  H   UNL     1       0.843   0.827   0.458  0.00  0.00    +0.152 HD
ATOM     25  C   UNL     1      -0.367  -0.345  -0.596  0.00  0.00    +0.401 C 
ATOM     26  O   UNL     1      -0.708  -0.960  -1.590  0.00  0.00    -0.226 OA
BRANCH  25  27
ATOM     27  O   UNL     1      -0.828  -0.552   0.676  0.00  0.00    -0.444 OA
BRANCH  27  28
ATOM     28  C   UNL     1      -1.280  -1.884   0.931  0.00  0.00    +0.212 C 
ATOM     29  C   UNL     1      -2.113  -1.976   2.178  0.00  0.00    +0.090 C 
ATOM     30  C   UNL     1      -3.101  -0.995   2.734  0.00  0.00    +0.040 C 
ATOM     31  C   UNL     1      -3.046  -1.398   4.219  0.00  0.00    +0.163 C 
ATOM     32  O   UNL     1      -1.765  -2.045   4.446  0.00  0.00    -0.351 OA
ATOM     33  C   UNL     1      -1.047  -1.871   3.232  0.00  0.00    +0.257 C 
ATOM     34  O   UNL     1      -0.094  -2.840   2.827  0.00  0.00    -0.347 OA
ATOM     35  C   UNL     1      -0.044  -2.712   1.373  0.00  0.00    +0.208 C 
ENDBRANCH  27  28
ENDBRANCH  25  27
ENDBRANCH  22  23
BRANCH  22  36
ATOM     36  C   UNL     1       1.816   0.685  -2.729  0.00  0.00    +0.060 C 
BRANCH  36  37
ATOM     37  C   UNL     1       2.894  -0.272  -2.252  0.00  0.00    -0.046 A 
ATOM     38  C   UNL     1       4.050   0.180  -1.593  0.00  0.00    +0.004 A 
ATOM     39  C   UNL     1       4.958  -0.735  -1.049  0.00  0.00    +0.000 A 
ATOM     40  C   UNL     1       4.728  -2.105  -1.172  0.00  0.00    +0.000 A 
ATOM     41  C   UNL     1       3.615  -2.561  -1.874  0.00  0.00    +0.000 A 
ATOM     42  C   UNL     1       2.711  -1.650  -2.420  0.00  0.00    +0.004 A 
ENDBRANCH  36  37
ENDBRANCH  22  36
ENDBRANCH   1  22
TORSDOF 14
