REMARK  Name = 
REMARK  17 active torsions:
REMARK  status: ('A' for Active; 'I' for Inactive)
REMARK    1  A    between atoms: C_1  and  C_2
REMARK    2  A    between atoms: C_2  and  C_3
REMARK    3  A    between atoms: C_2  and  C_4
REMARK    4  A    between atoms: C_2  and  N_5
REMARK    5  A    between atoms: C_6  and  C_8
REMARK    6  A    between atoms: N_11  and  C_44
REMARK    7  A    between atoms: N_14  and  C_15
REMARK    8  A    between atoms: C_15  and  C_16
REMARK    9  A    between atoms: C_16  and  C_18
REMARK   10  A    between atoms: C_16  and  O_43
REMARK   11  A    between atoms: C_18  and  C_19
REMARK   12  A    between atoms: C_19  and  C_21
REMARK   13  A    between atoms: C_19  and  C_28
REMARK   14  A    between atoms: C_21  and  C_22
REMARK   15  A    between atoms: N_30  and  C_31
REMARK   16  A    between atoms: C_33  and  O_42
REMARK   17  A    between atoms: C_44  and  C_45
REMARK                            x       y       z     vdW  Elec       q    Type
REMARK                         _______ _______ _______ _____ _____    ______ ____
ROOT
ATOM      1  C   UNL     1      -5.281  -1.486   2.170  0.00  0.00    +0.129 C 
ENDROOT
BRANCH   1   2
ATOM      2  O   UNL     1      -6.537  -1.496   1.488  0.00  0.00    -0.391 OA
ATOM      3  H   UNL     1      -6.680  -2.407   1.172  0.00  0.00    +0.210 HD
ENDBRANCH   1   2
BRANCH   1   4
ATOM      4  C   UNL     1      -5.262  -0.317   3.276  0.00  0.00    +0.116 C 
BRANCH   4   6
ATOM      5  C   UNL     1      -6.197   0.762   5.429  0.00  0.00    +0.157 C 
ATOM      6  N   UNL     1      -6.366  -0.305   4.339  0.00  0.00    -0.287 NA
ATOM      7  C   UNL     1      -6.531  -1.598   5.030  0.00  0.00    +0.100 C 
ATOM      8  C   UNL     1      -5.453  -1.905   6.087  0.00  0.00    +0.100 C 
ATOM      9  N   UNL     1      -5.676  -0.998   7.234  0.00  0.00    -0.295 NA
ATOM     10  C   UNL     1      -5.304   0.353   6.716  0.00  0.00    +0.113 C 
BRANCH   5  13
ATOM     11  N   UNL     1      -8.749   0.984   5.337  0.00  0.00    -0.309 N 
ATOM     12  H   UNL     1      -8.639   0.396   4.515  0.00  0.00    +0.149 HD
ATOM     13  C   UNL     1      -7.579   1.238   6.037  0.00  0.00    +0.232 C 
ATOM     14  O   UNL     1      -7.602   1.871   7.098  0.00  0.00    -0.274 OA
BRANCH  11  16
ATOM     15  C   UNL     1     -10.349   2.678   6.295  0.00  0.00    +0.031 C 
ATOM     16  C   UNL     1     -10.107   1.201   5.916  0.00  0.00    +0.026 C 
ATOM     17  C   UNL     1     -11.206   0.826   4.898  0.00  0.00    +0.031 C 
ATOM     18  C   UNL     1     -10.321   0.312   7.158  0.00  0.00    +0.031 C 
ENDBRANCH  11  16
ENDBRANCH   5  13
BRANCH   9  19
ATOM     19  C   UNL     1      -5.028  -1.516   8.460  0.00  0.00    +0.121 C 
BRANCH  19  20
ATOM     20  C   UNL     1      -5.685  -1.338   9.835  0.00  0.00    -0.015 A 
ATOM     21  C   UNL     1      -6.794  -0.552  10.138  0.00  0.00    +0.008 A 
ATOM     22  C   UNL     1      -7.336  -0.565  11.438  0.00  0.00    +0.020 A 
ATOM     23  C   UNL     1      -6.757  -1.367  12.406  0.00  0.00    +0.111 A 
ATOM     24  N   UNL     1      -5.684  -2.134  12.168  0.00  0.00    -0.263 NA
ATOM     25  C   UNL     1      -5.183  -2.103  10.906  0.00  0.00    +0.115 A 
ENDBRANCH  19  20
ENDBRANCH   9  19
ENDBRANCH   4   6
ENDBRANCH   1   4
BRANCH   1  26
ATOM     26  C   UNL     1      -4.139  -1.641   1.075  0.00  0.00    +0.045 C 
BRANCH  26  27
ATOM     27  C   UNL     1      -4.094  -0.724  -0.216  0.00  0.00    +0.082 C 
BRANCH  27  28
ATOM     28  C   UNL     1      -3.340  -1.311  -1.497  0.00  0.00    +0.217 C 
ATOM     29  N   UNL     1      -3.417  -0.545  -2.681  0.00  0.00    -0.306 N 
ATOM     30  H   UNL     1      -3.942   0.319  -2.659  0.00  0.00    +0.149 HD
ATOM     31  O   UNL     1      -2.816  -2.421  -1.504  0.00  0.00    -0.275 OA
BRANCH  29  32
ATOM     32  C   UNL     1      -3.145  -1.075  -4.047  0.00  0.00    +0.132 C 
ATOM     33  C   UNL     1      -3.350  -0.068  -5.185  0.00  0.00    -0.022 A 
ATOM     34  C   UNL     1      -2.188   0.053  -5.973  0.00  0.00    -0.040 A 
ATOM     35  C   UNL     1      -2.151   0.854  -7.122  0.00  0.00    +0.004 A 
ATOM     36  C   UNL     1      -3.310   1.531  -7.496  0.00  0.00    +0.000 A 
ATOM     37  C   UNL     1      -4.470   1.401  -6.730  0.00  0.00    +0.000 A 
ATOM     38  C   UNL     1      -1.053  -0.754  -5.447  0.00  0.00    +0.069 C 
ATOM     39  C   UNL     1      -4.490   0.590  -5.573  0.00  0.00    +0.006 A 
ATOM     40  C   UNL     1      -1.689  -1.583  -4.306  0.00  0.00    +0.143 C 
BRANCH  40  41
ATOM     41  O   UNL     1      -1.708  -2.962  -4.736  0.00  0.00    -0.389 OA
ATOM     42  H   UNL     1      -1.995  -3.470  -3.957  0.00  0.00    +0.210 HD
ENDBRANCH  40  41
ENDBRANCH  29  32
ENDBRANCH  27  28
BRANCH  27  43
ATOM     43  C   UNL     1      -3.747   0.744   0.097  0.00  0.00    +0.048 C 
BRANCH  43  44
ATOM     44  C   UNL     1      -2.571   1.175   0.955  0.00  0.00    -0.047 A 
ATOM     45  C   UNL     1      -2.549   2.529   1.348  0.00  0.00    +0.003 A 
ATOM     46  C   UNL     1      -1.583   3.021   2.226  0.00  0.00    +0.000 A 
ATOM     47  C   UNL     1      -0.612   2.166   2.730  0.00  0.00    +0.000 A 
ATOM     48  C   UNL     1      -0.578   0.839   2.306  0.00  0.00    +0.000 A 
ATOM     49  C   UNL     1      -1.531   0.354   1.396  0.00  0.00    +0.003 A 
ENDBRANCH  43  44
ENDBRANCH  27  43
ENDBRANCH  26  27
ENDBRANCH   1  26
TORSDOF 14
