REMARK  Name = 
REMARK  23 active torsions:
REMARK  status: ('A' for Active; 'I' for Inactive)
REMARK    1  A    between atoms: C_1  and  C_2
REMARK    2  A    between atoms: C_2  and  C_3
REMARK    3  A    between atoms: C_2  and  C_4
REMARK    4  A    between atoms: C_2  and  C_5
REMARK    5  A    between atoms: C_5  and  C_7
REMARK    6  A    between atoms: C_5  and  N_49
REMARK    7  A    between atoms: C_11  and  O_34
REMARK    8  A    between atoms: C_14  and  C_16
REMARK    9  A    between atoms: C_16  and  C_18
REMARK   10  A    between atoms: C_18  and  C_19
REMARK   11  A    between atoms: C_19  and  C_25
REMARK   12  A    between atoms: C_21  and  C_23
REMARK   13  A    between atoms: N_27  and  S_28
REMARK   14  A    between atoms: S_28  and  C_31
REMARK   15  A    between atoms: O_34  and  C_35
REMARK   16  A    between atoms: C_38  and  O_47
REMARK   17  A    between atoms: C_42  and  C_45
REMARK   18  A    between atoms: O_47  and  C_48
REMARK   19  A    between atoms: C_50  and  O_52
REMARK   20  A    between atoms: O_52  and  C_53
REMARK   21  A    between atoms: C_53  and  C_54
REMARK   22  A    between atoms: C_53  and  C_55
REMARK   23  A    between atoms: C_53  and  C_56
REMARK                            x       y       z     vdW  Elec       q    Type
REMARK                         _______ _______ _______ _____ _____    ______ ____
ROOT
ATOM      1  C   UNL     1      -3.927  -2.612   6.323  0.00  0.00    +0.237 C 
ATOM      2  N   UNL     1      -3.838  -1.381   6.952  0.00  0.00    -0.286 N 
ATOM      3  C   UNL     1      -3.599  -0.044   6.387  0.00  0.00    +0.146 C 
ATOM      4  C   UNL     1      -4.275   0.924   7.373  0.00  0.00    +0.076 C 
ATOM      5  C   UNL     1      -4.952   0.054   8.447  0.00  0.00    +0.195 C 
ATOM      6  C   UNL     1      -4.213  -1.270   8.360  0.00  0.00    +0.153 C 
ATOM      7  O   UNL     1      -4.297  -3.580   6.994  0.00  0.00    -0.274 OA
ENDROOT
BRANCH   3   8
ATOM      8  C   UNL     1      -2.093   0.334   6.326  0.00  0.00    +0.155 C 
ATOM      9  O   UNL     1      -1.682   1.261   5.628  0.00  0.00    -0.295 OA
BRANCH   8  10
ATOM     10  C   UNL     1      -1.183  -0.403   7.279  0.00  0.00    +0.093 C 
BRANCH  10  11
ATOM     11  C   UNL     1       0.291  -0.017   7.313  0.00  0.00    +0.062 C 
ATOM     12  C   UNL     1       1.185  -1.263   7.298  0.00  0.00    +0.028 C 
ATOM     13  C   UNL     1       1.217  -0.322   6.137  0.00  0.00    +0.025 C 
BRANCH  11  14
ATOM     14  C   UNL     1       0.613   1.106   8.273  0.00  0.00    +0.239 C 
ATOM     15  N   UNL     1       1.569   2.044   7.891  0.00  0.00    -0.189 N 
ATOM     16  H   UNL     1       1.926   2.085   6.944  0.00  0.00    +0.176 HD
ATOM     17  O   UNL     1       0.030   1.151   9.347  0.00  0.00    -0.274 OA
BRANCH  15  18
ATOM     18  S   UNL     1       2.008   3.359   8.815  0.00  0.00    +0.048 S 
ATOM     19  O   UNL     1       1.077   4.418   8.501  0.00  0.00    -0.155 OA
ATOM     20  O   UNL     1       3.428   3.533   8.574  0.00  0.00    -0.155 OA
BRANCH  18  21
ATOM     21  C   UNL     1       1.769   2.972  10.568  0.00  0.00    +0.151 C 
ATOM     22  C   UNL     1       2.897   3.318  11.499  0.00  0.00    +0.030 C 
ATOM     23  C   UNL     1       2.679   1.888  11.085  0.00  0.00    +0.030 C 
ENDBRANCH  18  21
ENDBRANCH  15  18
ENDBRANCH  11  14
BRANCH  12  24
ATOM     24  C   UNL     1       2.298  -1.381   8.238  0.00  0.00    -0.030 C 
ATOM     25  C   UNL     1       2.163  -1.714   9.529  0.00  0.00    +0.004 C 
ENDBRANCH  12  24
ENDBRANCH  10  11
ENDBRANCH   8  10
ENDBRANCH   3   8
BRANCH   5  26
ATOM     26  O   UNL     1      -6.321  -0.220   8.125  0.00  0.00    -0.471 OA
BRANCH  26  27
ATOM     27  C   UNL     1      -7.132   0.890   8.238  0.00  0.00    +0.223 A 
ATOM     28  C   UNL     1      -8.232   0.969   7.373  0.00  0.00    +0.047 A 
ATOM     29  C   UNL     1      -8.603  -0.073   6.490  0.00  0.00    +0.018 A 
ATOM     30  C   UNL     1      -9.653   0.081   5.577  0.00  0.00    -0.037 A 
ATOM     31  C   UNL     1     -10.355   1.289   5.566  0.00  0.00    +0.005 A 
ATOM     32  C   UNL     1     -10.016   2.315   6.454  0.00  0.00    +0.012 A 
ATOM     33  C   UNL     1      -8.956   2.179   7.374  0.00  0.00    +0.030 A 
ATOM     34  C   UNL     1      -8.578   3.208   8.268  0.00  0.00    +0.146 A 
ATOM     35  C   UNL     1      -7.494   2.980   9.108  0.00  0.00    +0.160 A 
ATOM     36  N   UNL     1      -6.757   1.852   9.108  0.00  0.00    -0.217 NA
BRANCH  34  37
ATOM     37  O   UNL     1      -9.311   4.367   8.233  0.00  0.00    -0.493 OA
ATOM     38  C   UNL     1      -8.907   5.416   9.104  0.00  0.00    +0.277 C 
ENDBRANCH  34  37
BRANCH  30  39
ATOM     39  C   UNL     1     -10.014  -1.032   4.626  0.00  0.00    +0.109 C 
ATOM     40  I   UNL     1     -11.526  -2.271   5.458  0.00  0.00    -0.080 I 
ENDBRANCH  30  39
ENDBRANCH  26  27
ENDBRANCH   5  26
BRANCH   1  41
ATOM     41  C   UNL     1      -3.703  -2.758   4.776  0.00  0.00    +0.168 C 
BRANCH  41  43
ATOM     42  C   UNL     1      -4.557  -5.227   4.631  0.00  0.00    +0.013 C 
ATOM     43  C   UNL     1      -3.406  -4.242   4.312  0.00  0.00    -0.011 C 
ATOM     44  C   UNL     1      -3.229  -4.314   2.775  0.00  0.00    +0.013 C 
ATOM     45  C   UNL     1      -2.111  -4.760   4.971  0.00  0.00    +0.013 C 
ENDBRANCH  41  43
BRANCH  41  46
ATOM     46  N   UNL     1      -2.644  -1.854   4.316  0.00  0.00    -0.269 N 
ATOM     47  H   UNL     1      -1.735  -1.878   4.752  0.00  0.00    +0.153 HD
ATOM     48  C   UNL     1      -2.705  -1.171   3.137  0.00  0.00    +0.401 C 
ATOM     49  O   UNL     1      -3.664  -1.182   2.384  0.00  0.00    -0.226 OA
BRANCH  48  50
ATOM     50  O   UNL     1      -1.537  -0.514   2.947  0.00  0.00    -0.445 OA
BRANCH  50  51
ATOM     51  C   UNL     1      -1.323   0.255   1.732  0.00  0.00    +0.107 C 
ATOM     52  C   UNL     1      -1.260  -0.681   0.519  0.00  0.00    +0.055 C 
ATOM     53  C   UNL     1       0.052   0.925   1.896  0.00  0.00    +0.055 C 
ATOM     54  C   UNL     1      -2.372   1.360   1.551  0.00  0.00    +0.055 C 
ENDBRANCH  50  51
ENDBRANCH  48  50
ENDBRANCH  41  46
ENDBRANCH   1  41
TORSDOF 16
