REMARK  Name = 
REMARK  23 active torsions:
REMARK  status: ('A' for Active; 'I' for Inactive)
REMARK    1  A    between atoms: C_1  and  C_2
REMARK    2  A    between atoms: C_2  and  C_3
REMARK    3  A    between atoms: C_2  and  C_4
REMARK    4  A    between atoms: C_2  and  C_5
REMARK    5  A    between atoms: C_5  and  C_7
REMARK    6  A    between atoms: C_5  and  N_49
REMARK    7  A    between atoms: C_11  and  O_34
REMARK    8  A    between atoms: C_14  and  C_16
REMARK    9  A    between atoms: C_16  and  C_18
REMARK   10  A    between atoms: C_18  and  C_19
REMARK   11  A    between atoms: C_19  and  C_25
REMARK   12  A    between atoms: C_21  and  C_23
REMARK   13  A    between atoms: N_27  and  S_28
REMARK   14  A    between atoms: S_28  and  C_31
REMARK   15  A    between atoms: O_34  and  C_35
REMARK   16  A    between atoms: C_38  and  O_47
REMARK   17  A    between atoms: C_42  and  C_45
REMARK   18  A    between atoms: O_47  and  C_48
REMARK   19  A    between atoms: C_50  and  O_52
REMARK   20  A    between atoms: O_52  and  C_53
REMARK   21  A    between atoms: C_53  and  C_54
REMARK   22  A    between atoms: C_53  and  C_55
REMARK   23  A    between atoms: C_53  and  C_56
REMARK                            x       y       z     vdW  Elec       q    Type
REMARK                         _______ _______ _______ _____ _____    ______ ____
ROOT
ATOM      1  C   UNL     1      -4.187   6.285   3.906  0.00  0.00    +0.237 C 
ATOM      2  N   UNL     1      -3.840   7.383   3.140  0.00  0.00    -0.286 N 
ATOM      3  C   UNL     1      -3.197   7.362   1.828  0.00  0.00    +0.146 C 
ATOM      4  C   UNL     1      -3.266   8.811   1.328  0.00  0.00    +0.076 C 
ATOM      5  C   UNL     1      -4.094   9.584   2.375  0.00  0.00    +0.195 C 
ATOM      6  C   UNL     1      -3.923   8.751   3.642  0.00  0.00    +0.153 C 
ATOM      7  O   UNL     1      -4.404   6.403   5.114  0.00  0.00    -0.274 OA
ENDROOT
BRANCH   3   8
ATOM      8  C   UNL     1      -1.716   6.922   1.953  0.00  0.00    +0.155 C 
ATOM      9  O   UNL     1      -1.051   6.624   0.957  0.00  0.00    -0.295 OA
BRANCH   8  10
ATOM     10  C   UNL     1      -1.073   7.008   3.332  0.00  0.00    +0.093 C 
BRANCH  10  11
ATOM     11  C   UNL     1       0.323   6.433   3.418  0.00  0.00    +0.062 C 
ATOM     12  C   UNL     1       0.588   5.486   4.595  0.00  0.00    +0.028 C 
ATOM     13  C   UNL     1       0.482   4.949   3.196  0.00  0.00    +0.025 C 
BRANCH  11  14
ATOM     14  C   UNL     1       1.390   7.389   3.036  0.00  0.00    +0.239 C 
ATOM     15  N   UNL     1       1.839   7.315   1.721  0.00  0.00    -0.189 N 
ATOM     16  H   UNL     1       1.302   6.785   1.036  0.00  0.00    +0.176 HD
ATOM     17  O   UNL     1       1.761   8.230   3.836  0.00  0.00    -0.274 OA
BRANCH  15  18
ATOM     18  S   UNL     1       2.844   8.471   1.078  0.00  0.00    +0.048 S 
ATOM     19  O   UNL     1       2.037   9.647   0.828  0.00  0.00    -0.155 OA
ATOM     20  O   UNL     1       3.562   7.826  -0.000  0.00  0.00    -0.155 OA
BRANCH  18  21
ATOM     21  C   UNL     1       4.042   8.931   2.365  0.00  0.00    +0.151 C 
ATOM     22  C   UNL     1       5.497   8.864   2.007  0.00  0.00    +0.030 C 
ATOM     23  C   UNL     1       4.881   7.762   2.824  0.00  0.00    +0.030 C 
ENDBRANCH  18  21
ENDBRANCH  15  18
ENDBRANCH  11  14
BRANCH  12  24
ATOM     24  C   UNL     1       1.894   5.364   5.251  0.00  0.00    -0.030 C 
ATOM     25  C   UNL     1       2.449   4.206   5.634  0.00  0.00    +0.004 C 
ENDBRANCH  12  24
ENDBRANCH  10  11
ENDBRANCH   8  10
ENDBRANCH   3   8
BRANCH   5  26
ATOM     26  O   UNL     1      -5.498   9.579   2.074  0.00  0.00    -0.471 OA
BRANCH  26  27
ATOM     27  C   UNL     1      -5.823  10.299   0.942  0.00  0.00    +0.223 A 
ATOM     28  C   UNL     1      -6.938   9.867   0.209  0.00  0.00    +0.047 A 
ATOM     29  C   UNL     1      -7.817   8.853   0.659  0.00  0.00    +0.018 A 
ATOM     30  C   UNL     1      -8.866   8.381  -0.141  0.00  0.00    -0.037 A 
ATOM     31  C   UNL     1      -9.042   8.946  -1.405  0.00  0.00    +0.005 A 
ATOM     32  C   UNL     1      -8.200   9.971  -1.849  0.00  0.00    +0.012 A 
ATOM     33  C   UNL     1      -7.141  10.459  -1.054  0.00  0.00    +0.030 A 
ATOM     34  C   UNL     1      -6.269  11.490  -1.478  0.00  0.00    +0.146 A 
ATOM     35  C   UNL     1      -5.242  11.872  -0.620  0.00  0.00    +0.160 A 
ATOM     36  N   UNL     1      -4.990  11.293   0.572  0.00  0.00    -0.217 NA
BRANCH  30  37
ATOM     37  C   UNL     1      -9.782   7.291   0.356  0.00  0.00    +0.109 C 
ATOM     38  I   UNL     1     -11.489   8.120   1.310  0.00  0.00    -0.080 I 
ENDBRANCH  30  37
BRANCH  34  39
ATOM     39  O   UNL     1      -6.499  12.036  -2.715  0.00  0.00    -0.493 OA
ATOM     40  C   UNL     1      -5.596  13.045  -3.154  0.00  0.00    +0.277 C 
ENDBRANCH  34  39
ENDBRANCH  26  27
ENDBRANCH   5  26
BRANCH   1  41
ATOM     41  C   UNL     1      -4.233   4.892   3.209  0.00  0.00    +0.168 C 
BRANCH  41  43
ATOM     42  C   UNL     1      -6.522   5.415   2.225  0.00  0.00    +0.013 C 
ATOM     43  C   UNL     1      -5.699   4.380   3.021  0.00  0.00    -0.011 C 
ATOM     44  C   UNL     1      -5.717   3.069   2.205  0.00  0.00    +0.013 C 
ATOM     45  C   UNL     1      -6.396   4.116   4.367  0.00  0.00    +0.013 C 
ENDBRANCH  41  43
BRANCH  41  46
ATOM     46  N   UNL     1      -3.370   3.962   3.941  0.00  0.00    -0.269 N 
ATOM     47  H   UNL     1      -3.372   3.965   4.954  0.00  0.00    +0.153 HD
ATOM     48  C   UNL     1      -2.649   2.995   3.296  0.00  0.00    +0.401 C 
ATOM     49  O   UNL     1      -2.589   2.902   2.080  0.00  0.00    -0.226 OA
BRANCH  48  50
ATOM     50  O   UNL     1      -2.020   2.182   4.180  0.00  0.00    -0.445 OA
BRANCH  50  51
ATOM     51  C   UNL     1      -1.260   1.038   3.689  0.00  0.00    +0.107 C 
ATOM     52  C   UNL     1      -2.158   0.051   2.930  0.00  0.00    +0.055 C 
ATOM     53  C   UNL     1      -0.722   0.325   4.942  0.00  0.00    +0.055 C 
ATOM     54  C   UNL     1      -0.056   1.464   2.838  0.00  0.00    +0.055 C 
ENDBRANCH  50  51
ENDBRANCH  48  50
ENDBRANCH  41  46
ENDBRANCH   1  41
TORSDOF 16
