REMARK  Name = 
REMARK  117 active torsions:
REMARK  status: ('A' for Active; 'I' for Inactive)
REMARK    1  A    between atoms: CB_1  and  CA_2
REMARK    2  A    between atoms: CA_2  and  C_4
REMARK    3  A    between atoms: CA_2  and  N_157
REMARK    4  A    between atoms: N_6  and  CA_7
REMARK    5  A    between atoms: CA_7  and  CB_9
REMARK    6  A    between atoms: CA_7  and  C_10
REMARK    7  A    between atoms: N_12  and  CA_13
REMARK    8  A    between atoms: CA_13  and  CB_15
REMARK    9  A    between atoms: CA_13  and  C_19
REMARK   10  A    between atoms: CB_15  and  CG_16
REMARK   11  A    between atoms: CG_16  and  SD_17
REMARK   12  A    between atoms: SD_17  and  CE_18
REMARK   13  A    between atoms: N_21  and  CA_22
REMARK   14  A    between atoms: CA_22  and  CB_24
REMARK   15  A    between atoms: CA_22  and  C_29
REMARK   16  A    between atoms: CB_24  and  CG_25
REMARK   17  A    between atoms: CG_25  and  CD_26
REMARK   18  A    between atoms: CD_26  and  CE_27
REMARK   19  A    between atoms: CE_27  and  NZ_28
REMARK   20  A    between atoms: N_31  and  CA_32
REMARK   21  A    between atoms: CA_32  and  CB_34
REMARK   22  A    between atoms: CA_32  and  C_41
REMARK   23  A    between atoms: CB_34  and  CG_35
REMARK   24  A    between atoms: CG_35  and  CD_36
REMARK   25  A    between atoms: CD_36  and  NE_37
REMARK   26  A    between atoms: N_43  and  CA_44
REMARK   27  A    between atoms: CA_44  and  CB_46
REMARK   28  A    between atoms: CA_44  and  C_52
REMARK   29  A    between atoms: CB_46  and  CG_47
REMARK   30  A    between atoms: N_54  and  CA_55
REMARK   31  A    between atoms: CA_55  and  C_56
REMARK   32  A    between atoms: N_58  and  CA_59
REMARK   33  A    between atoms: CA_59  and  CB_61
REMARK   34  A    between atoms: CA_59  and  C_65
REMARK   35  A    between atoms: CB_61  and  CG_62
REMARK   36  A    between atoms: CG_62  and  CD1_63
REMARK   37  A    between atoms: CG_62  and  CD2_64
REMARK   38  A    between atoms: N_67  and  CA_68
REMARK   39  A    between atoms: CA_68  and  CB_70
REMARK   40  A    between atoms: CA_68  and  C_74
REMARK   41  A    between atoms: CB_70  and  CG_71
REMARK   42  A    between atoms: CG_71  and  OD2_73
REMARK   43  A    between atoms: N_76  and  CA_77
REMARK   44  A    between atoms: CA_77  and  CB_79
REMARK   45  A    between atoms: CA_77  and  C_83
REMARK   46  A    between atoms: CB_79  and  CG_80
REMARK   47  A    between atoms: N_85  and  CA_86
REMARK   48  A    between atoms: CA_86  and  CB_88
REMARK   49  A    between atoms: CA_86  and  C_96
REMARK   50  A    between atoms: CB_88  and  CG_89
REMARK   51  A    between atoms: CZ_92  and  OH_95
REMARK   52  A    between atoms: N_98  and  CA_99
REMARK   53  A    between atoms: CA_99  and  CB_101
REMARK   54  A    between atoms: CA_99  and  C_108
REMARK   55  A    between atoms: CB_101  and  CG_102
REMARK   56  A    between atoms: CG_102  and  CD_103
REMARK   57  A    between atoms: CD_103  and  NE_104
REMARK   58  A    between atoms: N_110  and  CA_111
REMARK   59  A    between atoms: CA_111  and  C_112
REMARK   60  A    between atoms: N_114  and  CA_115
REMARK   61  A    between atoms: CA_115  and  CB_117
REMARK   62  A    between atoms: CA_115  and  C_125
REMARK   63  A    between atoms: CB_117  and  CG_118
REMARK   64  A    between atoms: CZ_121  and  OH_124
REMARK   65  A    between atoms: N_127  and  CA_128
REMARK   66  A    between atoms: CA_128  and  CB_130
REMARK   67  A    between atoms: CA_128  and  C_132
REMARK   68  A    between atoms: CB_130  and  OG_131
REMARK   69  A    between atoms: N_134  and  CA_135
REMARK   70  A    between atoms: CA_135  and  CB_137
REMARK   71  A    between atoms: CA_135  and  C_141
REMARK   72  A    between atoms: CB_137  and  CG_138
REMARK   73  A    between atoms: CG_138  and  CD1_139
REMARK   74  A    between atoms: CG_138  and  CD2_140
REMARK   75  A    between atoms: N_143  and  CA_144
REMARK   76  A    between atoms: CA_144  and  C_145
REMARK   77  A    between atoms: N_147  and  CA_148
REMARK   78  A    between atoms: CA_148  and  CB_150
REMARK   79  A    between atoms: CA_148  and  C_154
REMARK   80  A    between atoms: CB_150  and  CG_151
REMARK   81  A    between atoms: C_154  and  OXT_156
REMARK   82  A    between atoms: C_158  and  CA_160
REMARK   83  A    between atoms: CA_160  and  CB_162
REMARK   84  A    between atoms: CA_160  and  N_163
REMARK   85  A    between atoms: C_164  and  CA_166
REMARK   86  A    between atoms: CA_166  and  CB_168
REMARK   87  A    between atoms: CA_166  and  N_172
REMARK   88  A    between atoms: CB_168  and  CG_169
REMARK   89  A    between atoms: CG_169  and  CD1_170
REMARK   90  A    between atoms: CG_169  and  CD2_171
REMARK   91  A    between atoms: C_173  and  CA_175
REMARK   92  A    between atoms: CA_175  and  CB_177
REMARK   93  A    between atoms: CA_175  and  N_182
REMARK   94  A    between atoms: CB_177  and  CG_178
REMARK   95  A    between atoms: CG_178  and  CD_179
REMARK   96  A    between atoms: CD_179  and  OE2_181
REMARK   97  A    between atoms: C_183  and  CA_185
REMARK   98  A    between atoms: CA_185  and  CB_187
REMARK   99  A    between atoms: CA_185  and  N_189
REMARK  100  A    between atoms: CB_187  and  SG_188
REMARK  101  A    between atoms: C_190  and  CA_192
REMARK  102  A    between atoms: CA_192  and  CB_194
REMARK  103  A    between atoms: CA_192  and  N_201
REMARK  104  A    between atoms: CB_194  and  CG_195
REMARK  105  A    between atoms: CG_195  and  CD_196
REMARK  106  A    between atoms: CD_196  and  NE_197
REMARK  107  A    between atoms: C_202  and  CA_204
REMARK  108  A    between atoms: CA_204  and  N_205
REMARK  109  A    between atoms: C_206  and  CA_208
REMARK  110  A    between atoms: CA_208  and  CB_210
REMARK  111  A    between atoms: CA_208  and  N_217
REMARK  112  A    between atoms: CB_210  and  CG_211
REMARK  113  A    between atoms: C_218  and  CA_220
REMARK  114  A    between atoms: CA_220  and  CB_222
REMARK  115  A    between atoms: CA_220  and  N_225
REMARK  116  A    between atoms: CB_222  and  CG1_223
REMARK  117  A    between atoms: CB_222  and  CG2_224
REMARK                            x       y       z     vdW  Elec       q    Type
REMARK                         _______ _______ _______ _____ _____    ______ ____
ROOT
ATOM      1  CA  HIS A  14      26.229 -20.732  38.632  0.00  0.00    +0.165 C 
ENDROOT
BRANCH   1   3
ATOM      2  C   ARG A  13      27.372 -19.679  36.627  0.00  0.00    +0.234 C 
ATOM      3  N   HIS A  14      26.486 -19.601  37.744  0.00  0.00    -0.302 N 
ATOM      4  H   HIS A  14      26.234 -18.678  38.099  0.00  0.00    +0.150 HD
ATOM      5  O   ARG A  13      28.191 -20.583  36.537  0.00  0.00    -0.274 OA
BRANCH   2   6
ATOM      6  CA  ARG A  13      27.164 -18.453  35.534  0.00  0.00    +0.159 C 
BRANCH   6   8
ATOM      7  C   LYS A  12      29.029 -16.280  33.752  0.00  0.00    +0.234 C 
ATOM      8  N   ARG A  13      28.089 -17.749  34.027  0.00  0.00    -0.302 N 
ATOM      9  H   ARG A  13      28.059 -18.420  33.282  0.00  0.00    +0.150 HD
ATOM     10  O   LYS A  12      29.032 -15.217  34.426  0.00  0.00    -0.274 OA
BRANCH   7  11
ATOM     11  CA  LYS A  12      30.082 -16.077  32.713  0.00  0.00    +0.159 C 
BRANCH  11  13
ATOM     12  C   MET A  11      30.763 -13.786  31.811  0.00  0.00    +0.234 C 
ATOM     13  N   LYS A  12      29.811 -14.744  32.087  0.00  0.00    -0.302 N 
ATOM     14  H   LYS A  12      28.841 -14.489  31.883  0.00  0.00    +0.150 HD
ATOM     15  O   MET A  11      31.970 -13.932  31.997  0.00  0.00    -0.274 OA
BRANCH  12  16
ATOM     16  CA  MET A  11      30.287 -12.415  31.335  0.00  0.00    +0.160 C 
BRANCH  16  18
ATOM     17  C   ALA A  10      28.508 -12.904  29.630  0.00  0.00    +0.234 C 
ATOM     18  N   MET A  11      28.913 -12.454  30.865  0.00  0.00    -0.302 N 
ATOM     19  H   MET A  11      28.257 -11.919  31.413  0.00  0.00    +0.150 HD
ATOM     20  O   ALA A  10      29.291 -13.410  28.827  0.00  0.00    -0.274 OA
BRANCH  17  21
ATOM     21  CA  ALA A  10      27.021 -12.606  29.250  0.00  0.00    +0.156 C 
ATOM     22  CB  ALA A  10      26.880 -11.345  28.424  0.00  0.00    +0.038 C 
BRANCH  21  24
ATOM     23  C   ALA A   9      26.151 -11.664  31.392  0.00  0.00    +0.234 C 
ATOM     24  N   ALA A  10      26.064 -12.580  30.367  0.00  0.00    -0.303 N 
ATOM     25  H   ALA A  10      25.691 -13.492  30.596  0.00  0.00    +0.149 HD
ATOM     26  O   ALA A   9      26.879 -10.682  31.342  0.00  0.00    -0.274 OA
BRANCH  23  28
ATOM     27  CB  ALA A   9      25.661 -11.051  33.786  0.00  0.00    +0.038 C 
ATOM     28  CA  ALA A   9      25.338 -11.993  32.636  0.00  0.00    +0.156 C 
BRANCH  28  29
ATOM     29  N   ALA A   9      25.595 -13.302  33.189  0.00  0.00    -0.303 N 
ATOM     30  H   ALA A   9      25.293 -13.370  34.159  0.00  0.00    +0.149 HD
ATOM     31  C   ALA A   8      26.110 -14.463  32.702  0.00  0.00    +0.234 C 
ATOM     32  O   ALA A   8      26.838 -14.603  31.723  0.00  0.00    -0.274 OA
BRANCH  31  33
ATOM     33  CA  ALA A   8      25.681 -15.593  33.594  0.00  0.00    +0.156 C 
ATOM     34  CB  ALA A   8      24.388 -15.451  34.346  0.00  0.00    +0.038 C 
BRANCH  33  35
ATOM     35  N   ALA A   8      26.812 -16.058  34.383  0.00  0.00    -0.303 N 
ATOM     36  H   ALA A   8      27.157 -16.751  33.753  0.00  0.00    +0.149 HD
ATOM     37  C   LEU A   7      27.605 -16.082  35.659  0.00  0.00    +0.234 C 
ATOM     38  O   LEU A   7      26.977 -15.573  36.603  0.00  0.00    -0.274 OA
BRANCH  37  39
ATOM     39  CA  LEU A   7      29.245 -17.191  35.814  0.00  0.00    +0.159 C 
BRANCH  39  40
ATOM     40  N   LEU A   7      29.397 -17.610  37.221  0.00  0.00    -0.302 N 
ATOM     41  H   LEU A   7      30.199 -18.212  37.378  0.00  0.00    +0.150 HD
ATOM     42  C   GLU A   6      29.372 -16.541  38.089  0.00  0.00    +0.234 C 
ATOM     43  O   GLU A   6      29.080 -15.414  37.722  0.00  0.00    -0.274 OA
BRANCH  42  44
ATOM     44  CA  GLU A   6      29.556 -16.857  39.544  0.00  0.00    +0.159 C 
BRANCH  44  45
ATOM     45  N   GLU A   6      30.241 -18.167  39.686  0.00  0.00    -0.302 N 
ATOM     46  H   GLU A   6      29.915 -18.901  39.064  0.00  0.00    +0.150 HD
ATOM     47  C   CYS A   5      30.726 -18.652  40.884  0.00  0.00    +0.235 C 
ATOM     48  O   CYS A   5      30.637 -18.045  41.945  0.00  0.00    -0.274 OA
BRANCH  47  49
ATOM     49  CA  CYS A   5      31.349 -20.055  40.820  0.00  0.00    +0.168 C 
BRANCH  49  50
ATOM     50  N   CYS A   5      30.269 -21.049  40.618  0.00  0.00    -0.302 N 
ATOM     51  H   CYS A   5      29.560 -21.030  41.342  0.00  0.00    +0.150 HD
ATOM     52  C   ARG A   4      30.268 -22.054  39.676  0.00  0.00    +0.234 C 
ATOM     53  O   ARG A   4      31.072 -22.063  38.743  0.00  0.00    -0.274 OA
BRANCH  52  54
ATOM     54  CA  ARG A   4      29.169 -23.169  39.783  0.00  0.00    +0.159 C 
BRANCH  54  55
ATOM     55  N   ARG A   4      29.545 -24.395  39.097  0.00  0.00    -0.303 N 
ATOM     56  H   ARG A   4      28.904 -24.788  38.415  0.00  0.00    +0.149 HD
ATOM     57  C   GLY A   3      30.647 -25.170  39.294  0.00  0.00    +0.231 C 
ATOM     58  O   GLY A   3      30.777 -26.185  38.611  0.00  0.00    -0.274 OA
BRANCH  57  59
ATOM     59  CA  GLY A   3      31.727 -24.689  40.255  0.00  0.00    +0.200 C 
BRANCH  59  60
ATOM     60  N   GLY A   3      32.879 -24.225  39.533  0.00  0.00    -0.305 N 
ATOM     61  H   GLY A   3      32.703 -23.594  38.752  0.00  0.00    +0.149 HD
ATOM     62  C   PHE A   2      34.086 -24.135  40.190  0.00  0.00    +0.234 C 
ATOM     63  O   PHE A   2      34.218 -24.484  41.362  0.00  0.00    -0.274 OA
BRANCH  62  64
ATOM     64  CA  PHE A   2      35.211 -23.539  39.339  0.00  0.00    +0.163 C 
BRANCH  64  65
ATOM     65  N   PHE A   2      36.410 -23.387  40.145  0.00  0.00    -0.302 N 
ATOM     66  H   PHE A   2      36.880 -24.199  40.530  0.00  0.00    +0.150 HD
ATOM     67  C   VAL A   1      36.863 -22.162  40.513  0.00  0.00    +0.231 C 
ATOM     68  O   VAL A   1      36.221 -21.122  40.193  0.00  0.00    -0.274 OA
BRANCH  67  69
ATOM     69  CA  VAL A   1      38.168 -22.134  41.306  0.00  0.00    +0.140 C 
BRANCH  69  70
ATOM     70  CB  VAL A   1      38.667 -20.708  41.645  0.00  0.00    +0.009 C 
ATOM     71  CG2 VAL A   1      37.685 -19.990  42.581  0.00  0.00    +0.009 C 
ATOM     72  CG1 VAL A   1      38.974 -19.843  40.416  0.00  0.00    +0.009 C 
ENDBRANCH  69  70
BRANCH  69  73
ATOM     73  N   VAL A   1      39.184 -22.928  40.571  0.00  0.00    -0.320 NA
ATOM     74  H1  VAL A   1      39.223 -22.589  39.606  0.00  0.00    +0.119 HD
ATOM     75  H2  VAL A   1      40.106 -22.743  40.963  0.00  0.00    +0.119 HD
ENDBRANCH  69  73
ENDBRANCH  67  69
ENDBRANCH  64  65
BRANCH  64  76
ATOM     76  CB  PHE A   2      35.486 -24.380  38.088  0.00  0.00    +0.067 C 
BRANCH  76  77
ATOM     77  CG  PHE A   2      36.517 -23.819  37.126  0.00  0.00    -0.045 A 
ATOM     78  CD2 PHE A   2      36.716 -22.442  36.937  0.00  0.00    +0.004 A 
ATOM     79  CE2 PHE A   2      37.631 -21.974  35.992  0.00  0.00    +0.000 A 
ATOM     80  CZ  PHE A   2      38.354 -22.875  35.215  0.00  0.00    +0.000 A 
ATOM     81  CE1 PHE A   2      38.167 -24.244  35.389  0.00  0.00    +0.000 A 
ATOM     82  CD1 PHE A   2      37.252 -24.712  36.334  0.00  0.00    +0.004 A 
ENDBRANCH  76  77
ENDBRANCH  64  76
ENDBRANCH  62  64
ENDBRANCH  59  60
ENDBRANCH  57  59
ENDBRANCH  54  55
BRANCH  54  83
ATOM     83  CB  ARG A   4      28.474 -23.420  41.135  0.00  0.00    +0.035 C 
BRANCH  83  84
ATOM     84  CG  ARG A   4      29.220 -24.194  42.208  0.00  0.00    +0.039 C 
BRANCH  84  85
ATOM     85  CD  ARG A   4      28.354 -24.300  43.460  0.00  0.00    +0.196 C 
BRANCH  85  86
ATOM     86  NE  ARG A   4      29.061 -25.019  44.491  0.00  0.00    -0.276 N 
ATOM     87  HE  ARG A   4      30.060 -24.839  44.535  0.00  0.00    +0.258 HD
ATOM     88  CZ  ARG A   4      28.536 -25.263  45.709  0.00  0.00    +0.376 C 
ATOM     89  NH2 ARG A   4      29.400 -25.927  46.495  0.00  0.00    -0.289 N 
ATOM     90 HH21 ARG A   4      28.906 -26.294  47.303  0.00  0.00    +0.255 HD
ATOM     91 HH22 ARG A   4      29.897 -26.664  46.010  0.00  0.00    +0.255 HD
ATOM     92  NH1 ARG A   4      27.371 -24.961  46.143  0.00  0.00    -0.130 NA
ATOM     93  HH1 ARG A   4      26.849 -24.457  45.428  0.00  0.00    +0.306 HD
ENDBRANCH  85  86
ENDBRANCH  84  85
ENDBRANCH  83  84
ENDBRANCH  54  83
ENDBRANCH  52  54
ENDBRANCH  49  50
BRANCH  49  94
ATOM     94  CB  CYS A   5      32.521 -20.073  39.833  0.00  0.00    +0.097 C 
BRANCH  94  95
ATOM     95  SG  CYS A   5      33.724 -18.742  40.139  0.00  0.00    -0.176 S 
ATOM     96  HG  CYS A   5      32.930 -17.727  39.757  0.00  0.00    +0.102 HD
ENDBRANCH  94  95
ENDBRANCH  49  94
ENDBRANCH  47  49
ENDBRANCH  44  45
BRANCH  44  97
ATOM     97  CB  GLU A   6      30.210 -15.688  40.280  0.00  0.00    +0.043 C 
BRANCH  97  98
ATOM     98  CG  GLU A   6      29.518 -14.333  40.092  0.00  0.00    +0.123 C 
BRANCH  98  99
ATOM     99  CD  GLU A   6      30.173 -13.292  40.943  0.00  0.00    +0.305 C 
ATOM    100  OE1 GLU A   6      30.836 -12.370  40.495  0.00  0.00    -0.251 OA
BRANCH  99 101
ATOM    101  OE2 GLU A   6      29.974 -13.482  42.264  0.00  0.00    -0.481 OA
ATOM    102  HE2 GLU A   6      29.436 -14.272  42.467  0.00  0.00    +0.295 HD
ENDBRANCH  99 101
ENDBRANCH  98  99
ENDBRANCH  97  98
ENDBRANCH  44  97
ENDBRANCH  42  44
ENDBRANCH  39  40
BRANCH  39 103
ATOM    103  CB  LEU A   7      29.945 -18.670  34.747  0.00  0.00    +0.034 C 
BRANCH 103 104
ATOM    104  CG  LEU A   7      30.364 -18.964  32.918  0.00  0.00    -0.015 C 
ATOM    105  CD2 LEU A   7      31.037 -20.353  32.770  0.00  0.00    +0.007 C 
ATOM    106  CD1 LEU A   7      31.343 -18.223  31.734  0.00  0.00    +0.007 C 
ENDBRANCH 103 104
ENDBRANCH  39 103
ENDBRANCH  37  39
ENDBRANCH  33  35
ENDBRANCH  31  33
ENDBRANCH  28  29
ENDBRANCH  23  28
ENDBRANCH  21  24
ENDBRANCH  17  21
ENDBRANCH  16  18
BRANCH  16 107
ATOM    107  CB  MET A  11      30.447 -11.355  32.459  0.00  0.00    +0.042 C 
BRANCH 107 108
ATOM    108  CG  MET A  11      31.842 -11.342  33.096  0.00  0.00    +0.071 C 
BRANCH 108 109
ATOM    109  SD  MET A  11      32.107  -9.939  34.226  0.00  0.00    -0.164 S 
ATOM    110  CE  MET A  11      33.772 -10.402  34.788  0.00  0.00    +0.084 C 
ENDBRANCH 108 109
ENDBRANCH 107 108
ENDBRANCH  16 107
ENDBRANCH  12  16
ENDBRANCH  11  13
BRANCH  11 111
ATOM    111  CB  LYS A  12      31.558 -16.000  33.493  0.00  0.00    +0.032 C 
BRANCH 111 112
ATOM    112  CG  LYS A  12      32.024 -17.170  34.327  0.00  0.00    +0.003 C 
BRANCH 112 113
ATOM    113  CD  LYS A  12      33.130 -17.450  35.280  0.00  0.00    +0.015 C 
BRANCH 113 114
ATOM    114  CE  LYS A  12      33.015 -16.600  36.512  0.00  0.00    +0.077 C 
BRANCH 114 115
ATOM    115  NZ  LYS A  12      34.103 -17.025  37.353  0.00  0.00    -0.330 NA
ATOM    116  HZ1 LYS A  12      34.134 -16.467  38.199  0.00  0.00    +0.118 HD
ATOM    117  HZ2 LYS A  12      33.974 -17.997  37.644  0.00  0.00    +0.118 HD
ENDBRANCH 114 115
ENDBRANCH 113 114
ENDBRANCH 112 113
ENDBRANCH 111 112
ENDBRANCH  11 111
ENDBRANCH   7  11
ENDBRANCH   6   8
BRANCH   6 118
ATOM    118  CB  ARG A  13      25.638 -18.206  35.538  0.00  0.00    +0.035 C 
BRANCH 118 119
ATOM    119  CG  ARG A  13      25.107 -18.849  34.308  0.00  0.00    +0.039 C 
BRANCH 119 120
ATOM    120  CD  ARG A  13      25.150 -20.359  34.493  0.00  0.00    +0.196 C 
BRANCH 120 121
ATOM    121  NE  ARG A  13      24.296 -20.737  35.595  0.00  0.00    -0.276 N 
ATOM    122  HE  ARG A  13      24.766 -20.791  36.489  0.00  0.00    +0.258 HD
ATOM    123  CZ  ARG A  13      23.011 -20.351  35.690  0.00  0.00    +0.376 C 
ATOM    124  NH2 ARG A  13      22.562 -20.401  36.940  0.00  0.00    -0.289 N 
ATOM    125 HH21 ARG A  13      21.653 -19.967  36.949  0.00  0.00    +0.255 HD
ATOM    126 HH22 ARG A  13      23.164 -19.909  37.581  0.00  0.00    +0.255 HD
ATOM    127  NH1 ARG A  13      22.235 -19.895  34.784  0.00  0.00    -0.130 NA
ATOM    128  HH1 ARG A  13      22.720 -19.899  33.888  0.00  0.00    +0.306 HD
ENDBRANCH 120 121
ENDBRANCH 119 120
ENDBRANCH 118 119
ENDBRANCH   6 118
ENDBRANCH   2   6
ENDBRANCH   1   3
BRANCH   1 129
ATOM    129  C   HIS A  14      24.808 -21.027  39.178  0.00  0.00    +0.234 C 
ATOM    130  N   GLY A  15      23.937 -19.972  39.312  0.00  0.00    -0.305 N 
ATOM    131  H   GLY A  15      24.277 -19.011  39.297  0.00  0.00    +0.149 HD
ATOM    132  O   HIS A  14      24.542 -22.135  39.647  0.00  0.00    -0.274 OA
BRANCH 130 133
ATOM    133  CA  GLY A  15      22.588 -20.171  39.876  0.00  0.00    +0.200 C 
BRANCH 133 134
ATOM    134  C   GLY A  15      21.835 -18.830  39.844  0.00  0.00    +0.231 C 
ATOM    135  N   LEU A  16      20.469 -18.905  39.966  0.00  0.00    -0.303 N 
ATOM    136  H   LEU A  16      20.017 -19.817  39.996  0.00  0.00    +0.149 HD
ATOM    137  O   GLY A  15      22.451 -17.774  39.713  0.00  0.00    -0.274 OA
BRANCH 135 138
ATOM    138  CA  LEU A  16      19.556 -17.745  40.080  0.00  0.00    +0.159 C 
BRANCH 138 139
ATOM    139  C   LEU A  16      18.118 -18.285  40.367  0.00  0.00    +0.234 C 
ATOM    140  N   ASP A  17      17.121 -17.366  40.614  0.00  0.00    -0.302 N 
ATOM    141  H   ASP A  17      17.319 -16.370  40.541  0.00  0.00    +0.150 HD
ATOM    142  O   LEU A  16      17.916 -19.498  40.459  0.00  0.00    -0.274 OA
BRANCH 140 143
ATOM    143  CA  ASP A  17      15.673 -17.685  40.827  0.00  0.00    +0.169 C 
BRANCH 143 144
ATOM    144  C   ASP A  17      14.874 -16.348  41.054  0.00  0.00    +0.234 C 
ATOM    145  N   ASN A  18      13.495 -16.419  41.178  0.00  0.00    -0.302 N 
ATOM    146  H   ASN A  18      13.014 -17.311  41.120  0.00  0.00    +0.150 HD
ATOM    147  O   ASP A  17      15.487 -15.277  41.069  0.00  0.00    -0.274 OA
BRANCH 145 148
ATOM    148  CA  ASN A  18      12.589 -15.244  41.397  0.00  0.00    +0.168 C 
BRANCH 148 149
ATOM    149  C   ASN A  18      11.052 -15.639  41.460  0.00  0.00    +0.234 C 
ATOM    150  N   TYR A  19      10.133 -14.608  41.674  0.00  0.00    -0.302 N 
ATOM    151  H   TYR A  19      10.456 -13.658  41.824  0.00  0.00    +0.150 HD
ATOM    152  O   ASN A  18      10.703 -16.814  41.339  0.00  0.00    -0.274 OA
BRANCH 150 153
ATOM    153  CA  TYR A  19       8.638 -14.742  41.606  0.00  0.00    +0.163 C 
BRANCH 153 154
ATOM    154  C   TYR A  19       7.898 -13.350  41.784  0.00  0.00    +0.234 C 
ATOM    155  N   ARG A  20       6.506 -13.319  41.643  0.00  0.00    -0.302 N 
ATOM    156  H   ARG A  20       5.994 -14.182  41.490  0.00  0.00    +0.150 HD
ATOM    157  O   TYR A  19       8.551 -12.326  42.001  0.00  0.00    -0.274 OA
BRANCH 155 158
ATOM    158  CA  ARG A  20       5.649 -12.097  41.834  0.00  0.00    +0.159 C 
BRANCH 158 159
ATOM    159  C   ARG A  20       4.090 -12.420  41.829  0.00  0.00    +0.234 C 
ATOM    160  N   GLY A  21       3.191 -11.358  41.924  0.00  0.00    -0.305 N 
ATOM    161  H   GLY A  21       3.514 -10.422  42.150  0.00  0.00    +0.149 HD
ATOM    162  O   ARG A  20       3.700 -13.582  41.691  0.00  0.00    -0.274 OA
BRANCH 160 163
ATOM    163  CA  GLY A  21       1.717 -11.504  41.753  0.00  0.00    +0.200 C 
BRANCH 163 164
ATOM    164  C   GLY A  21       0.885 -10.182  41.906  0.00  0.00    +0.231 C 
ATOM    165  N   TYR A  22      -0.485 -10.267  41.665  0.00  0.00    -0.302 N 
ATOM    166  H   TYR A  22      -0.912 -11.173  41.493  0.00  0.00    +0.150 HD
ATOM    167  O   GLY A  21       1.439  -9.124  42.205  0.00  0.00    -0.274 OA
BRANCH 165 168
ATOM    168  CA  TYR A  22      -1.450  -9.116  41.738  0.00  0.00    +0.163 C 
BRANCH 168 169
ATOM    169  C   TYR A  22      -2.952  -9.576  41.563  0.00  0.00    +0.234 C 
ATOM    170  N   SER A  23      -3.936  -8.595  41.537  0.00  0.00    -0.301 N 
ATOM    171  H   SER A  23      -3.712  -7.641  41.796  0.00  0.00    +0.150 HD
ATOM    172  O   TYR A  22      -3.252 -10.771  41.491  0.00  0.00    -0.274 OA
BRANCH 170 173
ATOM    173  CA  SER A  23      -5.380  -8.888  41.316  0.00  0.00    +0.184 C 
BRANCH 173 174
ATOM    174  C   SER A  23      -6.124  -7.682  40.676  0.00  0.00    +0.236 C 
ATOM    175  N   LEU A  24      -6.038  -7.573  39.303  0.00  0.00    -0.302 N 
ATOM    176  H   LEU A  24      -5.710  -8.382  38.772  0.00  0.00    +0.150 HD
ATOM    177  O   SER A  23      -6.679  -6.825  41.362  0.00  0.00    -0.274 OA
BRANCH 175 178
ATOM    178  CA  LEU A  24      -6.734  -6.510  38.540  0.00  0.00    +0.159 C 
BRANCH 178 179
ATOM    179  C   LEU A  24      -6.526  -6.820  37.036  0.00  0.00    +0.234 C 
ATOM    180  N   GLY A  25      -7.674  -6.933  36.276  0.00  0.00    -0.305 N 
ATOM    181  H   GLY A  25      -8.587  -6.901  36.715  0.00  0.00    +0.149 HD
ATOM    182  O   LEU A  24      -5.410  -7.002  36.552  0.00  0.00    -0.274 OA
BRANCH 180 183
ATOM    183  CA  GLY A  25      -7.606  -7.238  34.844  0.00  0.00    +0.200 C 
BRANCH 183 184
ATOM    184  C   GLY A  25      -7.591  -8.741  34.517  0.00  0.00    +0.231 C 
ATOM    185  N   ASN A  26      -7.777  -9.565  35.594  0.00  0.00    -0.301 N 
ATOM    186  H   ASN A  26      -7.809  -9.147  36.519  0.00  0.00    +0.150 HD
ATOM    187  O   GLY A  25      -7.461  -9.173  33.374  0.00  0.00    -0.274 OA
BRANCH 185 188
ATOM    188  CA  ASN A  26      -7.678 -11.019  35.546  0.00  0.00    +0.190 C 
BRANCH 188 189
ATOM    189  C   ASN A  26      -8.476 -11.582  36.731  0.00  0.00    +0.326 C 
ATOM    190  O   ASN A  26      -9.003 -10.886  37.591  0.00  0.00    -0.249 OA
BRANCH 189 191
ATOM    191  OXT ASN A  26      -8.581 -12.931  36.746  0.00  0.00    -0.479 OA
ATOM    192  HXT ASN A  26      -8.185 -13.400  35.988  0.00  0.00    +0.295 HD
ENDBRANCH 189 191
ENDBRANCH 188 189
BRANCH 188 193
ATOM    193  CB  ASN A  26      -6.229 -11.510  35.555  0.00  0.00    +0.129 C 
BRANCH 193 194
ATOM    194  CG  ASN A  26      -5.501 -11.182  36.844  0.00  0.00    +0.213 C 
ATOM    195  ND2 ASN A  26      -4.441 -12.000  37.112  0.00  0.00    -0.329 N 
ATOM    196 HD21 ASN A  26      -3.881 -11.774  37.927  0.00  0.00    +0.145 HD
ATOM    197 HD22 ASN A  26      -3.997 -12.566  36.401  0.00  0.00    +0.145 HD
ATOM    198  OD1 ASN A  26      -5.793 -10.261  37.601  0.00  0.00    -0.276 OA
ENDBRANCH 193 194
ENDBRANCH 188 193
ENDBRANCH 185 188
ENDBRANCH 183 184
ENDBRANCH 180 183
ENDBRANCH 178 179
BRANCH 178 199
ATOM    199  CB  LEU A  24      -6.182  -5.102  38.875  0.00  0.00    +0.034 C 
BRANCH 199 200
ATOM    200  CG  LEU A  24      -6.777  -3.914  38.084  0.00  0.00    -0.015 C 
ATOM    201  CD2 LEU A  24      -6.059  -2.614  38.476  0.00  0.00    +0.007 C 
ATOM    202  CD1 LEU A  24      -8.282  -3.722  38.288  0.00  0.00    +0.007 C 
ENDBRANCH 199 200
ENDBRANCH 178 199
ENDBRANCH 175 178
ENDBRANCH 173 174
BRANCH 173 203
ATOM    203  CB  SER A  23      -6.105  -9.228  42.638  0.00  0.00    +0.187 C 
BRANCH 203 204
ATOM    204  OG  SER A  23      -5.571 -10.377  43.298  0.00  0.00    -0.393 OA
ATOM    205  H   SER A  23      -4.880 -10.768  42.728  0.00  0.00    +0.209 HD
ENDBRANCH 203 204
ENDBRANCH 173 203
ENDBRANCH 170 173
ENDBRANCH 168 169
BRANCH 168 206
ATOM    206  CB  TYR A  22      -1.110  -7.978  40.752  0.00  0.00    +0.067 C 
BRANCH 206 207
ATOM    207  CG  TYR A  22      -1.146  -8.356  39.289  0.00  0.00    -0.045 A 
ATOM    208  CD2 TYR A  22       0.023  -8.776  38.641  0.00  0.00    +0.007 A 
ATOM    209  CE2 TYR A  22       0.015  -9.060  37.275  0.00  0.00    +0.045 A 
ATOM    210  CZ  TYR A  22      -1.166  -8.935  36.554  0.00  0.00    +0.117 A 
ATOM    211  CE1 TYR A  22      -2.342  -8.540  37.179  0.00  0.00    +0.045 A 
ATOM    212  CD1 TYR A  22      -2.329  -8.248  38.543  0.00  0.00    +0.007 A 
BRANCH 210 213
ATOM    213  OH  TYR A  22      -1.136  -9.201  35.217  0.00  0.00    -0.507 OA
ATOM    214  HH  TYR A  22      -1.992  -8.939  34.839  0.00  0.00    +0.292 HD
ENDBRANCH 210 213
ENDBRANCH 206 207
ENDBRANCH 168 206
ENDBRANCH 165 168
ENDBRANCH 163 164
ENDBRANCH 160 163
ENDBRANCH 158 159
BRANCH 158 215
ATOM    215  CB  ARG A  20       6.002 -11.006  40.804  0.00  0.00    +0.035 C 
BRANCH 215 216
ATOM    216  CG  ARG A  20       5.914 -11.431  39.332  0.00  0.00    +0.039 C 
BRANCH 216 217
ATOM    217  CD  ARG A  20       4.509 -11.796  38.861  0.00  0.00    +0.196 C 
BRANCH 217 218
ATOM    218  NE  ARG A  20       4.527 -12.086  37.449  0.00  0.00    -0.276 N 
ATOM    219  HE  ARG A  20       4.256 -13.036  37.217  0.00  0.00    +0.258 HD
ATOM    220  CZ  ARG A  20       4.294 -11.202  36.461  0.00  0.00    +0.376 C 
ATOM    221  NH2 ARG A  20       4.318 -11.803  35.258  0.00  0.00    -0.289 N 
ATOM    222 HH21 ARG A  20       4.339 -11.092  34.533  0.00  0.00    +0.255 HD
ATOM    223 HH22 ARG A  20       5.099 -12.438  35.156  0.00  0.00    +0.255 HD
ATOM    224  NH1 ARG A  20       4.098  -9.942  36.544  0.00  0.00    -0.130 NA
ATOM    225  HH1 ARG A  20       4.122  -9.650  37.520  0.00  0.00    +0.306 HD
ENDBRANCH 217 218
ENDBRANCH 216 217
ENDBRANCH 215 216
ENDBRANCH 158 215
ENDBRANCH 155 158
ENDBRANCH 153 154
BRANCH 153 226
ATOM    226  CB  TYR A  19       8.070 -15.793  42.571  0.00  0.00    +0.067 C 
BRANCH 226 227
ATOM    227  CG  TYR A  19       8.234 -15.499  44.044  0.00  0.00    -0.045 A 
ATOM    228  CD2 TYR A  19       9.356 -15.965  44.744  0.00  0.00    +0.007 A 
ATOM    229  CE2 TYR A  19       9.439 -15.810  46.129  0.00  0.00    +0.045 A 
ATOM    230  CZ  TYR A  19       8.403 -15.189  46.815  0.00  0.00    +0.117 A 
ATOM    231  CE1 TYR A  19       7.304 -14.678  46.134  0.00  0.00    +0.045 A 
ATOM    232  CD1 TYR A  19       7.227 -14.823  44.749  0.00  0.00    +0.007 A 
BRANCH 230 233
ATOM    233  OH  TYR A  19       8.491 -15.113  48.173  0.00  0.00    -0.507 OA
ATOM    234  HH  TYR A  19       7.690 -14.679  48.510  0.00  0.00    +0.292 HD
ENDBRANCH 230 233
ENDBRANCH 226 227
ENDBRANCH 153 226
ENDBRANCH 150 153
ENDBRANCH 148 149
BRANCH 148 235
ATOM    235  CB  ASN A  18      12.770 -14.136  40.354  0.00  0.00    +0.127 C 
BRANCH 235 236
ATOM    236  CG  ASN A  18      12.274 -14.565  38.994  0.00  0.00    +0.213 C 
ATOM    237  ND2 ASN A  18      11.858 -13.539  38.199  0.00  0.00    -0.329 N 
ATOM    238 HD21 ASN A  18      11.580 -13.778  37.256  0.00  0.00    +0.145 HD
ATOM    239 HD22 ASN A  18      12.091 -12.575  38.397  0.00  0.00    +0.145 HD
ATOM    240  OD1 ASN A  18      12.253 -15.718  38.583  0.00  0.00    -0.276 OA
ENDBRANCH 235 236
ENDBRANCH 148 235
ENDBRANCH 145 148
ENDBRANCH 143 144
BRANCH 143 241
ATOM    241  CB  ASP A  17      15.438 -18.689  41.951  0.00  0.00    +0.152 C 
BRANCH 241 242
ATOM    242  CG  ASP A  17      15.886 -18.128  43.271  0.00  0.00    +0.307 C 
ATOM    243  OD1 ASP A  17      15.148 -17.521  44.029  0.00  0.00    -0.251 OA
BRANCH 242 244
ATOM    244  OD2 ASP A  17      17.195 -18.334  43.537  0.00  0.00    -0.481 OA
ATOM    245  HD2 ASP A  17      17.656 -18.841  42.839  0.00  0.00    +0.295 HD
ENDBRANCH 242 244
ENDBRANCH 241 242
ENDBRANCH 143 241
ENDBRANCH 140 143
ENDBRANCH 138 139
BRANCH 138 246
ATOM    246  CB  LEU A  16      19.582 -16.768  38.886  0.00  0.00    +0.034 C 
BRANCH 246 247
ATOM    247  CG  LEU A  16      18.980 -17.289  37.564  0.00  0.00    -0.015 C 
ATOM    248  CD2 LEU A  16      19.781 -18.433  36.965  0.00  0.00    +0.007 C 
ATOM    249  CD1 LEU A  16      18.904 -16.169  36.522  0.00  0.00    +0.007 C 
ENDBRANCH 246 247
ENDBRANCH 138 246
ENDBRANCH 135 138
ENDBRANCH 133 134
ENDBRANCH 130 133
ENDBRANCH   1 129
BRANCH   1 250
ATOM    250  CB  HIS A  14      27.137 -20.699  39.834  0.00  0.00    +0.086 C 
BRANCH 250 251
ATOM    251  CG  HIS A  14      26.801 -19.771  40.936  0.00  0.00    +0.038 A 
ATOM    252  ND1 HIS A  14      25.800 -19.964  41.857  0.00  0.00    -0.348 N 
ATOM    253  HD1 HIS A  14      25.196 -20.771  41.924  0.00  0.00    +0.166 HD
ATOM    254  CE1 HIS A  14      25.767 -18.880  42.660  0.00  0.00    +0.196 A 
ATOM    255  NE2 HIS A  14      26.779 -18.064  42.422  0.00  0.00    -0.244 NA
ATOM    256  CD2 HIS A  14      27.465 -18.684  41.446  0.00  0.00    +0.133 A 
ENDBRANCH 250 251
ENDBRANCH   1 250
TORSDOF 105
