REMARK  Name = 
REMARK  117 active torsions:
REMARK  status: ('A' for Active; 'I' for Inactive)
REMARK    1  A    between atoms: CB_1  and  CA_2
REMARK    2  A    between atoms: CA_2  and  C_4
REMARK    3  A    between atoms: CA_2  and  N_157
REMARK    4  A    between atoms: N_6  and  CA_7
REMARK    5  A    between atoms: CA_7  and  CB_9
REMARK    6  A    between atoms: CA_7  and  C_10
REMARK    7  A    between atoms: N_12  and  CA_13
REMARK    8  A    between atoms: CA_13  and  CB_15
REMARK    9  A    between atoms: CA_13  and  C_19
REMARK   10  A    between atoms: CB_15  and  CG_16
REMARK   11  A    between atoms: CG_16  and  SD_17
REMARK   12  A    between atoms: SD_17  and  CE_18
REMARK   13  A    between atoms: N_21  and  CA_22
REMARK   14  A    between atoms: CA_22  and  CB_24
REMARK   15  A    between atoms: CA_22  and  C_29
REMARK   16  A    between atoms: CB_24  and  CG_25
REMARK   17  A    between atoms: CG_25  and  CD_26
REMARK   18  A    between atoms: CD_26  and  CE_27
REMARK   19  A    between atoms: CE_27  and  NZ_28
REMARK   20  A    between atoms: N_31  and  CA_32
REMARK   21  A    between atoms: CA_32  and  CB_34
REMARK   22  A    between atoms: CA_32  and  C_41
REMARK   23  A    between atoms: CB_34  and  CG_35
REMARK   24  A    between atoms: CG_35  and  CD_36
REMARK   25  A    between atoms: CD_36  and  NE_37
REMARK   26  A    between atoms: N_43  and  CA_44
REMARK   27  A    between atoms: CA_44  and  CB_46
REMARK   28  A    between atoms: CA_44  and  C_52
REMARK   29  A    between atoms: CB_46  and  CG_47
REMARK   30  A    between atoms: N_54  and  CA_55
REMARK   31  A    between atoms: CA_55  and  C_56
REMARK   32  A    between atoms: N_58  and  CA_59
REMARK   33  A    between atoms: CA_59  and  CB_61
REMARK   34  A    between atoms: CA_59  and  C_65
REMARK   35  A    between atoms: CB_61  and  CG_62
REMARK   36  A    between atoms: CG_62  and  CD1_63
REMARK   37  A    between atoms: CG_62  and  CD2_64
REMARK   38  A    between atoms: N_67  and  CA_68
REMARK   39  A    between atoms: CA_68  and  CB_70
REMARK   40  A    between atoms: CA_68  and  C_74
REMARK   41  A    between atoms: CB_70  and  CG_71
REMARK   42  A    between atoms: CG_71  and  OD2_73
REMARK   43  A    between atoms: N_76  and  CA_77
REMARK   44  A    between atoms: CA_77  and  CB_79
REMARK   45  A    between atoms: CA_77  and  C_83
REMARK   46  A    between atoms: CB_79  and  CG_80
REMARK   47  A    between atoms: N_85  and  CA_86
REMARK   48  A    between atoms: CA_86  and  CB_88
REMARK   49  A    between atoms: CA_86  and  C_96
REMARK   50  A    between atoms: CB_88  and  CG_89
REMARK   51  A    between atoms: CZ_92  and  OH_95
REMARK   52  A    between atoms: N_98  and  CA_99
REMARK   53  A    between atoms: CA_99  and  CB_101
REMARK   54  A    between atoms: CA_99  and  C_108
REMARK   55  A    between atoms: CB_101  and  CG_102
REMARK   56  A    between atoms: CG_102  and  CD_103
REMARK   57  A    between atoms: CD_103  and  NE_104
REMARK   58  A    between atoms: N_110  and  CA_111
REMARK   59  A    between atoms: CA_111  and  C_112
REMARK   60  A    between atoms: N_114  and  CA_115
REMARK   61  A    between atoms: CA_115  and  CB_117
REMARK   62  A    between atoms: CA_115  and  C_125
REMARK   63  A    between atoms: CB_117  and  CG_118
REMARK   64  A    between atoms: CZ_121  and  OH_124
REMARK   65  A    between atoms: N_127  and  CA_128
REMARK   66  A    between atoms: CA_128  and  CB_130
REMARK   67  A    between atoms: CA_128  and  C_132
REMARK   68  A    between atoms: CB_130  and  OG_131
REMARK   69  A    between atoms: N_134  and  CA_135
REMARK   70  A    between atoms: CA_135  and  CB_137
REMARK   71  A    between atoms: CA_135  and  C_141
REMARK   72  A    between atoms: CB_137  and  CG_138
REMARK   73  A    between atoms: CG_138  and  CD1_139
REMARK   74  A    between atoms: CG_138  and  CD2_140
REMARK   75  A    between atoms: N_143  and  CA_144
REMARK   76  A    between atoms: CA_144  and  C_145
REMARK   77  A    between atoms: N_147  and  CA_148
REMARK   78  A    between atoms: CA_148  and  CB_150
REMARK   79  A    between atoms: CA_148  and  C_154
REMARK   80  A    between atoms: CB_150  and  CG_151
REMARK   81  A    between atoms: C_154  and  OXT_156
REMARK   82  A    between atoms: C_158  and  CA_160
REMARK   83  A    between atoms: CA_160  and  CB_162
REMARK   84  A    between atoms: CA_160  and  N_163
REMARK   85  A    between atoms: C_164  and  CA_166
REMARK   86  A    between atoms: CA_166  and  CB_168
REMARK   87  A    between atoms: CA_166  and  N_172
REMARK   88  A    between atoms: CB_168  and  CG_169
REMARK   89  A    between atoms: CG_169  and  CD1_170
REMARK   90  A    between atoms: CG_169  and  CD2_171
REMARK   91  A    between atoms: C_173  and  CA_175
REMARK   92  A    between atoms: CA_175  and  CB_177
REMARK   93  A    between atoms: CA_175  and  N_182
REMARK   94  A    between atoms: CB_177  and  CG_178
REMARK   95  A    between atoms: CG_178  and  CD_179
REMARK   96  A    between atoms: CD_179  and  OE2_181
REMARK   97  A    between atoms: C_183  and  CA_185
REMARK   98  A    between atoms: CA_185  and  CB_187
REMARK   99  A    between atoms: CA_185  and  N_189
REMARK  100  A    between atoms: CB_187  and  SG_188
REMARK  101  A    between atoms: C_190  and  CA_192
REMARK  102  A    between atoms: CA_192  and  CB_194
REMARK  103  A    between atoms: CA_192  and  N_201
REMARK  104  A    between atoms: CB_194  and  CG_195
REMARK  105  A    between atoms: CG_195  and  CD_196
REMARK  106  A    between atoms: CD_196  and  NE_197
REMARK  107  A    between atoms: C_202  and  CA_204
REMARK  108  A    between atoms: CA_204  and  N_205
REMARK  109  A    between atoms: C_206  and  CA_208
REMARK  110  A    between atoms: CA_208  and  CB_210
REMARK  111  A    between atoms: CA_208  and  N_217
REMARK  112  A    between atoms: CB_210  and  CG_211
REMARK  113  A    between atoms: C_218  and  CA_220
REMARK  114  A    between atoms: CA_220  and  CB_222
REMARK  115  A    between atoms: CA_220  and  N_225
REMARK  116  A    between atoms: CB_222  and  CG1_223
REMARK  117  A    between atoms: CB_222  and  CG2_224
REMARK                            x       y       z     vdW  Elec       q    Type
REMARK                         _______ _______ _______ _____ _____    ______ ____
ROOT
ATOM      1  CA  HIS A  14      21.236   6.908 -33.105  0.00  0.00    +0.165 C 
ENDROOT
BRANCH   1   2
ATOM      2  C   HIS A  14      20.014   5.888 -33.075  0.00  0.00    +0.234 C 
ATOM      3  N   GLY A  15      20.251   4.668 -32.439  0.00  0.00    -0.305 N 
ATOM      4  H   GLY A  15      21.131   4.447 -32.016  0.00  0.00    +0.149 HD
ATOM      5  O   HIS A  14      18.924   6.213 -33.475  0.00  0.00    -0.274 OA
BRANCH   3   6
ATOM      6  CA  GLY A  15      19.205   3.664 -32.315  0.00  0.00    +0.200 C 
BRANCH   6   7
ATOM      7  C   GLY A  15      19.702   2.200 -32.121  0.00  0.00    +0.231 C 
ATOM      8  N   LEU A  16      20.770   2.032 -31.219  0.00  0.00    -0.303 N 
ATOM      9  H   LEU A  16      20.609   2.617 -30.413  0.00  0.00    +0.149 HD
ATOM     10  O   GLY A  15      19.098   1.258 -32.627  0.00  0.00    -0.274 OA
BRANCH   8  11
ATOM     11  CA  LEU A  16      21.329   0.654 -30.926  0.00  0.00    +0.159 C 
BRANCH  11  12
ATOM     12  C   LEU A  16      22.506   0.621 -29.848  0.00  0.00    +0.234 C 
ATOM     13  N   ASP A  17      23.075   1.837 -29.493  0.00  0.00    -0.302 N 
ATOM     14  H   ASP A  17      22.543   2.612 -29.855  0.00  0.00    +0.150 HD
ATOM     15  O   LEU A  16      22.943  -0.428 -29.386  0.00  0.00    -0.274 OA
BRANCH  13  16
ATOM     16  CA  ASP A  17      23.900   2.144 -28.259  0.00  0.00    +0.169 C 
BRANCH  16  17
ATOM     17  C   ASP A  17      25.091   3.079 -28.298  0.00  0.00    +0.234 C 
ATOM     18  N   ASN A  18      25.320   3.882 -27.171  0.00  0.00    -0.302 N 
ATOM     19  H   ASN A  18      24.858   3.650 -26.291  0.00  0.00    +0.150 HD
ATOM     20  O   ASP A  17      25.764   3.090 -29.319  0.00  0.00    -0.274 OA
BRANCH  18  21
ATOM     21  CA  ASN A  18      26.384   4.922 -27.097  0.00  0.00    +0.168 C 
BRANCH  21  22
ATOM     22  C   ASN A  18      26.564   6.134 -26.089  0.00  0.00    +0.234 C 
ATOM     23  N   TYR A  19      25.821   6.222 -24.954  0.00  0.00    -0.302 N 
ATOM     24  H   TYR A  19      25.982   5.411 -24.365  0.00  0.00    +0.150 HD
ATOM     25  O   ASN A  18      27.355   7.038 -26.371  0.00  0.00    -0.274 OA
BRANCH  23  26
ATOM     26  CA  TYR A  19      25.758   7.523 -24.203  0.00  0.00    +0.163 C 
BRANCH  26  27
ATOM     27  C   TYR A  19      24.576   7.476 -23.208  0.00  0.00    +0.234 C 
ATOM     28  N   ARG A  20      23.662   6.455 -23.433  0.00  0.00    -0.302 N 
ATOM     29  H   ARG A  20      23.964   5.718 -24.062  0.00  0.00    +0.150 HD
ATOM     30  O   TYR A  19      24.397   8.341 -22.356  0.00  0.00    -0.274 OA
BRANCH  28  31
ATOM     31  CA  ARG A  20      22.497   6.244 -22.583  0.00  0.00    +0.159 C 
BRANCH  31  32
ATOM     32  C   ARG A  20      22.775   4.979 -21.755  0.00  0.00    +0.234 C 
ATOM     33  N   GLY A  21      21.708   4.553 -21.000  0.00  0.00    -0.305 N 
ATOM     34  H   GLY A  21      20.968   5.217 -20.799  0.00  0.00    +0.149 HD
ATOM     35  O   ARG A  20      23.800   4.306 -21.873  0.00  0.00    -0.274 OA
BRANCH  33  36
ATOM     36  CA  GLY A  21      21.775   3.377 -20.155  0.00  0.00    +0.200 C 
BRANCH  36  37
ATOM     37  C   GLY A  21      21.824   2.008 -20.863  0.00  0.00    +0.231 C 
ATOM     38  N   TYR A  22      22.489   1.962 -22.075  0.00  0.00    -0.302 N 
ATOM     39  H   TYR A  22      23.163   2.718 -22.192  0.00  0.00    +0.150 HD
ATOM     40  O   GLY A  21      21.359   1.025 -20.292  0.00  0.00    -0.274 OA
BRANCH  38  41
ATOM     41  CA  TYR A  22      22.800   0.750 -22.866  0.00  0.00    +0.163 C 
BRANCH  41  42
ATOM     42  C   TYR A  22      22.466   0.897 -24.415  0.00  0.00    +0.234 C 
ATOM     43  N   SER A  23      21.988   2.100 -24.925  0.00  0.00    -0.301 N 
ATOM     44  H   SER A  23      22.510   2.852 -24.485  0.00  0.00    +0.150 HD
ATOM     45  O   TYR A  22      22.692  -0.023 -25.198  0.00  0.00    -0.274 OA
BRANCH  43  46
ATOM     46  CA  SER A  23      21.579   2.395 -26.379  0.00  0.00    +0.184 C 
BRANCH  46  47
ATOM     47  C   SER A  23      20.912   3.805 -27.065  0.00  0.00    +0.236 C 
ATOM     48  N   LEU A  24      19.742   3.680 -27.826  0.00  0.00    -0.302 N 
ATOM     49  H   LEU A  24      19.587   2.828 -28.357  0.00  0.00    +0.150 HD
ATOM     50  O   SER A  23      21.393   4.924 -26.895  0.00  0.00    -0.274 OA
BRANCH  48  51
ATOM     51  CA  LEU A  24      18.431   4.469 -27.824  0.00  0.00    +0.159 C 
BRANCH  51  52
ATOM     52  C   LEU A  24      17.661   3.822 -28.998  0.00  0.00    +0.234 C 
ATOM     53  N   GLY A  25      16.476   4.378 -29.341  0.00  0.00    -0.305 N 
ATOM     54  H   GLY A  25      15.957   4.947 -28.677  0.00  0.00    +0.149 HD
ATOM     55  O   LEU A  24      18.139   2.839 -29.572  0.00  0.00    -0.274 OA
BRANCH  53  56
ATOM     56  CA  GLY A  25      15.790   4.179 -30.603  0.00  0.00    +0.200 C 
BRANCH  56  57
ATOM     57  C   GLY A  25      14.374   4.725 -30.427  0.00  0.00    +0.231 C 
ATOM     58  N   ASN A  26      13.544   4.529 -31.496  0.00  0.00    -0.301 N 
ATOM     59  H   ASN A  26      13.828   3.901 -32.247  0.00  0.00    +0.150 HD
ATOM     60  O   GLY A  25      14.029   5.329 -29.411  0.00  0.00    -0.274 OA
BRANCH  58  61
ATOM     61  CA  ASN A  26      12.129   4.923 -31.471  0.00  0.00    +0.190 C 
BRANCH  61  62
ATOM     62  C   ASN A  26      11.389   3.933 -32.382  0.00  0.00    +0.326 C 
ATOM     63  O   ASN A  26      11.977   3.160 -33.132  0.00  0.00    -0.249 OA
BRANCH  62  64
ATOM     64  OXT ASN A  26      10.041   3.980 -32.321  0.00  0.00    -0.479 OA
ATOM     65  HXT ASN A  26       9.667   4.618 -31.663  0.00  0.00    +0.295 HD
ENDBRANCH  62  64
ENDBRANCH  61  62
BRANCH  61  66
ATOM     66  CB  ASN A  26      11.962   6.357 -31.975  0.00  0.00    +0.129 C 
BRANCH  66  67
ATOM     67  CG  ASN A  26      10.513   6.761 -31.880  0.00  0.00    +0.213 C 
ATOM     68  ND2 ASN A  26      10.064   7.624 -32.826  0.00  0.00    -0.329 N 
ATOM     69 HD21 ASN A  26       9.068   7.815 -32.813  0.00  0.00    +0.145 HD
ATOM     70 HD22 ASN A  26      10.510   7.673 -33.734  0.00  0.00    +0.145 HD
ATOM     71  OD1 ASN A  26       9.746   6.281 -31.049  0.00  0.00    -0.276 OA
ENDBRANCH  66  67
ENDBRANCH  61  66
ENDBRANCH  58  61
ENDBRANCH  56  57
ENDBRANCH  53  56
ENDBRANCH  51  52
BRANCH  51  72
ATOM     72  CB  LEU A  24      18.549   5.989 -27.940  0.00  0.00    +0.034 C 
BRANCH  72  73
ATOM     73  CG  LEU A  24      17.264   6.861 -27.947  0.00  0.00    -0.015 C 
ATOM     74  CD2 LEU A  24      17.542   8.339 -28.094  0.00  0.00    +0.007 C 
ATOM     75  CD1 LEU A  24      16.402   6.717 -26.707  0.00  0.00    +0.007 C 
ENDBRANCH  72  73
ENDBRANCH  51  72
ENDBRANCH  48  51
ENDBRANCH  46  47
BRANCH  46  76
ATOM     76  CB  SER A  23      20.967   1.266 -27.271  0.00  0.00    +0.187 C 
BRANCH  76  77
ATOM     77  OG  SER A  23      21.493  -0.027 -27.298  0.00  0.00    -0.393 OA
ATOM     78  H   SER A  23      21.849  -0.323 -26.434  0.00  0.00    +0.209 HD
ENDBRANCH  76  77
ENDBRANCH  46  76
ENDBRANCH  43  46
ENDBRANCH  41  42
BRANCH  41  79
ATOM     79  CB  TYR A  22      22.227  -0.577 -22.273  0.00  0.00    +0.067 C 
BRANCH  79  80
ATOM     80  CG  TYR A  22      22.476  -1.821 -23.091  0.00  0.00    -0.045 A 
ATOM     81  CD2 TYR A  22      21.390  -2.447 -23.723  0.00  0.00    +0.007 A 
ATOM     82  CE2 TYR A  22      21.613  -3.403 -24.708  0.00  0.00    +0.045 A 
ATOM     83  CZ  TYR A  22      22.916  -3.737 -25.049  0.00  0.00    +0.117 A 
ATOM     84  CE1 TYR A  22      24.000  -3.213 -24.349  0.00  0.00    +0.045 A 
ATOM     85  CD1 TYR A  22      23.779  -2.266 -23.350  0.00  0.00    +0.007 A 
BRANCH  83  86
ATOM     86  OH  TYR A  22      23.099  -4.564 -26.116  0.00  0.00    -0.507 OA
ATOM     87  HH  TYR A  22      23.970  -4.369 -26.496  0.00  0.00    +0.292 HD
ENDBRANCH  83  86
ENDBRANCH  79  80
ENDBRANCH  41  79
ENDBRANCH  38  41
ENDBRANCH  36  37
ENDBRANCH  33  36
ENDBRANCH  31  32
BRANCH  31  88
ATOM     88  CB  ARG A  20      21.158   6.124 -23.371  0.00  0.00    +0.035 C 
BRANCH  88  89
ATOM     89  CG  ARG A  20      20.976   4.762 -24.062  0.00  0.00    +0.039 C 
BRANCH  89  90
ATOM     90  CD  ARG A  20      19.552   4.436 -24.587  0.00  0.00    +0.196 C 
BRANCH  90  91
ATOM     91  NE  ARG A  20      19.360   3.036 -25.078  0.00  0.00    -0.276 N 
ATOM     92  HE  ARG A  20      19.027   2.949 -26.019  0.00  0.00    +0.258 HD
ATOM     93  CZ  ARG A  20      19.286   1.874 -24.410  0.00  0.00    +0.376 C 
ATOM     94  NH2 ARG A  20      19.087   1.937 -23.098  0.00  0.00    -0.289 N 
ATOM     95 HH21 ARG A  20      19.378   0.994 -22.851  0.00  0.00    +0.255 HD
ATOM     96 HH22 ARG A  20      19.764   2.578 -22.740  0.00  0.00    +0.255 HD
ATOM     97  NH1 ARG A  20      19.586   0.615 -24.696  0.00  0.00    -0.130 NA
ATOM     98  HH1 ARG A  20      20.133   0.478 -25.496  0.00  0.00    +0.306 HD
ENDBRANCH  90  91
ENDBRANCH  89  90
ENDBRANCH  88  89
ENDBRANCH  31  88
ENDBRANCH  28  31
ENDBRANCH  26  27
BRANCH  26  99
ATOM     99  CB  TYR A  19      25.713   8.918 -24.950  0.00  0.00    +0.067 C 
BRANCH  99 100
ATOM    100  CG  TYR A  19      24.539   9.333 -25.808  0.00  0.00    -0.045 A 
ATOM    101  CD2 TYR A  19      24.677  10.463 -26.645  0.00  0.00    +0.007 A 
ATOM    102  CE2 TYR A  19      23.876  10.588 -27.769  0.00  0.00    +0.045 A 
ATOM    103  CZ  TYR A  19      23.040   9.560 -28.044  0.00  0.00    +0.117 A 
ATOM    104  CE1 TYR A  19      22.720   8.591 -27.101  0.00  0.00    +0.045 A 
ATOM    105  CD1 TYR A  19      23.451   8.502 -25.945  0.00  0.00    +0.007 A 
BRANCH 103 106
ATOM    106  OH  TYR A  19      22.928   9.337 -29.402  0.00  0.00    -0.507 OA
ATOM    107  HH  TYR A  19      22.119   8.839 -29.557  0.00  0.00    +0.292 HD
ENDBRANCH 103 106
ENDBRANCH  99 100
ENDBRANCH  26  99
ENDBRANCH  23  26
ENDBRANCH  21  22
BRANCH  21 108
ATOM    108  CB  ASN A  18      26.307   5.763 -28.354  0.00  0.00    +0.127 C 
BRANCH 108 109
ATOM    109  CG  ASN A  18      25.116   6.632 -28.223  0.00  0.00    +0.213 C 
ATOM    110  ND2 ASN A  18      24.920   7.594 -29.132  0.00  0.00    -0.329 N 
ATOM    111 HD21 ASN A  18      24.014   8.034 -29.177  0.00  0.00    +0.145 HD
ATOM    112 HD22 ASN A  18      25.479   7.761 -29.946  0.00  0.00    +0.145 HD
ATOM    113  OD1 ASN A  18      24.258   6.334 -27.404  0.00  0.00    -0.276 OA
ENDBRANCH 108 109
ENDBRANCH  21 108
ENDBRANCH  18  21
ENDBRANCH  16  17
BRANCH  16 114
ATOM    114  CB  ASP A  17      24.424   1.000 -27.376  0.00  0.00    +0.152 C 
BRANCH 114 115
ATOM    115  CG  ASP A  17      25.110   1.272 -26.041  0.00  0.00    +0.307 C 
ATOM    116  OD1 ASP A  17      24.860   2.207 -25.289  0.00  0.00    -0.251 OA
BRANCH 115 117
ATOM    117  OD2 ASP A  17      26.101   0.391 -25.767  0.00  0.00    -0.481 OA
ATOM    118  HD2 ASP A  17      26.170  -0.354 -26.399  0.00  0.00    +0.295 HD
ENDBRANCH 115 117
ENDBRANCH 114 115
ENDBRANCH  16 114
ENDBRANCH  13  16
ENDBRANCH  11  12
BRANCH  11 119
ATOM    119  CB  LEU A  16      21.890  -0.005 -32.208  0.00  0.00    +0.034 C 
BRANCH 119 120
ATOM    120  CG  LEU A  16      22.521  -1.409 -32.035  0.00  0.00    -0.015 C 
ATOM    121  CD2 LEU A  16      23.289  -1.822 -33.285  0.00  0.00    +0.007 C 
ATOM    122  CD1 LEU A  16      21.528  -2.496 -31.620  0.00  0.00    +0.007 C 
ENDBRANCH 119 120
ENDBRANCH  11 119
ENDBRANCH   8  11
ENDBRANCH   6   7
ENDBRANCH   3   6
ENDBRANCH   1   2
BRANCH   1 124
ATOM    123  C   ARG A  13      23.583   6.839 -32.261  0.00  0.00    +0.234 C 
ATOM    124  N   HIS A  14      22.415   6.204 -32.611  0.00  0.00    -0.302 N 
ATOM    125  H   HIS A  14      22.518   5.239 -32.917  0.00  0.00    +0.150 HD
ATOM    126  O   ARG A  13      23.810   8.030 -32.386  0.00  0.00    -0.274 OA
BRANCH 123 127
ATOM    127  CA  ARG A  13      24.495   5.867 -31.557  0.00  0.00    +0.159 C 
BRANCH 127 129
ATOM    128  C   LYS A  12      27.084   6.318 -31.018  0.00  0.00    +0.234 C 
ATOM    129  N   ARG A  13      25.780   6.563 -31.316  0.00  0.00    -0.302 N 
ATOM    130  H   ARG A  13      25.765   7.531 -31.650  0.00  0.00    +0.150 HD
ATOM    131  O   LYS A  12      27.696   7.359 -30.735  0.00  0.00    -0.274 OA
BRANCH 128 132
ATOM    132  CA  LYS A  12      27.768   4.926 -30.836  0.00  0.00    +0.159 C 
BRANCH 132 134
ATOM    133  C   MET A  11      26.770   3.623 -32.680  0.00  0.00    +0.234 C 
ATOM    134  N   LYS A  12      26.945   3.874 -31.357  0.00  0.00    -0.302 N 
ATOM    135  H   LYS A  12      26.262   3.518 -30.692  0.00  0.00    +0.150 HD
ATOM    136  O   MET A  11      27.503   4.086 -33.540  0.00  0.00    -0.274 OA
BRANCH 133 137
ATOM    137  CA  MET A  11      25.533   2.787 -33.043  0.00  0.00    +0.160 C 
BRANCH 137 139
ATOM    138  C   ALA A  10      24.367   2.720 -35.305  0.00  0.00    +0.234 C 
ATOM    139  N   MET A  11      25.382   3.131 -34.478  0.00  0.00    -0.302 N 
ATOM    140  H   MET A  11      26.206   3.563 -34.894  0.00  0.00    +0.150 HD
ATOM    141  O   ALA A  10      23.486   1.986 -34.853  0.00  0.00    -0.274 OA
BRANCH 138 142
ATOM    142  CA  ALA A  10      24.526   3.086 -36.858  0.00  0.00    +0.156 C 
ATOM    143  CB  ALA A  10      24.300   4.464 -37.523  0.00  0.00    +0.038 C 
BRANCH 142 145
ATOM    144  C   ALA A   9      22.686   1.949 -38.171  0.00  0.00    +0.234 C 
ATOM    145  N   ALA A  10      23.929   1.969 -37.583  0.00  0.00    -0.303 N 
ATOM    146  H   ALA A  10      24.279   1.070 -37.282  0.00  0.00    +0.149 HD
ATOM    147  O   ALA A   9      21.966   2.921 -38.389  0.00  0.00    -0.274 OA
BRANCH 144 149
ATOM    148  CB  ALA A   9      23.275   0.347 -39.906  0.00  0.00    +0.038 C 
ATOM    149  CA  ALA A   9      22.304   0.582 -38.752  0.00  0.00    +0.156 C 
BRANCH 149 150
ATOM    150  N   ALA A   9      20.921   0.725 -39.191  0.00  0.00    -0.303 N 
ATOM    151  H   ALA A   9      20.505   1.637 -39.026  0.00  0.00    +0.149 HD
ATOM    152  C   ALA A   8      20.258  -0.217 -39.925  0.00  0.00    +0.234 C 
ATOM    153  O   ALA A   8      20.763  -1.301 -40.215  0.00  0.00    -0.274 OA
BRANCH 152 154
ATOM    154  CA  ALA A   8      18.906   0.263 -40.488  0.00  0.00    +0.156 C 
ATOM    155  CB  ALA A   8      17.884   0.763 -39.472  0.00  0.00    +0.038 C 
BRANCH 154 156
ATOM    156  N   ALA A   8      18.369  -0.778 -41.340  0.00  0.00    -0.303 N 
ATOM    157  H   ALA A   8      18.650  -0.750 -42.309  0.00  0.00    +0.149 HD
ATOM    158  C   LEU A   7      17.863  -1.951 -40.847  0.00  0.00    +0.234 C 
ATOM    159  O   LEU A   7      17.927  -2.261 -39.654  0.00  0.00    -0.274 OA
BRANCH 158 160
ATOM    160  CA  LEU A   7      17.183  -2.881 -41.884  0.00  0.00    +0.159 C 
BRANCH 160 161
ATOM    161  N   LEU A   7      16.843  -4.049 -41.048  0.00  0.00    -0.302 N 
ATOM    162  H   LEU A   7      17.286  -4.011 -40.131  0.00  0.00    +0.150 HD
ATOM    163  C   GLU A   6      15.972  -5.077 -41.289  0.00  0.00    +0.234 C 
ATOM    164  O   GLU A   6      15.308  -5.189 -42.318  0.00  0.00    -0.274 OA
BRANCH 163 165
ATOM    165  CA  GLU A   6      15.876  -6.101 -40.121  0.00  0.00    +0.159 C 
BRANCH 165 166
ATOM    166  N   GLU A   6      14.656  -6.896 -40.294  0.00  0.00    -0.302 N 
ATOM    167  H   GLU A   6      14.364  -7.078 -41.249  0.00  0.00    +0.150 HD
ATOM    168  C   CYS A   5      14.009  -7.480 -39.218  0.00  0.00    +0.235 C 
ATOM    169  O   CYS A   5      14.405  -7.333 -38.065  0.00  0.00    -0.274 OA
BRANCH 168 170
ATOM    170  CA  CYS A   5      12.846  -8.433 -39.576  0.00  0.00    +0.168 C 
BRANCH 170 171
ATOM    171  N   CYS A   5      11.982  -7.723 -40.517  0.00  0.00    -0.302 N 
ATOM    172  H   CYS A   5      12.273  -6.778 -40.733  0.00  0.00    +0.150 HD
ATOM    173  C   ARG A   4      10.623  -7.931 -40.588  0.00  0.00    +0.234 C 
ATOM    174  O   ARG A   4      10.033  -8.748 -39.882  0.00  0.00    -0.274 OA
BRANCH 173 175
ATOM    175  CA  ARG A   4       9.865  -7.025 -41.606  0.00  0.00    +0.159 C 
BRANCH 175 176
ATOM    176  N   ARG A   4       8.794  -6.309 -40.905  0.00  0.00    -0.303 N 
ATOM    177  H   ARG A   4       7.963  -6.061 -41.436  0.00  0.00    +0.149 HD
ATOM    178  C   GLY A   3       9.032  -5.568 -39.766  0.00  0.00    +0.231 C 
ATOM    179  O   GLY A   3      10.150  -5.417 -39.278  0.00  0.00    -0.274 OA
BRANCH 178 180
ATOM    180  CA  GLY A   3       7.802  -4.844 -39.218  0.00  0.00    +0.200 C 
BRANCH 180 181
ATOM    181  N   GLY A   3       7.871  -3.455 -39.629  0.00  0.00    -0.305 N 
ATOM    182  H   GLY A   3       8.565  -2.883 -39.162  0.00  0.00    +0.149 HD
ATOM    183  C   PHE A   2       7.397  -3.058 -40.865  0.00  0.00    +0.234 C 
ATOM    184  O   PHE A   2       6.816  -3.840 -41.618  0.00  0.00    -0.274 OA
BRANCH 183 185
ATOM    185  CA  PHE A   2       7.688  -1.582 -41.218  0.00  0.00    +0.163 C 
BRANCH 185 186
ATOM    186  N   PHE A   2       7.220  -1.260 -42.565  0.00  0.00    -0.302 N 
ATOM    187  H   PHE A   2       6.226  -1.346 -42.750  0.00  0.00    +0.150 HD
ATOM    188  C   VAL A   1       8.098  -1.072 -43.605  0.00  0.00    +0.231 C 
ATOM    189  O   VAL A   1       9.318  -1.072 -43.443  0.00  0.00    -0.274 OA
BRANCH 188 190
ATOM    190  CA  VAL A   1       7.446  -0.785 -44.980  0.00  0.00    +0.140 C 
BRANCH 190 191
ATOM    191  N   VAL A   1       7.823   0.589 -45.375  0.00  0.00    -0.320 NA
ATOM    192  H1  VAL A   1       8.842   0.661 -45.328  0.00  0.00    +0.119 HD
ATOM    193  H2  VAL A   1       7.571   0.749 -46.348  0.00  0.00    +0.119 HD
ENDBRANCH 190 191
BRANCH 190 194
ATOM    194  CB  VAL A   1       7.831  -1.836 -46.052  0.00  0.00    +0.009 C 
ATOM    195  CG2 VAL A   1       7.274  -3.215 -45.682  0.00  0.00    +0.009 C 
ATOM    196  CG1 VAL A   1       9.332  -1.944 -46.343  0.00  0.00    +0.009 C 
ENDBRANCH 190 194
ENDBRANCH 188 190
ENDBRANCH 185 186
BRANCH 185 197
ATOM    197  CB  PHE A   2       7.164  -0.570 -40.182  0.00  0.00    +0.067 C 
BRANCH 197 198
ATOM    198  CG  PHE A   2       5.658  -0.437 -40.114  0.00  0.00    -0.045 A 
ATOM    199  CD2 PHE A   2       5.044   0.771 -40.472  0.00  0.00    +0.004 A 
ATOM    200  CE2 PHE A   2       3.653   0.886 -40.478  0.00  0.00    +0.000 A 
ATOM    201  CZ  PHE A   2       2.861  -0.206 -40.132  0.00  0.00    +0.000 A 
ATOM    202  CE1 PHE A   2       3.459  -1.398 -39.736  0.00  0.00    +0.000 A 
ATOM    203  CD1 PHE A   2       4.849  -1.506 -39.707  0.00  0.00    +0.004 A 
ENDBRANCH 197 198
ENDBRANCH 185 197
ENDBRANCH 183 185
ENDBRANCH 180 181
ENDBRANCH 178 180
ENDBRANCH 175 176
BRANCH 175 204
ATOM    204  CB  ARG A   4      10.700  -6.082 -42.498  0.00  0.00    +0.035 C 
BRANCH 204 205
ATOM    205  CG  ARG A   4      11.795  -6.720 -43.384  0.00  0.00    +0.039 C 
BRANCH 205 206
ATOM    206  CD  ARG A   4      11.298  -7.811 -44.330  0.00  0.00    +0.196 C 
BRANCH 206 207
ATOM    207  NE  ARG A   4      12.403  -8.545 -44.927  0.00  0.00    -0.276 N 
ATOM    208  HE  ARG A   4      12.337  -9.541 -44.749  0.00  0.00    +0.258 HD
ATOM    209  CZ  ARG A   4      13.062  -8.248 -46.066  0.00  0.00    +0.376 C 
ATOM    210  NH2 ARG A   4      13.091  -6.968 -46.470  0.00  0.00    -0.289 N 
ATOM    211 HH21 ARG A   4      13.809  -6.869 -47.183  0.00  0.00    +0.255 HD
ATOM    212 HH22 ARG A   4      13.253  -6.306 -45.725  0.00  0.00    +0.255 HD
ATOM    213  NH1 ARG A   4      13.684  -9.128 -46.768  0.00  0.00    -0.130 NA
ATOM    214  HH1 ARG A   4      13.579 -10.047 -46.336  0.00  0.00    +0.306 HD
ENDBRANCH 206 207
ENDBRANCH 205 206
ENDBRANCH 204 205
ENDBRANCH 175 204
ENDBRANCH 173 175
ENDBRANCH 170 171
BRANCH 170 215
ATOM    215  CB  CYS A   5      13.456  -9.717 -40.164  0.00  0.00    +0.097 C 
BRANCH 215 216
ATOM    216  SG  CYS A   5      12.268 -11.039 -40.575  0.00  0.00    -0.176 S 
ATOM    217  HG  CYS A   5      11.693 -11.109 -39.364  0.00  0.00    +0.102 HD
ENDBRANCH 215 216
ENDBRANCH 170 215
ENDBRANCH 168 170
ENDBRANCH 165 166
BRANCH 165 218
ATOM    218  CB  GLU A   6      17.100  -7.032 -40.011  0.00  0.00    +0.043 C 
BRANCH 218 219
ATOM    219  CG  GLU A   6      18.415  -6.310 -39.707  0.00  0.00    +0.123 C 
BRANCH 219 220
ATOM    220  CD  GLU A   6      19.556  -7.262 -39.444  0.00  0.00    +0.305 C 
ATOM    221  OE1 GLU A   6      19.604  -8.419 -39.829  0.00  0.00    -0.251 OA
BRANCH 220 222
ATOM    222  OE2 GLU A   6      20.578  -6.672 -38.781  0.00  0.00    -0.481 OA
ATOM    223  HE2 GLU A   6      20.433  -5.729 -38.565  0.00  0.00    +0.295 HD
ENDBRANCH 220 222
ENDBRANCH 219 220
ENDBRANCH 218 219
ENDBRANCH 165 218
ENDBRANCH 163 165
ENDBRANCH 160 161
BRANCH 160 224
ATOM    224  CB  LEU A   7      15.965  -2.195 -42.551  0.00  0.00    +0.034 C 
BRANCH 224 225
ATOM    225  CG  LEU A   7      16.259  -0.909 -43.370  0.00  0.00    -0.015 C 
ATOM    226  CD2 LEU A   7      14.995  -0.243 -43.914  0.00  0.00    +0.007 C 
ATOM    227  CD1 LEU A   7      17.233  -1.167 -44.520  0.00  0.00    +0.007 C 
ENDBRANCH 224 225
ENDBRANCH 160 224
ENDBRANCH 158 160
ENDBRANCH 154 156
ENDBRANCH 152 154
ENDBRANCH 149 150
ENDBRANCH 144 149
ENDBRANCH 142 145
ENDBRANCH 138 142
ENDBRANCH 137 139
BRANCH 137 228
ATOM    228  CB  MET A  11      25.720   1.299 -32.736  0.00  0.00    +0.042 C 
BRANCH 228 229
ATOM    229  CG  MET A  11      25.833   0.925 -31.258  0.00  0.00    +0.071 C 
BRANCH 229 230
ATOM    230  SD  MET A  11      26.370  -0.805 -31.041  0.00  0.00    -0.164 S 
ATOM    231  CE  MET A  11      26.239  -0.901 -29.251  0.00  0.00    +0.084 C 
ENDBRANCH 229 230
ENDBRANCH 228 229
ENDBRANCH 137 228
ENDBRANCH 133 137
ENDBRANCH 132 134
BRANCH 132 232
ATOM    232  CB  LYS A  12      29.187   5.026 -31.355  0.00  0.00    +0.032 C 
BRANCH 232 233
ATOM    233  CG  LYS A  12      30.090   5.725 -30.330  0.00  0.00    +0.003 C 
BRANCH 233 234
ATOM    234  CD  LYS A  12      31.348   6.156 -31.046  0.00  0.00    +0.015 C 
BRANCH 234 235
ATOM    235  CE  LYS A  12      32.247   6.946 -30.119  0.00  0.00    +0.077 C 
BRANCH 235 236
ATOM    236  NZ  LYS A  12      33.477   7.231 -30.837  0.00  0.00    -0.330 NA
ATOM    237  HZ1 LYS A  12      34.150   7.653 -30.204  0.00  0.00    +0.118 HD
ATOM    238  HZ2 LYS A  12      33.883   6.356 -31.165  0.00  0.00    +0.118 HD
ENDBRANCH 235 236
ENDBRANCH 234 235
ENDBRANCH 233 234
ENDBRANCH 232 233
ENDBRANCH 132 232
ENDBRANCH 128 132
ENDBRANCH 127 129
BRANCH 127 239
ATOM    239  CB  ARG A  13      23.568   5.195 -30.452  0.00  0.00    +0.035 C 
BRANCH 239 240
ATOM    240  CG  ARG A  13      22.364   5.809 -29.609  0.00  0.00    +0.039 C 
BRANCH 240 241
ATOM    241  CD  ARG A  13      21.261   6.770 -30.077  0.00  0.00    +0.196 C 
BRANCH 241 242
ATOM    242  NE  ARG A  13      20.733   7.664 -29.048  0.00  0.00    -0.276 N 
ATOM    243  HE  ARG A  13      20.582   7.207 -28.158  0.00  0.00    +0.258 HD
ATOM    244  CZ  ARG A  13      20.261   8.943 -29.119  0.00  0.00    +0.376 C 
ATOM    245  NH2 ARG A  13      20.023   9.516 -27.921  0.00  0.00    -0.289 N 
ATOM    246 HH21 ARG A  13      20.036  10.534 -27.956  0.00  0.00    +0.255 HD
ATOM    247 HH22 ARG A  13      20.455   9.166 -27.081  0.00  0.00    +0.255 HD
ATOM    248  NH1 ARG A  13      20.232   9.695 -30.155  0.00  0.00    -0.130 NA
ATOM    249  HH1 ARG A  13      20.552   9.218 -30.990  0.00  0.00    +0.306 HD
ENDBRANCH 241 242
ENDBRANCH 240 241
ENDBRANCH 239 240
ENDBRANCH 127 239
ENDBRANCH 123 127
ENDBRANCH   1 124
BRANCH   1 250
ATOM    250  CB  HIS A  14      21.497   7.520 -34.478  0.00  0.00    +0.086 C 
BRANCH 250 251
ATOM    251  CG  HIS A  14      21.736   6.368 -35.345  0.00  0.00    +0.038 A 
ATOM    252  ND1 HIS A  14      20.725   5.758 -36.030  0.00  0.00    -0.348 N 
ATOM    253  HD1 HIS A  14      19.782   6.099 -36.140  0.00  0.00    +0.166 HD
ATOM    254  CE1 HIS A  14      21.114   4.477 -36.214  0.00  0.00    +0.196 A 
ATOM    255  NE2 HIS A  14      22.263   4.249 -35.625  0.00  0.00    -0.244 NA
ATOM    256  CD2 HIS A  14      22.756   5.461 -35.272  0.00  0.00    +0.133 A 
ENDBRANCH 250 251
ENDBRANCH   1 250
TORSDOF 105
