REMARK  Name = 
REMARK  15 active torsions:
REMARK  status: ('A' for Active; 'I' for Inactive)
REMARK    1  A    between atoms: C_1  and  C_2
REMARK    2  A    between atoms: C_2  and  C_3
REMARK    3  A    between atoms: C_2  and  C_11
REMARK    4  A    between atoms: C_3  and  C_4
REMARK    5  A    between atoms: C_4  and  C_5
REMARK    6  A    between atoms: C_6  and  C_7
REMARK    7  A    between atoms: C_6  and  C_8
REMARK    8  A    between atoms: C_8  and  O_10
REMARK    9  A    between atoms: C_13  and  O_35
REMARK   10  A    between atoms: C_14  and  C_34
REMARK   11  A    between atoms: C_15  and  C_33
REMARK   12  A    between atoms: C_17  and  O_32
REMARK   13  A    between atoms: C_27  and  O_31
REMARK   14  A    between atoms: C_28  and  C_29
REMARK   15  A    between atoms: C_28  and  C_30
REMARK                            x       y       z     vdW  Elec       q    Type
REMARK                         _______ _______ _______ _____ _____    ______ ____
ROOT
ATOM      1  C   UNL     1       2.694  -1.118  -0.604  0.00  0.00    +0.001 C 
ATOM      2  C   UNL     1       3.168  -1.422  -2.115  0.00  0.00    -0.019 C 
ATOM      3  C   UNL     1       2.662  -0.302  -3.072  0.00  0.00    +0.012 C 
ATOM      4  C   UNL     1       4.700  -1.618  -2.320  0.00  0.00    +0.039 C 
ATOM      5  C   UNL     1       5.012  -2.333  -3.669  0.00  0.00    +0.122 C 
ATOM      6  C   UNL     1       4.855  -3.810  -3.369  0.00  0.00    +0.007 C 
ATOM      7  C   UNL     1       6.109  -4.390  -2.686  0.00  0.00    +0.018 C 
ATOM      8  C   UNL     1       5.623  -5.083  -3.922  0.00  0.00    -0.017 C 
ATOM      9  C   UNL     1       6.664  -5.056  -5.035  0.00  0.00    +0.010 C 
ATOM     10  C   UNL     1       7.714  -6.113  -4.741  0.00  0.00    +0.032 C 
ATOM     11  C   UNL     1       7.099  -7.456  -4.344  0.00  0.00    +0.120 C 
ATOM     12  C   UNL     1       5.813  -7.681  -3.558  0.00  0.00    -0.006 C 
ATOM     13  C   UNL     1       6.102  -7.987  -2.050  0.00  0.00    +0.014 C 
ATOM     14  C   UNL     1       5.103  -9.034  -4.032  0.00  0.00    +0.014 C 
ATOM     15  C   UNL     1       4.878  -6.471  -3.800  0.00  0.00    +0.004 C 
ATOM     16  C   UNL     1       3.749  -6.488  -2.775  0.00  0.00    +0.005 C 
ATOM     17  C   UNL     1       2.823  -5.333  -3.030  0.00  0.00    +0.005 C 
ATOM     18  C   UNL     1       3.537  -4.059  -2.592  0.00  0.00    +0.007 C 
ATOM     19  C   UNL     1       2.502  -2.876  -2.428  0.00  0.00    +0.003 C 
ATOM     20  C   UNL     1       1.504  -2.844  -3.627  0.00  0.00    +0.014 C 
ATOM     21  C   UNL     1       1.646  -3.182  -1.146  0.00  0.00    +0.122 C 
ATOM     22  C   UNL     1       1.321  -1.831  -0.583  0.00  0.00    +0.036 C 
ENDROOT
BRANCH   1  24
ATOM     23  C   UNL     1       1.932   0.163   1.494  0.00  0.00    +0.008 C 
ATOM     24  C   UNL     1       2.568   0.287   0.084  0.00  0.00    -0.010 C 
BRANCH  24  25
ATOM     25  C   UNL     1       3.941   0.974   0.306  0.00  0.00    +0.007 C 
BRANCH  25  26
ATOM     26  C   UNL     1       4.490   1.530  -0.952  0.00  0.00    +0.028 C 
BRANCH  26  27
ATOM     27  C   UNL     1       5.863   2.114  -0.850  0.00  0.00    -0.017 C 
ATOM     28  C   UNL     1       6.131   3.433  -1.050  0.00  0.00    +0.029 C 
ATOM     29  C   UNL     1       5.064   4.433  -1.260  0.00  0.00    +0.051 C 
BRANCH  28  30
ATOM     30  C   UNL     1       7.543   3.823  -1.034  0.00  0.00    +0.332 C 
ATOM     31  O   UNL     1       8.469   3.129  -0.599  0.00  0.00    -0.246 OA
BRANCH  30  32
ATOM     32  O   UNL     1       7.825   5.042  -1.600  0.00  0.00    -0.477 OA
ATOM     33  H   UNL     1       7.105   5.482  -1.990  0.00  0.00    +0.295 HD
ENDBRANCH  30  32
ENDBRANCH  28  30
ENDBRANCH  26  27
ENDBRANCH  25  26
ENDBRANCH  24  25
ENDBRANCH   1  24
BRANCH   5  34
ATOM     34  O   UNL     1       6.314  -1.955  -4.097  0.00  0.00    -0.391 OA
ATOM     35  H   UNL     1       6.311  -0.983  -4.188  0.00  0.00    +0.210 HD
ENDBRANCH   5  34
BRANCH  11  36
ATOM     36  O   UNL     1       6.752  -7.926  -5.648  0.00  0.00    -0.391 OA
ATOM     37  H   UNL     1       7.336  -8.662  -5.939  0.00  0.00    +0.210 HD
ENDBRANCH  11  36
BRANCH  21  38
ATOM     38  O   UNL     1       2.330  -3.924  -0.120  0.00  0.00    -0.391 OA
ATOM     39  H   UNL     1       3.191  -3.534   0.063  0.00  0.00    +0.210 HD
ENDBRANCH  21  38
TORSDOF 9
