REMARK  Name = 
REMARK  12 active torsions:
REMARK  status: ('A' for Active; 'I' for Inactive)
REMARK    1  A    between atoms: C_1  and  C_2
REMARK    2  A    between atoms: C_13  and  O_32
REMARK    3  A    between atoms: C_16  and  C_20
REMARK    4  A    between atoms: N_22  and  C_23
REMARK    5  A    between atoms: C_23  and  C_24
REMARK    6  A    between atoms: C_33  and  C_34
REMARK    7  A    between atoms: C_36  and  C_57
REMARK    8  A    between atoms: C_38  and  C_56
REMARK    9  A    between atoms: C_39  and  N_40
REMARK   10  A    between atoms: N_47  and  C_48
REMARK   11  A    between atoms: C_51  and  C_54
REMARK   12  A    between atoms: C_58  and  C_59
REMARK                            x       y       z     vdW  Elec       q    Type
REMARK                         _______ _______ _______ _____ _____    ______ ____
ROOT
ATOM      1  C   UNL     1       0.509   0.219  -0.068  0.00  0.00    +0.028 C 
ATOM      2  C   UNL     1       1.889   0.003   0.599  0.00  0.00    +0.078 C 
ATOM      3  N   UNL     1       2.225   0.747   1.825  0.00  0.00    -0.266 N 
ATOM      4  C   UNL     1       1.877   2.087   1.876  0.00  0.00    +0.269 C 
ATOM      5  C   UNL     1       2.987   3.095   2.066  0.00  0.00    +0.151 A 
ATOM      6  N   UNL     1       4.260   2.707   2.504  0.00  0.00    -0.335 N 
ATOM      7  C   UNL     1       4.591   1.283   2.612  0.00  0.00    +0.173 C 
ATOM      8  C   UNL     1       5.285   3.661   2.493  0.00  0.00    +0.103 A 
ATOM      9  C   UNL     1       5.134   4.974   2.207  0.00  0.00    +0.103 A 
ATOM     10  C   UNL     1       3.732   5.405   1.985  0.00  0.00    +0.236 A 
ATOM     11  O   UNL     1       3.397   6.591   2.046  0.00  0.00    -0.283 OA
ATOM     12  C   UNL     1       2.691   4.367   1.723  0.00  0.00    +0.194 A 
ATOM     13  O   UNL     1       0.728   2.486   1.684  0.00  0.00    -0.268 OA
ATOM     14  C   UNL     1       3.379   0.331   2.628  0.00  0.00    +0.228 C 
ATOM     15  O   UNL     1       3.875  -0.952   2.236  0.00  0.00    -0.357 OA
ATOM     16  C   UNL     1       2.857  -1.892   1.977  0.00  0.00    +0.164 C 
ATOM     17  C   UNL     1       2.131  -1.503   0.717  0.00  0.00    +0.050 C 
ENDROOT
BRANCH   9  18
ATOM     18  C   UNL     1       6.337   5.858   2.202  0.00  0.00    +0.250 C 
ATOM     19  N   UNL     1       6.426   6.935   1.351  0.00  0.00    -0.307 N 
ATOM     20  H   UNL     1       7.288   7.456   1.437  0.00  0.00    +0.149 HD
ATOM     21  O   UNL     1       7.308   5.592   2.931  0.00  0.00    -0.270 OA
BRANCH  19  22
ATOM     22  C   UNL     1       5.425   7.421   0.419  0.00  0.00    +0.142 C 
BRANCH  22  23
ATOM     23  C   UNL     1       5.937   8.207  -0.748  0.00  0.00    +0.005 A 
ATOM     24  C   UNL     1       6.414   9.517  -0.601  0.00  0.00    +0.011 A 
ATOM     25  C   UNL     1       6.769  10.260  -1.730  0.00  0.00    +0.039 A 
ATOM     26  C   UNL     1       6.646   9.693  -2.996  0.00  0.00    +0.126 A 
ATOM     27  F   UNL     1       6.982  10.415  -4.073  0.00  0.00    -0.205 F 
ATOM     28  C   UNL     1       6.164   8.406  -3.164  0.00  0.00    +0.077 A 
ATOM     29  C   UNL     1       5.811   7.674  -2.039  0.00  0.00    +0.131 A 
ATOM     30  F   UNL     1       5.295   6.447  -2.211  0.00  0.00    -0.205 F 
ENDBRANCH  22  23
ENDBRANCH  19  22
ENDBRANCH   9  18
BRANCH  12  31
ATOM     31  O   UNL     1       1.496   4.803   1.175  0.00  0.00    -0.502 OA
ATOM     32  H   UNL     1       0.851   4.064   1.216  0.00  0.00    +0.292 HD
ENDBRANCH  12  31
TORSDOF 4
REMARK  Name = 
REMARK  12 active torsions:
REMARK  status: ('A' for Active; 'I' for Inactive)
REMARK    1  A    between atoms: C_1  and  C_2
REMARK    2  A    between atoms: C_13  and  O_32
REMARK    3  A    between atoms: C_16  and  C_20
REMARK    4  A    between atoms: N_22  and  C_23
REMARK    5  A    between atoms: C_23  and  C_24
REMARK    6  A    between atoms: C_33  and  C_34
REMARK    7  A    between atoms: C_36  and  C_57
REMARK    8  A    between atoms: C_38  and  C_56
REMARK    9  A    between atoms: C_39  and  N_40
REMARK   10  A    between atoms: N_47  and  C_48
REMARK   11  A    between atoms: C_51  and  C_54
REMARK   12  A    between atoms: C_58  and  C_59
REMARK                            x       y       z     vdW  Elec       q    Type
REMARK                         _______ _______ _______ _____ _____    ______ ____
ROOT
ATOM      1  N   UNL     1       4.718  -3.140  -1.465  0.00  0.00    -0.299 N 
ATOM      2  H   UNL     1       4.382  -3.425  -0.554  0.00  0.00    +0.154 HD
ATOM      3  C   UNL     1       4.187  -3.989  -2.492  0.00  0.00    +0.128 A 
ATOM      4  C   UNL     1       3.567  -5.179  -2.136  0.00  0.00    +0.063 A 
ATOM      5  C   UNL     1       3.131  -6.005  -3.168  0.00  0.00    +0.118 A 
ATOM      6  N   UNL     1       3.279  -5.721  -4.468  0.00  0.00    -0.223 NA
ATOM      7  C   UNL     1       3.921  -4.578  -4.753  0.00  0.00    +0.221 A 
ATOM      8  N   UNL     1       4.111  -4.355  -6.123  0.00  0.00    -0.284 N 
ATOM      9  H   UNL     1       3.759  -5.169  -6.610  0.00  0.00    +0.155 HD
ATOM     10  N   UNL     1       4.365  -3.725  -3.800  0.00  0.00    -0.199 NA
ENDROOT
BRANCH   1  13
ATOM     11  C   UNL     1       6.820  -1.953   0.489  0.00  0.00    +0.046 C 
ATOM     12  C   UNL     1       5.962  -1.215  -0.511  0.00  0.00    -0.028 A 
ATOM     13  C   UNL     1       5.008  -1.732  -1.439  0.00  0.00    +0.038 A 
ATOM     14  C   UNL     1       4.291  -0.762  -2.205  0.00  0.00    -0.028 A 
ATOM     15  C   UNL     1       3.116  -1.092  -3.092  0.00  0.00    +0.046 C 
ATOM     16  C   UNL     1       4.613   0.628  -2.126  0.00  0.00    +0.013 A 
ATOM     17  C   UNL     1       5.590   1.102  -1.266  0.00  0.00    -0.024 A 
ATOM     18  C   UNL     1       6.188   0.175  -0.430  0.00  0.00    +0.013 A 
BRANCH  17  19
ATOM     19  C   UNL     1       5.998   2.507  -1.191  0.00  0.00    +0.019 C 
ATOM     20  C   UNL     1       7.279   2.818  -0.917  0.00  0.00    +0.089 C 
BRANCH  20  21
ATOM     21  C   UNL     1       7.772   4.142  -0.827  0.00  0.00    +0.091 C 
ATOM     22  N   UNL     1       8.224   5.201  -0.737  0.00  0.00    -0.191 NA
ENDBRANCH  20  21
ENDBRANCH  17  19
ENDBRANCH   1  13
BRANCH   8  23
ATOM     23  C   UNL     1       5.149  -3.674  -6.797  0.00  0.00    +0.034 A 
ATOM     24  C   UNL     1       5.210  -3.693  -8.203  0.00  0.00    +0.024 A 
ATOM     25  C   UNL     1       6.274  -3.073  -8.894  0.00  0.00    +0.020 A 
ATOM     26  C   UNL     1       7.276  -2.403  -8.189  0.00  0.00    +0.052 A 
ATOM     27  C   UNL     1       7.170  -2.308  -6.802  0.00  0.00    +0.020 A 
ATOM     28  C   UNL     1       6.114  -2.915  -6.130  0.00  0.00    +0.024 A 
BRANCH  26  29
ATOM     29  C   UNL     1       8.405  -1.830  -8.858  0.00  0.00    +0.099 C 
ATOM     30  N   UNL     1       9.335  -1.383  -9.390  0.00  0.00    -0.191 NA
ENDBRANCH  26  29
ENDBRANCH   8  23
TORSDOF 5
