REMARK  Name = 
REMARK  12 active torsions:
REMARK  status: ('A' for Active; 'I' for Inactive)
REMARK    1  A    between atoms: C_1  and  C_2
REMARK    2  A    between atoms: C_13  and  O_32
REMARK    3  A    between atoms: C_16  and  C_20
REMARK    4  A    between atoms: N_22  and  C_23
REMARK    5  A    between atoms: C_23  and  C_24
REMARK    6  A    between atoms: C_33  and  C_34
REMARK    7  A    between atoms: C_36  and  C_57
REMARK    8  A    between atoms: C_38  and  C_56
REMARK    9  A    between atoms: C_39  and  N_40
REMARK   10  A    between atoms: N_47  and  C_48
REMARK   11  A    between atoms: C_51  and  C_54
REMARK   12  A    between atoms: C_58  and  C_59
REMARK                            x       y       z     vdW  Elec       q    Type
REMARK                         _______ _______ _______ _____ _____    ______ ____
ROOT
ATOM      1  C   UNL     1      -0.035   0.991   0.563  0.00  0.00    +0.028 C 
ATOM      2  C   UNL     1       1.483   0.843   0.493  0.00  0.00    +0.078 C 
ATOM      3  N   UNL     1       2.266   1.432   1.575  0.00  0.00    -0.266 N 
ATOM      4  C   UNL     1       1.983   2.715   1.926  0.00  0.00    +0.269 C 
ATOM      5  C   UNL     1       3.170   3.579   2.145  0.00  0.00    +0.151 A 
ATOM      6  N   UNL     1       4.412   3.053   2.502  0.00  0.00    -0.335 N 
ATOM      7  C   UNL     1       4.607   1.574   2.561  0.00  0.00    +0.173 C 
ATOM      8  C   UNL     1       5.483   3.954   2.554  0.00  0.00    +0.103 A 
ATOM      9  C   UNL     1       5.372   5.288   2.356  0.00  0.00    +0.103 A 
ATOM     10  C   UNL     1       3.996   5.817   2.178  0.00  0.00    +0.236 A 
ATOM     11  O   UNL     1       3.715   7.004   2.325  0.00  0.00    -0.283 OA
ATOM     12  C   UNL     1       2.920   4.871   1.844  0.00  0.00    +0.194 A 
ATOM     13  O   UNL     1       0.853   3.185   1.929  0.00  0.00    -0.268 OA
ATOM     14  C   UNL     1       3.281   0.752   2.376  0.00  0.00    +0.228 C 
ATOM     15  O   UNL     1       3.549  -0.556   1.891  0.00  0.00    -0.357 OA
ATOM     16  C   UNL     1       2.363  -1.234   1.498  0.00  0.00    +0.164 C 
ATOM     17  C   UNL     1       1.790  -0.599   0.269  0.00  0.00    +0.050 C 
ENDROOT
BRANCH   9  18
ATOM     18  C   UNL     1       6.583   6.156   2.358  0.00  0.00    +0.250 C 
ATOM     19  N   UNL     1       6.678   7.201   1.472  0.00  0.00    -0.307 N 
ATOM     20  H   UNL     1       7.533   7.736   1.548  0.00  0.00    +0.149 HD
ATOM     21  O   UNL     1       7.521   5.908   3.116  0.00  0.00    -0.270 OA
BRANCH  19  22
ATOM     22  C   UNL     1       5.661   7.651   0.541  0.00  0.00    +0.142 C 
BRANCH  22  23
ATOM     23  C   UNL     1       6.174   8.338  -0.678  0.00  0.00    +0.005 A 
ATOM     24  C   UNL     1       6.645   9.668  -0.613  0.00  0.00    +0.011 A 
ATOM     25  C   UNL     1       7.006  10.334  -1.788  0.00  0.00    +0.039 A 
ATOM     26  C   UNL     1       6.890   9.687  -3.008  0.00  0.00    +0.126 A 
ATOM     27  F   UNL     1       7.239  10.326  -4.128  0.00  0.00    -0.205 F 
ATOM     28  C   UNL     1       6.397   8.390  -3.095  0.00  0.00    +0.077 A 
ATOM     29  C   UNL     1       6.032   7.737  -1.935  0.00  0.00    +0.131 A 
ATOM     30  F   UNL     1       5.494   6.509  -2.027  0.00  0.00    -0.205 F 
ENDBRANCH  22  23
ENDBRANCH  19  22
ENDBRANCH   9  18
BRANCH  12  31
ATOM     31  O   UNL     1       1.749   5.381   1.310  0.00  0.00    -0.502 OA
ATOM     32  H   UNL     1       1.055   4.686   1.352  0.00  0.00    +0.292 HD
ENDBRANCH  12  31
TORSDOF 4
REMARK  Name = 
REMARK  12 active torsions:
REMARK  status: ('A' for Active; 'I' for Inactive)
REMARK    1  A    between atoms: C_1  and  C_2
REMARK    2  A    between atoms: C_13  and  O_32
REMARK    3  A    between atoms: C_16  and  C_20
REMARK    4  A    between atoms: N_22  and  C_23
REMARK    5  A    between atoms: C_23  and  C_24
REMARK    6  A    between atoms: C_33  and  C_34
REMARK    7  A    between atoms: C_36  and  C_57
REMARK    8  A    between atoms: C_38  and  C_56
REMARK    9  A    between atoms: C_39  and  N_40
REMARK   10  A    between atoms: N_47  and  C_48
REMARK   11  A    between atoms: C_51  and  C_54
REMARK   12  A    between atoms: C_58  and  C_59
REMARK                            x       y       z     vdW  Elec       q    Type
REMARK                         _______ _______ _______ _____ _____    ______ ____
ROOT
ATOM      1  N   UNL     1       4.633  -3.675   0.641  0.00  0.00    -0.299 N 
ATOM      2  H   UNL     1       4.714  -3.277   1.585  0.00  0.00    +0.154 HD
ATOM      3  C   UNL     1       3.367  -4.423   0.702  0.00  0.00    +0.128 A 
ATOM      4  C   UNL     1       2.910  -4.787   1.975  0.00  0.00    +0.063 A 
ATOM      5  C   UNL     1       1.673  -5.397   2.074  0.00  0.00    +0.118 A 
ATOM      6  N   UNL     1       0.917  -5.690   1.008  0.00  0.00    -0.223 NA
ATOM      7  C   UNL     1       1.427  -5.403  -0.190  0.00  0.00    +0.221 A 
ATOM      8  N   UNL     1       0.597  -5.796  -1.253  0.00  0.00    -0.284 N 
ATOM      9  H   UNL     1      -0.217  -6.259  -0.870  0.00  0.00    +0.155 HD
ATOM     10  N   UNL     1       2.635  -4.782  -0.370  0.00  0.00    -0.199 NA
ENDROOT
BRANCH   1  13
ATOM     11  C   UNL     1       7.577  -3.001   0.509  0.00  0.00    +0.046 C 
ATOM     12  C   UNL     1       6.444  -2.062   0.185  0.00  0.00    -0.028 A 
ATOM     13  C   UNL     1       5.161  -2.571  -0.155  0.00  0.00    +0.038 A 
ATOM     14  C   UNL     1       4.466  -1.774  -1.068  0.00  0.00    -0.028 A 
ATOM     15  C   UNL     1       3.339  -2.303  -1.902  0.00  0.00    +0.046 C 
ATOM     16  C   UNL     1       4.860  -0.404  -1.295  0.00  0.00    +0.013 A 
ATOM     17  C   UNL     1       5.977   0.186  -0.701  0.00  0.00    -0.024 A 
ATOM     18  C   UNL     1       6.800  -0.694  -0.010  0.00  0.00    +0.013 A 
BRANCH  17  19
ATOM     19  C   UNL     1       6.232   1.648  -0.817  0.00  0.00    +0.019 C 
ATOM     20  C   UNL     1       7.395   2.283  -0.573  0.00  0.00    +0.089 C 
BRANCH  20  21
ATOM     21  C   UNL     1       7.555   3.706  -0.652  0.00  0.00    +0.091 C 
ATOM     22  N   UNL     1       7.725   4.846  -0.687  0.00  0.00    -0.191 NA
ENDBRANCH  20  21
ENDBRANCH  17  19
ENDBRANCH   1  13
BRANCH   8  23
ATOM     23  C   UNL     1       0.809  -5.917  -2.629  0.00  0.00    +0.034 A 
ATOM     24  C   UNL     1      -0.043  -6.696  -3.428  0.00  0.00    +0.024 A 
ATOM     25  C   UNL     1       0.239  -6.913  -4.788  0.00  0.00    +0.020 A 
ATOM     26  C   UNL     1       1.363  -6.327  -5.376  0.00  0.00    +0.052 A 
ATOM     27  C   UNL     1       2.172  -5.494  -4.612  0.00  0.00    +0.020 A 
ATOM     28  C   UNL     1       1.891  -5.310  -3.260  0.00  0.00    +0.024 A 
BRANCH  26  29
ATOM     29  C   UNL     1       1.723  -6.603  -6.733  0.00  0.00    +0.099 C 
ATOM     30  N   UNL     1       2.050  -6.832  -7.826  0.00  0.00    -0.191 NA
ENDBRANCH  26  29
ENDBRANCH   8  23
TORSDOF 5
