REMARK  Name = 
REMARK  27 active torsions:
REMARK  status: ('A' for Active; 'I' for Inactive)
REMARK    1  A    between atoms: C_1  and  C_2
REMARK    2  A    between atoms: C_2  and  C_3
REMARK    3  A    between atoms: C_2  and  C_4
REMARK    4  A    between atoms: C_2  and  C_5
REMARK    5  A    between atoms: C_5  and  C_7
REMARK    6  A    between atoms: C_5  and  N_50
REMARK    7  A    between atoms: N_9  and  C_10
REMARK    8  A    between atoms: C_10  and  C_12
REMARK    9  A    between atoms: C_10  and  C_19
REMARK   10  A    between atoms: C_12  and  C_13
REMARK   11  A    between atoms: C_19  and  C_21
REMARK   12  A    between atoms: C_19  and  O_49
REMARK   13  A    between atoms: C_21  and  N_22
REMARK   14  A    between atoms: N_22  and  C_23
REMARK   15  A    between atoms: N_22  and  N_36
REMARK   16  A    between atoms: C_23  and  C_24
REMARK   17  A    between atoms: C_27  and  C_30
REMARK   18  A    between atoms: C_37  and  C_39
REMARK   19  A    between atoms: C_39  and  C_40
REMARK   20  A    between atoms: C_39  and  N_44
REMARK   21  A    between atoms: C_40  and  C_41
REMARK   22  A    between atoms: C_40  and  C_42
REMARK   23  A    between atoms: C_40  and  C_43
REMARK   24  A    between atoms: C_45  and  O_47
REMARK   25  A    between atoms: O_47  and  C_48
REMARK   26  A    between atoms: C_51  and  O_53
REMARK   27  A    between atoms: O_53  and  C_54
REMARK                            x       y       z     vdW  Elec       q    Type
REMARK                         _______ _______ _______ _____ _____    ______ ____
ROOT
ATOM      1  N   UNL     1      -0.527  -0.623   1.875  0.00  0.00    -0.220 NA
ENDROOT
BRANCH   1   2
ATOM      2  N   UNL     1      -0.977  -1.684   1.016  0.00  0.00    -0.246 N 
ATOM      3  H   UNL     1      -0.519  -2.597   1.075  0.00  0.00    +0.169 HD
ATOM      4  C   UNL     1      -1.769  -1.393  -0.107  0.00  0.00    +0.248 C 
ATOM      5  O   UNL     1      -2.112  -0.251  -0.410  0.00  0.00    -0.272 OA
BRANCH   4   6
ATOM      6  C   UNL     1      -2.123  -2.643  -0.989  0.00  0.00    +0.169 C 
BRANCH   6   7
ATOM      7  C   UNL     1      -3.562  -2.635  -1.626  0.00  0.00    -0.011 C 
ATOM      8  C   UNL     1      -4.624  -2.568  -0.513  0.00  0.00    +0.013 C 
ATOM      9  C   UNL     1      -3.804  -3.952  -2.408  0.00  0.00    +0.013 C 
ATOM     10  C   UNL     1      -3.802  -1.476  -2.615  0.00  0.00    +0.013 C 
ENDBRANCH   6   7
BRANCH   6  11
ATOM     11  N   UNL     1      -1.105  -2.810  -2.022  0.00  0.00    -0.269 N 
ATOM     12  H   UNL     1      -1.190  -2.348  -2.916  0.00  0.00    +0.153 HD
ATOM     13  C   UNL     1       0.026  -3.536  -1.841  0.00  0.00    +0.401 C 
ATOM     14  O   UNL     1       0.341  -4.073  -0.790  0.00  0.00    -0.226 OA
BRANCH  13  15
ATOM     15  O   UNL     1       0.715  -3.587  -3.005  0.00  0.00    -0.454 OA
ATOM     16  C   UNL     1       1.895  -4.395  -2.977  0.00  0.00    +0.282 C 
ENDBRANCH  13  15
ENDBRANCH   6  11
ENDBRANCH   4   6
ENDBRANCH   1   2
BRANCH   1  17
ATOM     17  C   UNL     1      -1.451  -0.316   2.973  0.00  0.00    +0.139 C 
BRANCH  17  18
ATOM     18  C   UNL     1      -1.144   0.884   3.948  0.00  0.00    +0.151 C 
BRANCH  18  19
ATOM     19  O   UNL     1      -2.159   0.832   4.982  0.00  0.00    -0.389 OA
ATOM     20  H   UNL     1      -1.962   0.062   5.540  0.00  0.00    +0.210 HD
ENDBRANCH  18  19
BRANCH  18  21
ATOM     21  C   UNL     1      -1.206   2.308   3.319  0.00  0.00    +0.107 C 
BRANCH  21  23
ATOM     22  C   UNL     1      -0.014   3.814   5.055  0.00  0.00    +0.234 C 
ATOM     23  N   UNL     1      -1.124   3.430   4.316  0.00  0.00    -0.308 N 
ATOM     24  H   UNL     1      -1.803   4.165   4.163  0.00  0.00    +0.149 HD
ATOM     25  O   UNL     1       1.011   3.136   5.087  0.00  0.00    -0.274 OA
BRANCH  22  26
ATOM     26  C   UNL     1      -0.132   5.230   5.773  0.00  0.00    +0.167 C 
BRANCH  26  27
ATOM     27  N   UNL     1      -1.477   5.768   5.549  0.00  0.00    -0.269 N 
ATOM     28  H   UNL     1      -2.275   5.236   5.865  0.00  0.00    +0.153 HD
ATOM     29  C   UNL     1      -1.762   6.892   4.839  0.00  0.00    +0.401 C 
ATOM     30  O   UNL     1      -0.953   7.697   4.409  0.00  0.00    -0.226 OA
BRANCH  29  31
ATOM     31  O   UNL     1      -3.106   6.948   4.681  0.00  0.00    -0.454 OA
ATOM     32  C   UNL     1      -3.568   8.031   3.873  0.00  0.00    +0.282 C 
ENDBRANCH  29  31
ENDBRANCH  26  27
BRANCH  26  34
ATOM     33  C   UNL     1       1.651   4.699   7.569  0.00  0.00    +0.013 C 
ATOM     34  C   UNL     1       0.237   5.262   7.303  0.00  0.00    -0.011 C 
ATOM     35  C   UNL     1       0.240   6.714   7.851  0.00  0.00    +0.013 C 
ATOM     36  C   UNL     1      -0.786   4.457   8.127  0.00  0.00    +0.013 C 
ENDBRANCH  26  34
ENDBRANCH  22  26
ENDBRANCH  21  23
BRANCH  21  37
ATOM     37  C   UNL     1      -0.227   2.528   2.145  0.00  0.00    +0.060 C 
BRANCH  37  38
ATOM     38  C   UNL     1      -0.553   3.809   1.419  0.00  0.00    -0.046 A 
ATOM     39  C   UNL     1      -1.610   3.832   0.496  0.00  0.00    +0.004 A 
ATOM     40  C   UNL     1      -2.037   5.043  -0.040  0.00  0.00    +0.000 A 
ATOM     41  C   UNL     1      -1.406   6.227   0.336  0.00  0.00    +0.000 A 
ATOM     42  C   UNL     1      -0.318   6.200   1.218  0.00  0.00    +0.000 A 
ATOM     43  C   UNL     1       0.114   4.993   1.746  0.00  0.00    +0.004 A 
ENDBRANCH  37  38
ENDBRANCH  21  37
ENDBRANCH  18  21
ENDBRANCH  17  18
ENDBRANCH   1  17
BRANCH   1  44
ATOM     44  C   UNL     1       0.899  -0.678   2.221  0.00  0.00    +0.140 C 
BRANCH  44  45
ATOM     45  C   UNL     1       1.432  -1.933   2.874  0.00  0.00    -0.032 A 
ATOM     46  C   UNL     1       1.052  -2.389   4.144  0.00  0.00    +0.005 A 
ATOM     47  C   UNL     1       1.655  -3.527   4.721  0.00  0.00    +0.010 A 
ATOM     48  C   UNL     1       2.673  -4.223   4.053  0.00  0.00    +0.000 A 
ATOM     49  C   UNL     1       3.059  -3.726   2.795  0.00  0.00    +0.010 A 
ATOM     50  C   UNL     1       2.449  -2.622   2.215  0.00  0.00    +0.005 A 
BRANCH  48  51
ATOM     51  C   UNL     1       3.373  -5.427   4.569  0.00  0.00    +0.071 A 
ATOM     52  N   UNL     1       3.943  -6.194   3.600  0.00  0.00    -0.255 NA
ATOM     53  C   UNL     1       4.687  -7.259   3.956  0.00  0.00    +0.111 A 
ATOM     54  C   UNL     1       4.902  -7.625   5.266  0.00  0.00    +0.020 A 
ATOM     55  C   UNL     1       4.300  -6.861   6.260  0.00  0.00    +0.004 A 
ATOM     56  C   UNL     1       3.522  -5.750   5.915  0.00  0.00    +0.028 A 
ENDBRANCH  48  51
ENDBRANCH  44  45
ENDBRANCH   1  44
TORSDOF 19
