REMARK  Name = 
REMARK  27 active torsions:
REMARK  status: ('A' for Active; 'I' for Inactive)
REMARK    1  A    between atoms: C_1  and  C_2
REMARK    2  A    between atoms: C_2  and  C_3
REMARK    3  A    between atoms: C_2  and  C_4
REMARK    4  A    between atoms: C_2  and  C_5
REMARK    5  A    between atoms: C_5  and  C_7
REMARK    6  A    between atoms: C_5  and  N_50
REMARK    7  A    between atoms: N_9  and  C_10
REMARK    8  A    between atoms: C_10  and  C_12
REMARK    9  A    between atoms: C_10  and  C_19
REMARK   10  A    between atoms: C_12  and  C_13
REMARK   11  A    between atoms: C_19  and  C_21
REMARK   12  A    between atoms: C_19  and  O_49
REMARK   13  A    between atoms: C_21  and  N_22
REMARK   14  A    between atoms: N_22  and  C_23
REMARK   15  A    between atoms: N_22  and  N_36
REMARK   16  A    between atoms: C_23  and  C_24
REMARK   17  A    between atoms: C_27  and  C_30
REMARK   18  A    between atoms: C_37  and  C_39
REMARK   19  A    between atoms: C_39  and  C_40
REMARK   20  A    between atoms: C_39  and  N_44
REMARK   21  A    between atoms: C_40  and  C_41
REMARK   22  A    between atoms: C_40  and  C_42
REMARK   23  A    between atoms: C_40  and  C_43
REMARK   24  A    between atoms: C_45  and  O_47
REMARK   25  A    between atoms: O_47  and  C_48
REMARK   26  A    between atoms: C_51  and  O_53
REMARK   27  A    between atoms: O_53  and  C_54
REMARK                            x       y       z     vdW  Elec       q    Type
REMARK                         _______ _______ _______ _____ _____    ______ ____
ROOT
ATOM      1  N   UNL     1      -0.490   1.661  -0.348  0.00  0.00    -0.220 NA
ENDROOT
BRANCH   1   2
ATOM      2  N   UNL     1      -0.885   1.240   0.984  0.00  0.00    -0.246 N 
ATOM      3  H   UNL     1      -1.793   1.571   1.319  0.00  0.00    +0.169 HD
ATOM      4  C   UNL     1      -0.413   0.048   1.537  0.00  0.00    +0.248 C 
ATOM      5  O   UNL     1       0.453  -0.653   1.020  0.00  0.00    -0.272 OA
BRANCH   4   6
ATOM      6  C   UNL     1      -0.975  -0.247   2.963  0.00  0.00    +0.169 C 
BRANCH   6   7
ATOM      7  C   UNL     1      -0.944  -1.767   3.356  0.00  0.00    -0.011 C 
ATOM      8  C   UNL     1      -1.808  -2.568   2.362  0.00  0.00    +0.013 C 
ATOM      9  C   UNL     1      -1.553  -1.959   4.764  0.00  0.00    +0.013 C 
ATOM     10  C   UNL     1       0.476  -2.376   3.393  0.00  0.00    +0.013 C 
ENDBRANCH   6   7
BRANCH   6  11
ATOM     11  N   UNL     1      -0.230   0.559   3.934  0.00  0.00    -0.269 N 
ATOM     12  H   UNL     1       0.655   0.229   4.291  0.00  0.00    +0.153 HD
ATOM     13  C   UNL     1      -0.577   1.813   4.318  0.00  0.00    +0.401 C 
ATOM     14  O   UNL     1      -1.536   2.440   3.899  0.00  0.00    -0.226 OA
BRANCH  13  15
ATOM     15  O   UNL     1       0.308   2.243   5.249  0.00  0.00    -0.454 OA
ATOM     16  C   UNL     1       0.026   3.528   5.809  0.00  0.00    +0.282 C 
ENDBRANCH  13  15
ENDBRANCH   6  11
ENDBRANCH   4   6
ENDBRANCH   1   2
BRANCH   1  17
ATOM     17  C   UNL     1      -1.208   2.923  -0.680  0.00  0.00    +0.139 C 
BRANCH  17  18
ATOM     18  C   UNL     1      -2.765   2.884  -0.750  0.00  0.00    +0.151 C 
BRANCH  18  19
ATOM     19  O   UNL     1      -3.283   2.462   0.528  0.00  0.00    -0.389 OA
ATOM     20  H   UNL     1      -3.313   3.247   1.104  0.00  0.00    +0.210 HD
ENDBRANCH  18  19
BRANCH  18  21
ATOM     21  C   UNL     1      -3.351   2.035  -1.921  0.00  0.00    +0.107 C 
BRANCH  21  23
ATOM     22  C   UNL     1      -5.547   1.061  -1.121  0.00  0.00    +0.234 C 
ATOM     23  N   UNL     1      -4.827   1.983  -1.863  0.00  0.00    -0.308 N 
ATOM     24  H   UNL     1      -5.341   2.596  -2.479  0.00  0.00    +0.149 HD
ATOM     25  O   UNL     1      -5.030   0.111  -0.540  0.00  0.00    -0.274 OA
BRANCH  22  26
ATOM     26  C   UNL     1      -7.094   1.236  -1.220  0.00  0.00    +0.167 C 
BRANCH  26  28
ATOM     27  C   UNL     1      -7.379  -1.103  -2.208  0.00  0.00    +0.013 C 
ATOM     28  C   UNL     1      -7.713   0.396  -2.394  0.00  0.00    -0.011 C 
ATOM     29  C   UNL     1      -9.252   0.509  -2.408  0.00  0.00    +0.013 C 
ATOM     30  C   UNL     1      -7.190   0.836  -3.774  0.00  0.00    +0.013 C 
ENDBRANCH  26  28
BRANCH  26  31
ATOM     31  N   UNL     1      -7.350   2.684  -1.309  0.00  0.00    -0.269 N 
ATOM     32  H   UNL     1      -6.552   3.303  -1.264  0.00  0.00    +0.153 HD
ATOM     33  C   UNL     1      -8.428   3.309  -0.767  0.00  0.00    +0.401 C 
ATOM     34  O   UNL     1      -9.435   2.780  -0.331  0.00  0.00    -0.226 OA
BRANCH  33  35
ATOM     35  O   UNL     1      -8.160   4.637  -0.757  0.00  0.00    -0.454 OA
ATOM     36  C   UNL     1      -9.165   5.484  -0.197  0.00  0.00    +0.282 C 
ENDBRANCH  33  35
ENDBRANCH  26  31
ENDBRANCH  22  26
ENDBRANCH  21  23
BRANCH  21  37
ATOM     37  C   UNL     1      -2.917   2.539  -3.332  0.00  0.00    +0.060 C 
BRANCH  37  38
ATOM     38  C   UNL     1      -3.316   3.963  -3.699  0.00  0.00    -0.046 A 
ATOM     39  C   UNL     1      -4.529   4.230  -4.354  0.00  0.00    +0.004 A 
ATOM     40  C   UNL     1      -4.884   5.539  -4.699  0.00  0.00    +0.000 A 
ATOM     41  C   UNL     1      -4.032   6.599  -4.399  0.00  0.00    +0.000 A 
ATOM     42  C   UNL     1      -2.821   6.350  -3.761  0.00  0.00    +0.000 A 
ATOM     43  C   UNL     1      -2.463   5.042  -3.422  0.00  0.00    +0.004 A 
ENDBRANCH  37  38
ENDBRANCH  21  37
ENDBRANCH  18  21
ENDBRANCH  17  18
ENDBRANCH   1  17
BRANCH   1  44
ATOM     44  C   UNL     1       0.996   1.874  -0.395  0.00  0.00    +0.140 C 
BRANCH  44  45
ATOM     45  C   UNL     1       1.544   2.302  -1.744  0.00  0.00    -0.032 A 
ATOM     46  C   UNL     1       1.830   1.369  -2.751  0.00  0.00    +0.005 A 
ATOM     47  C   UNL     1       2.191   1.794  -4.041  0.00  0.00    +0.010 A 
ATOM     48  C   UNL     1       2.251   3.161  -4.363  0.00  0.00    +0.000 A 
ATOM     49  C   UNL     1       2.071   4.074  -3.307  0.00  0.00    +0.010 A 
ATOM     50  C   UNL     1       1.737   3.658  -2.019  0.00  0.00    +0.005 A 
BRANCH  48  51
ATOM     51  C   UNL     1       2.405   3.672  -5.743  0.00  0.00    +0.071 A 
ATOM     52  N   UNL     1       1.780   4.861  -5.972  0.00  0.00    -0.255 NA
ATOM     53  C   UNL     1       1.839   5.395  -7.208  0.00  0.00    +0.111 A 
ATOM     54  C   UNL     1       2.511   4.808  -8.260  0.00  0.00    +0.020 A 
ATOM     55  C   UNL     1       3.150   3.597  -8.029  0.00  0.00    +0.004 A 
ATOM     56  C   UNL     1       3.094   3.015  -6.760  0.00  0.00    +0.028 A 
ENDBRANCH  48  51
ENDBRANCH  44  45
ENDBRANCH   1  44
TORSDOF 19
