REMARK  Name = 
REMARK  16 active torsions:
REMARK  status: ('A' for Active; 'I' for Inactive)
REMARK    1  A    between atoms: C_1  and  C_2
REMARK    2  A    between atoms: C_2  and  C_3
REMARK    3  A    between atoms: C_2  and  C_4
REMARK    4  A    between atoms: C_4  and  N_5
REMARK    5  A    between atoms: N_5  and  C_6
REMARK    6  A    between atoms: C_9  and  S_12
REMARK    7  A    between atoms: S_12  and  N_15
REMARK    8  A    between atoms: N_15  and  C_16
REMARK    9  A    between atoms: C_16  and  C_17
REMARK   10  A    between atoms: C_17  and  C_19
REMARK   11  A    between atoms: C_17  and  O_38
REMARK   12  A    between atoms: C_19  and  C_21
REMARK   13  A    between atoms: C_19  and  N_28
REMARK   14  A    between atoms: C_21  and  C_22
REMARK   15  A    between atoms: C_29  and  O_31
REMARK   16  A    between atoms: O_31  and  C_32
REMARK                            x       y       z     vdW  Elec       q    Type
REMARK                         _______ _______ _______ _____ _____    ______ ____
ROOT
ATOM      1  C   UNL     1      11.951   6.779   0.528  0.00  0.00    +0.150 C 
ENDROOT
BRANCH   1   2
ATOM      2  O   UNL     1      10.603   6.879   0.030  0.00  0.00    -0.389 OA
ATOM      3  H   UNL     1      10.592   7.634  -0.584  0.00  0.00    +0.210 HD
ENDBRANCH   1   2
BRANCH   1   4
ATOM      4  C   UNL     1      12.797   6.060  -0.541  0.00  0.00    +0.139 C 
BRANCH   4   5
ATOM      5  N   UNL     1      12.791   6.825  -1.807  0.00  0.00    -0.187 NA
ATOM      6  H   UNL     1      11.887   7.097  -2.187  0.00  0.00    +0.148 HD
BRANCH   5   7
ATOM      7  S   UNL     1      13.826   6.297  -3.035  0.00  0.00    +0.058 S 
ATOM      8  O   UNL     1      13.489   7.062  -4.214  0.00  0.00    -0.153 OA
ATOM      9  O   UNL     1      15.166   6.253  -2.495  0.00  0.00    -0.153 OA
BRANCH   7  13
ATOM     10  C   UNL     1      12.371   2.006  -3.769  0.00  0.00    +0.027 A 
ATOM     11  C   UNL     1      13.686   2.256  -3.344  0.00  0.00    +0.025 A 
ATOM     12  C   UNL     1      14.151   3.559  -3.130  0.00  0.00    +0.030 A 
ATOM     13  C   UNL     1      13.279   4.628  -3.314  0.00  0.00    +0.105 A 
ATOM     14  C   UNL     1      11.956   4.408  -3.689  0.00  0.00    +0.030 A 
ATOM     15  C   UNL     1      11.505   3.101  -3.892  0.00  0.00    +0.025 A 
BRANCH  10  16
ATOM     16  N   UNL     1      11.952   0.678  -3.919  0.00  0.00    -0.344 N 
ATOM     17  H   UNL     1      12.739   0.055  -4.085  0.00  0.00    +0.146 HD
BRANCH  16  18
ATOM     18  C   UNL     1      10.823   0.393  -4.806  0.00  0.00    +0.104 C 
BRANCH  18  20
ATOM     19  C   UNL     1      10.173  -1.673  -3.485  0.00  0.00    +0.009 C 
ATOM     20  C   UNL     1      10.546  -1.119  -4.862  0.00  0.00    -0.000 C 
ATOM     21  C   UNL     1       9.419  -1.407  -5.858  0.00  0.00    +0.009 C 
ENDBRANCH  18  20
ENDBRANCH  16  18
ENDBRANCH  10  16
ENDBRANCH   7  13
ENDBRANCH   5   7
ENDBRANCH   4   5
ENDBRANCH   1   4
BRANCH   1  22
ATOM     22  C   UNL     1      11.939   5.988   1.870  0.00  0.00    +0.110 C 
BRANCH  22  23
ATOM     23  N   UNL     1      13.284   5.648   2.335  0.00  0.00    -0.275 N 
ATOM     24  H   UNL     1      13.557   4.678   2.421  0.00  0.00    +0.152 HD
ATOM     25  C   UNL     1      14.219   6.569   2.690  0.00  0.00    +0.401 C 
ATOM     26  O   UNL     1      14.062   7.781   2.626  0.00  0.00    -0.226 OA
BRANCH  25  27
ATOM     27  O   UNL     1      15.345   5.946   3.106  0.00  0.00    -0.445 OA
BRANCH  27  28
ATOM     28  C   UNL     1      16.419   6.824   3.456  0.00  0.00    +0.206 C 
ATOM     29  C   UNL     1      17.687   6.036   3.749  0.00  0.00    +0.204 C 
ATOM     30  O   UNL     1      18.435   6.769   4.733  0.00  0.00    -0.376 OA
ATOM     31  C   UNL     1      17.626   7.865   5.180  0.00  0.00    +0.163 C 
ATOM     32  C   UNL     1      16.207   7.550   4.768  0.00  0.00    +0.075 C 
ENDBRANCH  27  28
ENDBRANCH  25  27
ENDBRANCH  22  23
BRANCH  22  33
ATOM     33  C   UNL     1      11.106   6.739   2.947  0.00  0.00    +0.060 C 
BRANCH  33  34
ATOM     34  C   UNL     1      10.821   5.899   4.174  0.00  0.00    -0.046 A 
ATOM     35  C   UNL     1       9.681   5.085   4.222  0.00  0.00    +0.004 A 
ATOM     36  C   UNL     1       9.431   4.279   5.334  0.00  0.00    +0.000 A 
ATOM     37  C   UNL     1      10.318   4.274   6.407  0.00  0.00    +0.000 A 
ATOM     38  C   UNL     1      11.448   5.092   6.378  0.00  0.00    +0.000 A 
ATOM     39  C   UNL     1      11.696   5.904   5.269  0.00  0.00    +0.004 A 
ENDBRANCH  33  34
ENDBRANCH  22  33
ENDBRANCH   1  22
TORSDOF 14
