REMARK  Name = 
REMARK  13 active torsions:
REMARK  status: ('A' for Active; 'I' for Inactive)
REMARK    1  A    between atoms: C_1  and  C_2
REMARK    2  A    between atoms: C_2  and  O_4
REMARK    3  A    between atoms: O_4  and  N_5
REMARK    4  A    between atoms: N_5  and  C_6
REMARK    5  A    between atoms: C_8  and  N_26
REMARK    6  A    between atoms: C_11  and  C_23
REMARK    7  A    between atoms: C_13  and  C_15
REMARK    8  A    between atoms: C_15  and  C_17
REMARK    9  A    between atoms: C_15  and  O_22
REMARK   10  A    between atoms: C_17  and  C_19
REMARK   11  A    between atoms: C_17  and  O_21
REMARK   12  A    between atoms: C_19  and  O_20
REMARK   13  A    between atoms: C_23  and  O_25
REMARK                            x       y       z     vdW  Elec       q    Type
REMARK                         _______ _______ _______ _____ _____    ______ ____
ROOT
ATOM      1  C   UNL     1       3.341   2.924   2.300  0.00  0.00    +0.180 C 
ATOM      2  C   UNL     1       1.913   3.540   2.276  0.00  0.00    +0.228 C 
ATOM      3  O   UNL     1       0.940   2.887   1.431  0.00  0.00    -0.478 OA
ATOM      4  C   UNL     1       1.385   2.283   0.276  0.00  0.00    +0.204 C 
ATOM      5  C   UNL     1       2.666   2.011   0.015  0.00  0.00    +0.071 C 
ATOM      6  C   UNL     1       3.785   2.286   0.957  0.00  0.00    +0.238 C 
ENDROOT
BRANCH   6   7
ATOM      7  N   UNL     1       4.721   3.222   0.321  0.00  0.00    -0.104 NA
ATOM      8  C   UNL     1       5.695   2.769  -0.375  0.00  0.00    +0.377 C 
ATOM      9  N   UNL     1       6.609   3.622  -0.877  0.00  0.00    -0.289 N 
ATOM     10  H   UNL     1       6.895   3.400  -1.822  0.00  0.00    +0.255 HD
ATOM     11  H   UNL     1       6.294   4.586  -0.806  0.00  0.00    +0.255 HD
ATOM     12  N   UNL     1       6.012   1.508  -0.742  0.00  0.00    -0.289 N 
ATOM     13  H   UNL     1       7.007   1.315  -0.721  0.00  0.00    +0.255 HD
ATOM     14  H   UNL     1       5.475   0.751  -0.342  0.00  0.00    +0.255 HD
ENDBRANCH   6   7
BRANCH   1  15
ATOM     15  N   UNL     1       3.620   2.081   3.489  0.00  0.00    -0.141 NA
ATOM     16  H   UNL     1       4.614   1.841   3.502  0.00  0.00    +0.168 HD
BRANCH  15  17
ATOM     17  O   UNL     1       2.988   0.776   3.325  0.00  0.00    -0.369 OA
BRANCH  17  19
ATOM     18  C   UNL     1       2.162  -1.136   4.419  0.00  0.00    +0.138 C 
ATOM     19  C   UNL     1       2.497   0.321   4.532  0.00  0.00    +0.323 C 
ATOM     20  O   UNL     1       2.412   0.953   5.578  0.00  0.00    -0.249 OA
ENDBRANCH  17  19
ENDBRANCH  15  17
ENDBRANCH   1  15
BRANCH   4  21
ATOM     21  C   UNL     1       0.365   1.903  -0.754  0.00  0.00    +0.372 C 
ATOM     22  O   UNL     1       0.588   1.299  -1.791  0.00  0.00    -0.242 OA
BRANCH  21  23
ATOM     23  O   UNL     1      -0.870   2.307  -0.372  0.00  0.00    -0.475 OA
ATOM     24  H   UNL     1      -0.815   2.764   0.492  0.00  0.00    +0.296 HD
ENDBRANCH  21  23
ENDBRANCH   4  21
BRANCH   2  25
ATOM     25  C   UNL     1       1.991   5.068   1.949  0.00  0.00    +0.187 C 
BRANCH  25  26
ATOM     26  O   UNL     1       2.445   5.308   0.609  0.00  0.00    -0.385 OA
ATOM     27  H   UNL     1       3.301   4.849   0.482  0.00  0.00    +0.210 HD
ENDBRANCH  25  26
BRANCH  25  28
ATOM     28  C   UNL     1       0.657   5.816   2.149  0.00  0.00    +0.172 C 
BRANCH  28  29
ATOM     29  O   UNL     1       0.136   5.590   3.465  0.00  0.00    -0.387 OA
ATOM     30  H   UNL     1      -0.561   6.266   3.592  0.00  0.00    +0.210 HD
ENDBRANCH  28  29
BRANCH  28  31
ATOM     31  C   UNL     1       0.840   7.331   1.955  0.00  0.00    +0.189 C 
BRANCH  31  32
ATOM     32  O   UNL     1      -0.424   7.982   2.124  0.00  0.00    -0.392 OA
ATOM     33  H   UNL     1      -0.857   7.985   1.251  0.00  0.00    +0.210 HD
ENDBRANCH  31  32
ENDBRANCH  28  31
ENDBRANCH  25  28
ENDBRANCH   2  25
TORSDOF 12
