REMARK  Name = 
REMARK  13 active torsions:
REMARK  status: ('A' for Active; 'I' for Inactive)
REMARK    1  A    between atoms: C_1  and  C_2
REMARK    2  A    between atoms: C_2  and  O_4
REMARK    3  A    between atoms: O_4  and  N_5
REMARK    4  A    between atoms: N_5  and  C_6
REMARK    5  A    between atoms: C_8  and  N_26
REMARK    6  A    between atoms: C_11  and  C_23
REMARK    7  A    between atoms: C_13  and  C_15
REMARK    8  A    between atoms: C_15  and  C_17
REMARK    9  A    between atoms: C_15  and  O_22
REMARK   10  A    between atoms: C_17  and  C_19
REMARK   11  A    between atoms: C_17  and  O_21
REMARK   12  A    between atoms: C_19  and  O_20
REMARK   13  A    between atoms: C_23  and  O_25
REMARK                            x       y       z     vdW  Elec       q    Type
REMARK                         _______ _______ _______ _____ _____    ______ ____
ROOT
ATOM      1  C   UNL     1       0.584   0.558  -6.082  0.00  0.00    +0.180 C 
ATOM      2  C   UNL     1       2.034   0.703  -5.507  0.00  0.00    +0.228 C 
ATOM      3  O   UNL     1       3.119   1.000  -6.412  0.00  0.00    -0.478 OA
ATOM      4  C   UNL     1       2.847   1.170  -7.748  0.00  0.00    +0.204 C 
ATOM      5  C   UNL     1       1.679   0.886  -8.333  0.00  0.00    +0.071 C 
ATOM      6  C   UNL     1       0.532   0.303  -7.604  0.00  0.00    +0.238 C 
ENDROOT
BRANCH   6   7
ATOM      7  N   UNL     1       0.590  -1.152  -7.790  0.00  0.00    -0.104 NA
ATOM      8  C   UNL     1      -0.051  -1.713  -8.746  0.00  0.00    +0.377 C 
ATOM      9  N   UNL     1      -0.028  -3.060  -8.811  0.00  0.00    -0.289 N 
ATOM     10  H   UNL     1       0.055  -3.467  -9.731  0.00  0.00    +0.255 HD
ATOM     11  H   UNL     1       0.655  -3.446  -8.168  0.00  0.00    +0.255 HD
ATOM     12  N   UNL     1      -0.811  -1.181  -9.727  0.00  0.00    -0.289 N 
ATOM     13  H   UNL     1      -0.954  -1.737 -10.560  0.00  0.00    +0.255 HD
ATOM     14  H   UNL     1      -0.709  -0.194  -9.920  0.00  0.00    +0.255 HD
ENDBRANCH   6   7
BRANCH   1  15
ATOM     15  N   UNL     1      -0.251   1.716  -5.644  0.00  0.00    -0.141 NA
ATOM     16  H   UNL     1      -0.242   1.744  -4.614  0.00  0.00    +0.168 HD
BRANCH  15  17
ATOM     17  O   UNL     1      -1.654   1.338  -5.923  0.00  0.00    -0.369 OA
BRANCH  17  19
ATOM     18  C   UNL     1      -3.690   0.436  -5.144  0.00  0.00    +0.138 C 
ATOM     19  C   UNL     1      -2.252   0.722  -4.843  0.00  0.00    +0.323 C 
ATOM     20  O   UNL     1      -1.697   0.476  -3.778  0.00  0.00    -0.249 OA
ENDBRANCH  17  19
ENDBRANCH  15  17
ENDBRANCH   1  15
BRANCH   4  21
ATOM     21  C   UNL     1       3.957   1.623  -8.647  0.00  0.00    +0.372 C 
ATOM     22  O   UNL     1       3.866   1.815  -9.850  0.00  0.00    -0.242 OA
BRANCH  21  23
ATOM     23  O   UNL     1       5.105   1.774  -7.950  0.00  0.00    -0.475 OA
ATOM     24  H   UNL     1       4.948   1.557  -7.008  0.00  0.00    +0.296 HD
ENDBRANCH  21  23
ENDBRANCH   4  21
BRANCH   2  25
ATOM     25  C   UNL     1       2.379  -0.560  -4.658  0.00  0.00    +0.187 C 
BRANCH  25  26
ATOM     26  O   UNL     1       2.850  -1.631  -5.489  0.00  0.00    -0.385 OA
ATOM     27  H   UNL     1       2.280  -1.657  -6.286  0.00  0.00    +0.210 HD
ENDBRANCH  25  26
BRANCH  25  28
ATOM     28  C   UNL     1       3.396  -0.299  -3.529  0.00  0.00    +0.172 C 
BRANCH  28  29
ATOM     29  O   UNL     1       3.054   0.883  -2.788  0.00  0.00    -0.387 OA
ATOM     30  H   UNL     1       3.485   0.783  -1.913  0.00  0.00    +0.210 HD
ENDBRANCH  28  29
BRANCH  28  31
ATOM     31  C   UNL     1       3.427  -1.470  -2.531  0.00  0.00    +0.189 C 
BRANCH  31  32
ATOM     32  O   UNL     1       4.319  -1.142  -1.459  0.00  0.00    -0.392 OA
ATOM     33  H   UNL     1       5.219  -1.124  -1.831  0.00  0.00    +0.210 HD
ENDBRANCH  31  32
ENDBRANCH  28  31
ENDBRANCH  25  28
ENDBRANCH   2  25
TORSDOF 12
