REMARK  Name = 
REMARK  17 active torsions:
REMARK  status: ('A' for Active; 'I' for Inactive)
REMARK    1  A    between atoms: C_1  and  C_2
REMARK    2  A    between atoms: C_2  and  C_3
REMARK    3  A    between atoms: C_2  and  C_4
REMARK    4  A    between atoms: C_2  and  N_5
REMARK    5  A    between atoms: C_6  and  C_8
REMARK    6  A    between atoms: N_17  and  C_18
REMARK    7  A    between atoms: C_18  and  C_19
REMARK    8  A    between atoms: C_19  and  C_21
REMARK    9  A    between atoms: C_19  and  O_51
REMARK   10  A    between atoms: C_21  and  C_23
REMARK   11  A    between atoms: C_21  and  N_30
REMARK   12  A    between atoms: C_23  and  C_24
REMARK   13  A    between atoms: C_31  and  C_33
REMARK   14  A    between atoms: C_33  and  C_34
REMARK   15  A    between atoms: C_33  and  N_38
REMARK   16  A    between atoms: C_34  and  C_35
REMARK   17  A    between atoms: C_39  and  C_41
REMARK                            x       y       z     vdW  Elec       q    Type
REMARK                         _______ _______ _______ _____ _____    ______ ____
ROOT
ATOM      1  C   UNL     1       5.304   5.087  -1.029  0.00  0.00    +0.107 C 
ENDROOT
BRANCH   1   2
ATOM      2  N   UNL     1       4.220   4.253  -0.452  0.00  0.00    -0.308 N 
ATOM      3  H   UNL     1       3.339   4.731  -0.284  0.00  0.00    +0.149 HD
ATOM      4  C   UNL     1       4.121   2.892  -0.674  0.00  0.00    +0.234 C 
ATOM      5  O   UNL     1       4.907   2.295  -1.411  0.00  0.00    -0.274 OA
BRANCH   4   6
ATOM      6  C   UNL     1       2.899   2.161  -0.040  0.00  0.00    +0.168 C 
BRANCH   6   7
ATOM      7  N   UNL     1       1.873   1.950  -1.067  0.00  0.00    -0.298 N 
ATOM      8  H   UNL     1       1.944   1.133  -1.674  0.00  0.00    +0.150 HD
ATOM      9  C   UNL     1       0.972   2.927  -1.431  0.00  0.00    +0.263 C 
ATOM     10  O   UNL     1       0.883   3.982  -0.815  0.00  0.00    -0.269 OA
BRANCH   9  11
ATOM     11  C   UNL     1       0.151   2.705  -2.665  0.00  0.00    +0.126 A 
ATOM     12  C   UNL     1      -0.633   3.777  -3.075  0.00  0.00    +0.033 A 
ATOM     13  C   UNL     1      -1.163   3.753  -4.352  0.00  0.00    +0.012 A 
ATOM     14  C   UNL     1      -0.922   2.654  -5.174  0.00  0.00    +0.000 A 
ATOM     15  C   UNL     1      -0.223   1.545  -4.637  0.00  0.00    +0.072 A 
ATOM     16  C   UNL     1      -0.086   0.434  -5.468  0.00  0.00    +0.028 A 
ATOM     17  C   UNL     1      -0.522   0.442  -6.802  0.00  0.00    +0.002 A 
ATOM     18  C   UNL     1      -1.122   1.577  -7.334  0.00  0.00    +0.001 A 
ATOM     19  C   UNL     1      -1.345   2.674  -6.512  0.00  0.00    +0.010 A 
ATOM     20  N   UNL     1       0.327   1.569  -3.397  0.00  0.00    -0.242 NA
ENDBRANCH   9  11
ENDBRANCH   6   7
BRANCH   6  21
ATOM     21  C   UNL     1       2.438   2.817   1.270  0.00  0.00    +0.127 C 
BRANCH  21  22
ATOM     22  C   UNL     1       1.331   2.044   1.940  0.00  0.00    +0.213 C 
ATOM     23  N   UNL     1       0.462   2.809   2.669  0.00  0.00    -0.329 N 
ATOM     24  H   UNL     1      -0.340   2.332   3.057  0.00  0.00    +0.145 HD
ATOM     25  H   UNL     1       0.374   3.803   2.498  0.00  0.00    +0.145 HD
ATOM     26  O   UNL     1       1.232   0.825   1.922  0.00  0.00    -0.276 OA
ENDBRANCH  21  22
ENDBRANCH   6  21
ENDBRANCH   4   6
ENDBRANCH   1   2
BRANCH   1  27
ATOM     27  C   UNL     1       6.737   4.632  -0.540  0.00  0.00    +0.149 C 
BRANCH  27  28
ATOM     28  O   UNL     1       6.939   4.963   0.838  0.00  0.00    -0.389 OA
ATOM     29  H   UNL     1       7.838   4.649   1.051  0.00  0.00    +0.210 HD
ENDBRANCH  27  28
BRANCH  27  30
ATOM     30  C   UNL     1       7.883   5.269  -1.390  0.00  0.00    +0.118 C 
BRANCH  30  32
ATOM     31  C   UNL     1      10.161   5.466  -2.254  0.00  0.00    +0.143 C 
ATOM     32  N   UNL     1       9.289   4.703  -1.273  0.00  0.00    -0.289 NA
ATOM     33  C   UNL     1       9.289   3.255  -1.575  0.00  0.00    +0.089 C 
ATOM     34  C   UNL     1       8.951   2.905  -3.032  0.00  0.00    +0.006 C 
ATOM     35  C   UNL     1       9.900   3.657  -3.981  0.00  0.00    -0.005 C 
ATOM     36  C   UNL     1       9.639   3.303  -5.442  0.00  0.00    +0.004 C 
ATOM     37  C   UNL     1       9.773   1.795  -5.638  0.00  0.00    +0.000 C 
ATOM     38  C   UNL     1       8.816   1.034  -4.725  0.00  0.00    +0.000 C 
ATOM     39  C   UNL     1       9.035   1.391  -3.257  0.00  0.00    +0.005 C 
ATOM     40  C   UNL     1       9.809   5.163  -3.730  0.00  0.00    +0.032 C 
BRANCH  31  43
ATOM     41  N   UNL     1      12.275   4.311  -1.413  0.00  0.00    -0.309 N 
ATOM     42  H   UNL     1      11.735   4.009  -0.611  0.00  0.00    +0.149 HD
ATOM     43  C   UNL     1      11.712   5.312  -2.168  0.00  0.00    +0.231 C 
ATOM     44  O   UNL     1      12.411   6.039  -2.882  0.00  0.00    -0.274 OA
BRANCH  41  46
ATOM     45  C   UNL     1      14.617   5.144  -1.150  0.00  0.00    +0.031 C 
ATOM     46  C   UNL     1      13.712   3.946  -1.488  0.00  0.00    +0.026 C 
ATOM     47  C   UNL     1      14.011   2.827  -0.472  0.00  0.00    +0.031 C 
ATOM     48  C   UNL     1      14.079   3.403  -2.890  0.00  0.00    +0.031 C 
ENDBRANCH  41  46
ENDBRANCH  31  43
ENDBRANCH  30  32
ENDBRANCH  27  30
ENDBRANCH   1  27
BRANCH   1  49
ATOM     49  C   UNL     1       5.052   6.587  -0.712  0.00  0.00    +0.060 C 
BRANCH  49  50
ATOM     50  C   UNL     1       3.800   7.248  -1.268  0.00  0.00    -0.046 A 
ATOM     51  C   UNL     1       3.250   6.926  -2.516  0.00  0.00    +0.004 A 
ATOM     52  C   UNL     1       2.152   7.636  -3.019  0.00  0.00    +0.000 A 
ATOM     53  C   UNL     1       1.594   8.683  -2.288  0.00  0.00    +0.000 A 
ATOM     54  C   UNL     1       2.132   9.021  -1.051  0.00  0.00    +0.000 A 
ATOM     55  C   UNL     1       3.228   8.314  -0.549  0.00  0.00    +0.004 A 
ENDBRANCH  49  50
ENDBRANCH   1  49
TORSDOF 14
