REMARK  Name = 
REMARK  17 active torsions:
REMARK  status: ('A' for Active; 'I' for Inactive)
REMARK    1  A    between atoms: C_1  and  C_2
REMARK    2  A    between atoms: C_2  and  C_3
REMARK    3  A    between atoms: C_2  and  C_4
REMARK    4  A    between atoms: C_2  and  N_5
REMARK    5  A    between atoms: C_6  and  C_8
REMARK    6  A    between atoms: N_17  and  C_18
REMARK    7  A    between atoms: C_18  and  C_19
REMARK    8  A    between atoms: C_19  and  C_21
REMARK    9  A    between atoms: C_19  and  O_51
REMARK   10  A    between atoms: C_21  and  C_23
REMARK   11  A    between atoms: C_21  and  N_30
REMARK   12  A    between atoms: C_23  and  C_24
REMARK   13  A    between atoms: C_31  and  C_33
REMARK   14  A    between atoms: C_33  and  C_34
REMARK   15  A    between atoms: C_33  and  N_38
REMARK   16  A    between atoms: C_34  and  C_35
REMARK   17  A    between atoms: C_39  and  C_41
REMARK                            x       y       z     vdW  Elec       q    Type
REMARK                         _______ _______ _______ _____ _____    ______ ____
ROOT
ATOM      1  C   UNL     1       5.348   5.168  -2.312  0.00  0.00    +0.107 C 
ENDROOT
BRANCH   1   2
ATOM      2  N   UNL     1       4.362   4.484  -1.421  0.00  0.00    -0.308 N 
ATOM      3  H   UNL     1       3.515   5.013  -1.217  0.00  0.00    +0.149 HD
ATOM      4  C   UNL     1       4.216   3.124  -1.294  0.00  0.00    +0.234 C 
ATOM      5  O   UNL     1       4.883   2.325  -1.950  0.00  0.00    -0.274 OA
BRANCH   4   6
ATOM      6  C   UNL     1       3.083   2.659  -0.345  0.00  0.00    +0.168 C 
BRANCH   6   7
ATOM      7  N   UNL     1       1.941   2.251  -1.199  0.00  0.00    -0.298 N 
ATOM      8  H   UNL     1       2.023   1.391  -1.736  0.00  0.00    +0.150 HD
ATOM      9  C   UNL     1       0.978   3.141  -1.639  0.00  0.00    +0.263 C 
ATOM     10  O   UNL     1       0.950   4.314  -1.277  0.00  0.00    -0.269 OA
BRANCH   9  11
ATOM     11  C   UNL     1      -0.050   2.663  -2.619  0.00  0.00    +0.126 A 
ATOM     12  C   UNL     1      -1.031   3.573  -2.996  0.00  0.00    +0.033 A 
ATOM     13  C   UNL     1      -1.934   3.210  -3.979  0.00  0.00    +0.012 A 
ATOM     14  C   UNL     1      -1.833   1.949  -4.563  0.00  0.00    +0.000 A 
ATOM     15  C   UNL     1      -0.836   1.059  -4.092  0.00  0.00    +0.072 A 
ATOM     16  C   UNL     1      -0.788  -0.199  -4.686  0.00  0.00    +0.028 A 
ATOM     17  C   UNL     1      -1.642  -0.558  -5.740  0.00  0.00    +0.002 A 
ATOM     18  C   UNL     1      -2.588   0.345  -6.211  0.00  0.00    +0.001 A 
ATOM     19  C   UNL     1      -2.696   1.592  -5.611  0.00  0.00    +0.010 A 
ATOM     20  N   UNL     1       0.054   1.404  -3.127  0.00  0.00    -0.242 NA
ENDBRANCH   9  11
ENDBRANCH   6   7
BRANCH   6  21
ATOM     21  C   UNL     1       2.705   3.624   0.796  0.00  0.00    +0.127 C 
BRANCH  21  22
ATOM     22  C   UNL     1       3.740   4.027   1.824  0.00  0.00    +0.213 C 
ATOM     23  N   UNL     1       5.045   4.126   1.471  0.00  0.00    -0.329 N 
ATOM     24  H   UNL     1       5.619   4.586   2.169  0.00  0.00    +0.145 HD
ATOM     25  H   UNL     1       5.335   4.346   0.520  0.00  0.00    +0.145 HD
ATOM     26  O   UNL     1       3.409   4.373   2.958  0.00  0.00    -0.276 OA
ENDBRANCH  21  22
ENDBRANCH   6  21
ENDBRANCH   4   6
ENDBRANCH   1   2
BRANCH   1  27
ATOM     27  C   UNL     1       6.836   4.798  -1.906  0.00  0.00    +0.149 C 
BRANCH  27  28
ATOM     28  O   UNL     1       7.074   5.200  -0.546  0.00  0.00    -0.389 OA
ATOM     29  H   UNL     1       8.020   5.000  -0.396  0.00  0.00    +0.210 HD
ENDBRANCH  27  28
BRANCH  27  30
ATOM     30  C   UNL     1       8.050   5.306  -2.797  0.00  0.00    +0.118 C 
BRANCH  30  32
ATOM     31  C   UNL     1      10.560   5.445  -3.179  0.00  0.00    +0.143 C 
ATOM     32  N   UNL     1       9.444   4.818  -2.345  0.00  0.00    -0.289 NA
ATOM     33  C   UNL     1       9.514   3.342  -2.418  0.00  0.00    +0.089 C 
ATOM     34  C   UNL     1       9.676   2.710  -3.812  0.00  0.00    +0.006 C 
ATOM     35  C   UNL     1      10.865   3.340  -4.545  0.00  0.00    -0.005 C 
ATOM     36  C   UNL     1      11.092   2.666  -5.903  0.00  0.00    +0.004 C 
ATOM     37  C   UNL     1      11.359   1.172  -5.696  0.00  0.00    +0.000 C 
ATOM     38  C   UNL     1      10.203   0.494  -4.968  0.00  0.00    +0.000 C 
ATOM     39  C   UNL     1       9.868   1.194  -3.655  0.00  0.00    +0.005 C 
ATOM     40  C   UNL     1      10.638   4.855  -4.618  0.00  0.00    +0.032 C 
BRANCH  31  43
ATOM     41  N   UNL     1      12.435   4.835  -1.432  0.00  0.00    -0.309 N 
ATOM     42  H   UNL     1      11.688   4.468  -0.860  0.00  0.00    +0.149 HD
ATOM     43  C   UNL     1      12.072   5.461  -2.606  0.00  0.00    +0.231 C 
ATOM     44  O   UNL     1      12.938   6.027  -3.287  0.00  0.00    -0.274 OA
BRANCH  41  46
ATOM     45  C   UNL     1      14.608   5.975  -0.649  0.00  0.00    +0.031 C 
ATOM     46  C   UNL     1      13.865   4.645  -0.944  0.00  0.00    +0.026 C 
ATOM     47  C   UNL     1      13.853   3.864   0.390  0.00  0.00    +0.031 C 
ATOM     48  C   UNL     1      14.717   3.841  -1.937  0.00  0.00    +0.031 C 
ENDBRANCH  41  46
ENDBRANCH  31  43
ENDBRANCH  30  32
ENDBRANCH  27  30
ENDBRANCH   1  27
BRANCH   1  49
ATOM     49  C   UNL     1       5.019   6.683  -2.248  0.00  0.00    +0.060 C 
BRANCH  49  50
ATOM     50  C   UNL     1       3.589   7.090  -2.629  0.00  0.00    -0.046 A 
ATOM     51  C   UNL     1       2.830   6.418  -3.600  0.00  0.00    +0.004 A 
ATOM     52  C   UNL     1       1.536   6.846  -3.923  0.00  0.00    +0.000 A 
ATOM     53  C   UNL     1       0.979   7.953  -3.289  0.00  0.00    +0.000 A 
ATOM     54  C   UNL     1       1.714   8.626  -2.324  0.00  0.00    +0.000 A 
ATOM     55  C   UNL     1       3.007   8.204  -1.996  0.00  0.00    +0.004 A 
ENDBRANCH  49  50
ENDBRANCH   1  49
TORSDOF 14
