REMARK  Name = 
REMARK  12 active torsions:
REMARK  status: ('A' for Active; 'I' for Inactive)
REMARK    1  A    between atoms: C_1  and  C_2
REMARK    2  A    between atoms: C_2  and  C_3
REMARK    3  A    between atoms: C_3  and  C_4
REMARK    4  A    between atoms: C_3  and  C_6
REMARK    5  A    between atoms: C_4  and  C_5
REMARK    6  A    between atoms: C_6  and  C_7
REMARK    7  A    between atoms: C_6  and  N_22
REMARK    8  A    between atoms: C_9  and  N_18
REMARK    9  A    between atoms: C_11  and  C_15
REMARK   10  A    between atoms: C_13  and  O_14
REMARK   11  A    between atoms: C_15  and  O_17
REMARK   12  A    between atoms: C_23  and  C_25
REMARK                            x       y       z     vdW  Elec       q    Type
REMARK                         _______ _______ _______ _____ _____    ______ ____
ROOT
ATOM      1  C   UNL     1       4.860  -1.535  -0.760  0.00  0.00    +0.079 C 
ATOM      2  C   UNL     1       6.227  -2.267  -0.758  0.00  0.00    +0.137 C 
ATOM      3  C   UNL     1       5.909  -3.766  -0.573  0.00  0.00    +0.130 C 
ATOM      4  C   UNL     1       4.382  -3.858  -0.718  0.00  0.00    +0.062 C 
ATOM      5  C   UNL     1       3.961  -2.592  -1.457  0.00  0.00    +0.196 C 
ENDROOT
BRANCH   5   6
ATOM      6  N   UNL     1       4.283  -2.715  -2.879  0.00  0.00    -0.110 NA
ATOM      7  C   UNL     1       3.411  -3.058  -3.750  0.00  0.00    +0.377 C 
ATOM      8  N   UNL     1       3.792  -3.203  -5.037  0.00  0.00    -0.289 N 
ATOM      9  H   UNL     1       3.363  -3.991  -5.511  0.00  0.00    +0.255 HD
ATOM     10  H   UNL     1       4.803  -3.256  -5.105  0.00  0.00    +0.255 HD
ATOM     11  N   UNL     1       2.082  -3.299  -3.643  0.00  0.00    -0.289 N 
ATOM     12  H   UNL     1       1.567  -3.167  -4.510  0.00  0.00    +0.255 HD
ATOM     13  H   UNL     1       1.610  -2.855  -2.874  0.00  0.00    +0.255 HD
ENDBRANCH   5   6
BRANCH   2  14
ATOM     14  O   UNL     1       7.154  -1.787   0.209  0.00  0.00    -0.391 OA
ATOM     15  H   UNL     1       6.691  -1.199   0.835  0.00  0.00    +0.210 HD
ENDBRANCH   2  14
BRANCH   3  16
ATOM     16  C   UNL     1       6.362  -4.434   0.713  0.00  0.00    +0.310 C 
ATOM     17  O   UNL     1       5.751  -5.346   1.252  0.00  0.00    -0.251 OA
BRANCH  16  18
ATOM     18  O   UNL     1       7.554  -4.012   1.186  0.00  0.00    -0.480 OA
ATOM     19  H   UNL     1       7.859  -3.195   0.718  0.00  0.00    +0.295 HD
ENDBRANCH  16  18
ENDBRANCH   3  16
BRANCH   1  20
ATOM     20  C   UNL     1       4.934  -0.074  -1.300  0.00  0.00    +0.085 C 
BRANCH  20  21
ATOM     21  N   UNL     1       5.451  -0.033  -2.662  0.00  0.00    -0.312 N 
ATOM     22  H   UNL     1       5.049  -0.693  -3.324  0.00  0.00    +0.149 HD
ATOM     23  C   UNL     1       6.529   0.741  -3.031  0.00  0.00    +0.210 C 
ATOM     24  C   UNL     1       6.898   0.606  -4.490  0.00  0.00    +0.109 C 
ATOM     25  O   UNL     1       7.164   1.456  -2.268  0.00  0.00    -0.276 OA
ENDBRANCH  20  21
BRANCH  20  26
ATOM     26  C   UNL     1       3.617   0.790  -1.199  0.00  0.00    +0.009 C 
BRANCH  26  28
ATOM     27  C   UNL     1       1.183   0.698  -2.293  0.00  0.00    +0.004 C 
ATOM     28  C   UNL     1       2.435   0.001  -1.803  0.00  0.00    +0.002 C 
ENDBRANCH  26  28
BRANCH  26  29
ATOM     29  C   UNL     1       3.307   1.245   0.253  0.00  0.00    +0.002 C 
ATOM     30  C   UNL     1       4.404   2.064   0.939  0.00  0.00    +0.004 C 
ENDBRANCH  26  29
ENDBRANCH  20  26
ENDBRANCH   1  20
TORSDOF 9
