REMARK  Name = 
REMARK  16 active torsions:
REMARK  status: ('A' for Active; 'I' for Inactive)
REMARK    1  A    between atoms: C_1  and  C_2
REMARK    2  A    between atoms: C_2  and  C_3
REMARK    3  A    between atoms: C_2  and  C_4
REMARK    4  A    between atoms: C_4  and  N_5
REMARK    5  A    between atoms: N_5  and  C_6
REMARK    6  A    between atoms: N_5  and  S_33
REMARK    7  A    between atoms: C_6  and  C_7
REMARK    8  A    between atoms: C_7  and  C_8
REMARK    9  A    between atoms: C_7  and  O_32
REMARK   10  A    between atoms: C_8  and  C_10
REMARK   11  A    between atoms: C_8  and  N_17
REMARK   12  A    between atoms: C_10  and  C_11
REMARK   13  A    between atoms: C_18  and  O_20
REMARK   14  A    between atoms: O_20  and  C_21
REMARK   15  A    between atoms: S_33  and  C_36
REMARK   16  A    between atoms: C_39  and  N_42
REMARK                            x       y       z     vdW  Elec       q    Type
REMARK                         _______ _______ _______ _____ _____    ______ ____
ROOT
ATOM      1  C   UNL     1      -5.116   0.178   2.555  0.00  0.00    +0.151 C 
ENDROOT
BRANCH   1   2
ATOM      2  O   UNL     1      -4.229   0.491   1.457  0.00  0.00    -0.389 OA
ATOM      3  H   UNL     1      -4.637   0.181   0.638  0.00  0.00    +0.210 HD
ENDBRANCH   1   2
BRANCH   1   4
ATOM      4  C   UNL     1      -6.600   0.085   2.007  0.00  0.00    +0.142 C 
BRANCH   4   5
ATOM      5  N   UNL     1      -7.223   1.372   1.351  0.00  0.00    -0.174 NA
BRANCH   5   6
ATOM      6  S   UNL     1      -7.309   2.654   2.564  0.00  0.00    +0.061 S 
ATOM      7  O   UNL     1      -5.976   3.196   2.688  0.00  0.00    -0.153 OA
ATOM      8  O   UNL     1      -7.981   2.089   3.722  0.00  0.00    -0.153 OA
BRANCH   6   9
ATOM      9  C   UNL     1      -8.350   4.008   1.989  0.00  0.00    +0.106 A 
ATOM     10  C   UNL     1      -7.797   5.298   1.937  0.00  0.00    +0.030 A 
ATOM     11  C   UNL     1      -8.616   6.436   1.781  0.00  0.00    +0.024 A 
ATOM     12  C   UNL     1      -9.997   6.311   1.634  0.00  0.00    +0.025 A 
ATOM     13  C   UNL     1     -10.552   5.026   1.726  0.00  0.00    +0.024 A 
ATOM     14  C   UNL     1      -9.740   3.879   1.894  0.00  0.00    +0.030 A 
BRANCH  12  15
ATOM     15  N   UNL     1     -10.811   7.450   1.667  0.00  0.00    -0.358 N 
ATOM     16  H   UNL     1     -10.361   8.303   1.345  0.00  0.00    +0.142 HD
ATOM     17  H   UNL     1     -11.736   7.330   1.266  0.00  0.00    +0.142 HD
ENDBRANCH  12  15
ENDBRANCH   6   9
ENDBRANCH   5   6
BRANCH   5  18
ATOM     18  C   UNL     1      -6.619   1.850   0.053  0.00  0.00    +0.112 C 
BRANCH  18  20
ATOM     19  C   UNL     1      -6.390  -0.431  -1.358  0.00  0.00    +0.008 C 
ATOM     20  C   UNL     1      -6.789   1.043  -1.269  0.00  0.00    -0.001 C 
ATOM     21  C   UNL     1      -8.140   1.258  -1.971  0.00  0.00    +0.008 C 
ENDBRANCH  18  20
ENDBRANCH   5  18
ENDBRANCH   4   5
ENDBRANCH   1   4
BRANCH   1  22
ATOM     22  C   UNL     1      -4.524  -1.128   3.264  0.00  0.00    +0.110 C 
BRANCH  22  23
ATOM     23  N   UNL     1      -3.047  -1.166   3.151  0.00  0.00    -0.275 N 
ATOM     24  H   UNL     1      -2.570  -0.279   3.058  0.00  0.00    +0.152 HD
ATOM     25  C   UNL     1      -2.293  -2.255   2.793  0.00  0.00    +0.401 C 
ATOM     26  O   UNL     1      -2.713  -3.400   2.671  0.00  0.00    -0.226 OA
BRANCH  25  27
ATOM     27  O   UNL     1      -1.013  -1.872   2.518  0.00  0.00    -0.444 OA
BRANCH  27  28
ATOM     28  C   UNL     1      -0.125  -2.842   1.903  0.00  0.00    +0.212 C 
ATOM     29  C   UNL     1       1.301  -2.298   1.749  0.00  0.00    +0.090 C 
ATOM     30  C   UNL     1       1.502  -0.807   1.922  0.00  0.00    +0.040 C 
ATOM     31  C   UNL     1       2.443  -0.408   0.805  0.00  0.00    +0.163 C 
ATOM     32  O   UNL     1       2.467  -1.456  -0.160  0.00  0.00    -0.351 OA
ATOM     33  C   UNL     1       1.662  -2.537   0.298  0.00  0.00    +0.257 C 
ATOM     34  O   UNL     1       0.437  -2.604  -0.421  0.00  0.00    -0.347 OA
ATOM     35  C   UNL     1      -0.545  -3.157   0.464  0.00  0.00    +0.208 C 
ENDBRANCH  27  28
ENDBRANCH  25  27
ENDBRANCH  22  23
BRANCH  22  36
ATOM     36  C   UNL     1      -4.999  -1.429   4.727  0.00  0.00    +0.060 C 
BRANCH  36  37
ATOM     37  C   UNL     1      -4.450  -0.672   5.934  0.00  0.00    -0.046 A 
ATOM     38  C   UNL     1      -3.334  -1.153   6.649  0.00  0.00    +0.004 A 
ATOM     39  C   UNL     1      -2.895  -0.529   7.829  0.00  0.00    +0.000 A 
ATOM     40  C   UNL     1      -3.562   0.589   8.319  0.00  0.00    +0.000 A 
ATOM     41  C   UNL     1      -4.683   1.065   7.642  0.00  0.00    +0.000 A 
ATOM     42  C   UNL     1      -5.126   0.437   6.466  0.00  0.00    +0.004 A 
ENDBRANCH  36  37
ENDBRANCH  22  36
ENDBRANCH   1  22
TORSDOF 14
