REMARK  Name = 
REMARK  21 active torsions:
REMARK  status: ('A' for Active; 'I' for Inactive)
REMARK    1  A    between atoms: C_1  and  C_2
REMARK    2  A    between atoms: C_2  and  C_3
REMARK    3  A    between atoms: C_2  and  C_4
REMARK    4  A    between atoms: C_9  and  C_12
REMARK    5  A    between atoms: C_18  and  O_21
REMARK    6  A    between atoms: O_21  and  C_22
REMARK    7  A    between atoms: C_23  and  O_25
REMARK    8  A    between atoms: O_25  and  C_26
REMARK    9  A    between atoms: C_29  and  C_49
REMARK   10  A    between atoms: C_33  and  C_35
REMARK   11  A    between atoms: C_35  and  C_36
REMARK   12  A    between atoms: C_35  and  N_40
REMARK   13  A    between atoms: C_36  and  C_37
REMARK   14  A    between atoms: C_36  and  C_38
REMARK   15  A    between atoms: C_36  and  C_39
REMARK   16  A    between atoms: C_41  and  O_43
REMARK   17  A    between atoms: O_43  and  C_44
REMARK   18  A    between atoms: N_51  and  C_52
REMARK   19  A    between atoms: C_52  and  C_57
REMARK   20  A    between atoms: C_54  and  C_55
REMARK   21  A    between atoms: C_57  and  O_59
REMARK                            x       y       z     vdW  Elec       q    Type
REMARK                         _______ _______ _______ _____ _____    ______ ____
ROOT
ATOM      1  C   UNL     1      -0.366  -4.671  -7.811  0.00  0.00    +0.193 C 
ATOM      2  C   UNL     1       0.701  -5.610  -7.164  0.00  0.00    +0.153 C 
ATOM      3  N   UNL     1       1.388  -4.788  -6.144  0.00  0.00    -0.285 N 
ATOM      4  C   UNL     1       2.476  -5.125  -5.376  0.00  0.00    +0.237 C 
ATOM      5  O   UNL     1       2.883  -4.329  -4.520  0.00  0.00    -0.274 OA
ATOM      6  C   UNL     1       0.771  -3.451  -6.087  0.00  0.00    +0.166 C 
ATOM      7  C   UNL     1      -0.627  -3.757  -6.613  0.00  0.00    +0.078 C 
ENDROOT
BRANCH   6   8
ATOM      8  C   UNL     1       0.652  -2.670  -4.748  0.00  0.00    +0.235 C 
ATOM      9  N   UNL     1       1.832  -2.044  -4.376  0.00  0.00    -0.298 N 
ATOM     10  H   UNL     1       2.679  -2.351  -4.850  0.00  0.00    +0.150 HD
ATOM     11  O   UNL     1      -0.381  -2.601  -4.089  0.00  0.00    -0.274 OA
BRANCH   9  12
ATOM     12  C   UNL     1       2.026  -1.399  -3.085  0.00  0.00    +0.138 C 
ATOM     13  C   UNL     1       2.913  -0.144  -3.042  0.00  0.00    +0.048 C 
ATOM     14  C   UNL     1       1.426  -0.023  -2.858  0.00  0.00    +0.048 C 
BRANCH  12  15
ATOM     15  C   UNL     1       2.108  -2.308  -1.857  0.00  0.00    +0.329 C 
ATOM     16  O   UNL     1       2.031  -1.877  -0.715  0.00  0.00    -0.249 OA
BRANCH  15  17
ATOM     17  O   UNL     1       2.342  -3.615  -2.123  0.00  0.00    -0.479 OA
ATOM     18  H   UNL     1       2.431  -3.782  -3.089  0.00  0.00    +0.295 HD
ENDBRANCH  15  17
ENDBRANCH  12  15
BRANCH  13  19
ATOM     19  C   UNL     1       3.470   0.487  -4.248  0.00  0.00    -0.028 C 
ATOM     20  C   UNL     1       4.619   0.178  -4.860  0.00  0.00    +0.004 C 
ENDBRANCH  13  19
ENDBRANCH   9  12
ENDBRANCH   6   8
BRANCH   1  21
ATOM     21  O   UNL     1       0.207  -4.062  -8.984  0.00  0.00    -0.486 OA
BRANCH  21  24
ATOM     22  C   UNL     1       0.322  -1.359 -11.347  0.00  0.00    +0.094 A 
ATOM     23  C   UNL     1       0.589  -2.541 -10.679  0.00  0.00    +0.076 A 
ATOM     24  C   UNL     1      -0.284  -2.979  -9.676  0.00  0.00    +0.132 A 
ATOM     25  C   UNL     1      -1.469  -2.238  -9.454  0.00  0.00    +0.043 A 
ATOM     26  C   UNL     1      -2.571  -2.699  -8.714  0.00  0.00    +0.017 A 
ATOM     27  C   UNL     1      -3.546  -1.833  -8.242  0.00  0.00    +0.047 A 
ATOM     28  C   UNL     1      -3.507  -0.492  -8.590  0.00  0.00    +0.136 A 
ATOM     29  C   UNL     1      -2.581  -0.086  -9.564  0.00  0.00    +0.085 A 
ATOM     30 BR   UNL     1      -2.683   1.697 -10.258  0.00  0.00    -0.044 Br
ATOM     31  C   UNL     1      -1.563  -0.948 -10.024  0.00  0.00    +0.093 A 
ATOM     32  N   UNL     1      -0.689  -0.542 -10.972  0.00  0.00    -0.244 NA
BRANCH  22  39
ATOM     33  C   UNL     1       4.042  -2.833 -14.928  0.00  0.00    +0.221 C 
ATOM     34  N   UNL     1       3.610  -1.524 -14.948  0.00  0.00    -0.264 N 
ATOM     35  H   UNL     1       3.905  -0.887 -15.672  0.00  0.00    +0.157 HD
ATOM     36  C   UNL     1       2.629  -1.092 -14.097  0.00  0.00    +0.165 A 
ATOM     37  S   UNL     1       1.983   0.436 -14.483  0.00  0.00    -0.060 S 
ATOM     38  C   UNL     1       0.866   0.259 -13.189  0.00  0.00    +0.078 A 
ATOM     39  C   UNL     1       1.114  -0.917 -12.506  0.00  0.00    +0.098 A 
ATOM     40  N   UNL     1       2.138  -1.688 -13.042  0.00  0.00    -0.223 NA
ATOM     41  O   UNL     1       3.566  -3.738 -14.249  0.00  0.00    -0.275 OA
BRANCH  33  43
ATOM     42  C   UNL     1       6.468  -2.382 -15.388  0.00  0.00    +0.017 C 
ATOM     43  C   UNL     1       5.208  -3.086 -15.887  0.00  0.00    +0.069 C 
ATOM     44  C   UNL     1       5.466  -4.586 -16.030  0.00  0.00    +0.017 C 
ENDBRANCH  33  43
ENDBRANCH  22  39
BRANCH  28  45
ATOM     45  O   UNL     1      -4.369   0.431  -8.058  0.00  0.00    -0.494 OA
ATOM     46  C   UNL     1      -4.786   0.166  -6.716  0.00  0.00    +0.277 C 
ENDBRANCH  28  45
ENDBRANCH  21  24
ENDBRANCH   1  21
BRANCH   4  47
ATOM     47  C   UNL     1       3.163  -6.507  -5.502  0.00  0.00    +0.168 C 
BRANCH  47  48
ATOM     48  N   UNL     1       3.025  -7.201  -4.211  0.00  0.00    -0.269 N 
ATOM     49  H   UNL     1       3.625  -6.968  -3.435  0.00  0.00    +0.153 HD
ATOM     50  C   UNL     1       1.954  -7.998  -3.914  0.00  0.00    +0.401 C 
ATOM     51  O   UNL     1       1.042  -8.237  -4.689  0.00  0.00    -0.226 OA
BRANCH  50  52
ATOM     52  O   UNL     1       2.069  -8.493  -2.651  0.00  0.00    -0.447 OA
BRANCH  52  53
ATOM     53  C   UNL     1       1.039  -9.418  -2.255  0.00  0.00    +0.178 C 
ATOM     54  C   UNL     1       1.000  -9.609  -0.730  0.00  0.00    +0.045 C 
ATOM     55  C   UNL     1       0.797 -11.106  -0.477  0.00  0.00    +0.004 C 
ATOM     56  C   UNL     1       0.557 -11.733  -1.841  0.00  0.00    +0.004 C 
ATOM     57  C   UNL     1       1.302 -10.821  -2.800  0.00  0.00    +0.045 C 
ENDBRANCH  52  53
ENDBRANCH  50  52
ENDBRANCH  47  48
BRANCH  47  58
ATOM     58  C   UNL     1       4.676  -6.352  -5.907  0.00  0.00    -0.011 C 
ATOM     59  C   UNL     1       4.788  -5.671  -7.286  0.00  0.00    +0.013 C 
ATOM     60  C   UNL     1       5.320  -7.751  -6.013  0.00  0.00    +0.013 C 
ATOM     61  C   UNL     1       5.514  -5.525  -4.903  0.00  0.00    +0.013 C 
ENDBRANCH  47  58
ENDBRANCH   4  47
TORSDOF 15
