REMARK  Name = 
REMARK  11 active torsions:
REMARK  status: ('A' for Active; 'I' for Inactive)
REMARK    1  A    between atoms: C_1  and  C_2
REMARK    2  A    between atoms: N_4  and  C_5
REMARK    3  A    between atoms: C_6  and  N_21
REMARK    4  A    between atoms: C_9  and  C_18
REMARK    5  A    between atoms: C_11  and  C_12
REMARK    6  A    between atoms: C_12  and  C_13
REMARK    7  A    between atoms: C_12  and  O_17
REMARK    8  A    between atoms: C_13  and  C_14
REMARK    9  A    between atoms: C_13  and  O_16
REMARK   10  A    between atoms: C_14  and  O_15
REMARK   11  A    between atoms: C_18  and  O_20
REMARK                            x       y       z     vdW  Elec       q    Type
REMARK                         _______ _______ _______ _____ _____    ______ ____
ROOT
ATOM      1  C   UNL     1       4.577  -0.079  -1.068  0.00  0.00    +0.160 C 
ATOM      2  C   UNL     1       5.305   1.261  -0.753  0.00  0.00    +0.229 C 
ATOM      3  O   UNL     1       6.073   1.886  -1.781  0.00  0.00    -0.477 OA
ATOM      4  C   UNL     1       6.265   1.276  -2.984  0.00  0.00    +0.204 C 
ATOM      5  C   UNL     1       5.759   0.086  -3.326  0.00  0.00    +0.071 C 
ATOM      6  C   UNL     1       4.947  -0.761  -2.418  0.00  0.00    +0.238 C 
ENDROOT
BRANCH   6   7
ATOM      7  N   UNL     1       3.729  -1.150  -3.137  0.00  0.00    -0.104 NA
ATOM      8  C   UNL     1       3.179  -2.278  -2.895  0.00  0.00    +0.377 C 
ATOM      9  N   UNL     1       1.988  -2.578  -3.456  0.00  0.00    -0.289 N 
ATOM     10  H   UNL     1       1.900  -3.534  -3.773  0.00  0.00    +0.255 HD
ATOM     11  H   UNL     1       1.738  -1.913  -4.180  0.00  0.00    +0.255 HD
ATOM     12  N   UNL     1       3.566  -3.297  -2.096  0.00  0.00    -0.289 N 
ATOM     13  H   UNL     1       2.790  -3.741  -1.617  0.00  0.00    +0.255 HD
ATOM     14  H   UNL     1       4.341  -3.127  -1.472  0.00  0.00    +0.255 HD
ENDBRANCH   6   7
BRANCH   1  17
ATOM     15  C   UNL     1       2.758  -1.247   1.067  0.00  0.00    +0.109 C 
ATOM     16  C   UNL     1       2.234  -0.382  -0.044  0.00  0.00    +0.210 C 
ATOM     17  N   UNL     1       3.117   0.142  -0.941  0.00  0.00    -0.305 N 
ATOM     18  H   UNL     1       2.663   0.567  -1.744  0.00  0.00    +0.149 HD
ATOM     19  O   UNL     1       1.037  -0.118  -0.141  0.00  0.00    -0.276 OA
ENDBRANCH   1  17
BRANCH   4  20
ATOM     20  C   UNL     1       7.152   1.987  -3.961  0.00  0.00    +0.372 C 
ATOM     21  O   UNL     1       7.490   1.567  -5.053  0.00  0.00    -0.242 OA
BRANCH  20  22
ATOM     22  O   UNL     1       7.585   3.160  -3.437  0.00  0.00    -0.475 OA
ATOM     23  H   UNL     1       7.183   3.318  -2.555  0.00  0.00    +0.296 HD
ENDBRANCH  20  22
ENDBRANCH   4  20
BRANCH   2  24
ATOM     24  C   UNL     1       6.180   1.158   0.529  0.00  0.00    +0.187 C 
BRANCH  24  25
ATOM     25  O   UNL     1       5.475   0.488   1.575  0.00  0.00    -0.385 OA
ATOM     26  H   UNL     1       4.727   1.054   1.848  0.00  0.00    +0.210 HD
ENDBRANCH  24  25
BRANCH  24  27
ATOM     27  C   UNL     1       6.652   2.534   1.052  0.00  0.00    +0.172 C 
BRANCH  27  28
ATOM     28  O   UNL     1       7.485   3.218   0.106  0.00  0.00    -0.387 OA
ATOM     29  H   UNL     1       8.269   2.662  -0.059  0.00  0.00    +0.210 HD
ENDBRANCH  27  28
BRANCH  27  30
ATOM     30  C   UNL     1       7.420   2.406   2.379  0.00  0.00    +0.189 C 
BRANCH  30  31
ATOM     31  O   UNL     1       7.769   3.698   2.864  0.00  0.00    -0.392 OA
ATOM     32  H   UNL     1       7.994   4.242   2.083  0.00  0.00    +0.210 HD
ENDBRANCH  30  31
ENDBRANCH  27  30
ENDBRANCH  24  27
ENDBRANCH   2  24
TORSDOF 10
