REMARK  Name = 
REMARK  12 active torsions:
REMARK  status: ('A' for Active; 'I' for Inactive)
REMARK    1  A    between atoms: C_1  and  C_2
REMARK    2  A    between atoms: C_2  and  C_3
REMARK    3  A    between atoms: C_2  and  C_4
REMARK    4  A    between atoms: C_2  and  C_5
REMARK    5  A    between atoms: C_12  and  C_13
REMARK    6  A    between atoms: N_15  and  C_16
REMARK    7  A    between atoms: C_16  and  C_22
REMARK    8  A    between atoms: C_18  and  C_20
REMARK    9  A    between atoms: N_24  and  S_25
REMARK   10  A    between atoms: S_25  and  C_28
REMARK   11  A    between atoms: C_38  and  O_40
REMARK   12  A    between atoms: O_40  and  C_41
REMARK                            x       y       z     vdW  Elec       q    Type
REMARK                         _______ _______ _______ _____ _____    ______ ____
ROOT
ATOM      1  C   UNL     1      -3.504  -9.073  -3.433  0.00  0.00    +0.168 C 
ATOM      2  N   UNL     1      -4.486  -9.649  -4.317  0.00  0.00    -0.269 N 
ATOM      3  H   UNL     1      -5.329  -9.147  -4.561  0.00  0.00    +0.153 HD
ATOM      4  C   UNL     1      -4.363 -10.957  -4.678  0.00  0.00    +0.401 C 
ATOM      5  O   UNL     1      -3.420 -11.684  -4.400  0.00  0.00    -0.226 OA
ATOM      6  O   UNL     1      -5.287 -11.271  -5.612  0.00  0.00    -0.447 OA
ATOM      7  C   UNL     1      -4.591 -11.416  -6.855  0.00  0.00    +0.182 C 
ATOM      8  C   UNL     1      -5.084 -10.781  -8.105  0.00  0.00    +0.033 C 
ATOM      9  C   UNL     1      -4.563 -11.124  -9.459  0.00  0.00    +0.007 C 
ATOM     10  C   UNL     1      -4.322  -9.810 -10.213  0.00  0.00    +0.000 C 
ATOM     11  C   UNL     1      -2.846  -9.436 -10.270  0.00  0.00    +0.000 C 
ATOM     12  C   UNL     1      -2.623  -7.996 -10.722  0.00  0.00    +0.006 C 
ATOM     13  C   UNL     1      -2.928  -6.963  -9.611  0.00  0.00    +0.061 C 
ATOM     14  C   UNL     1      -2.264  -5.628  -9.845  0.00  0.00    +0.103 A 
ATOM     15  C   UNL     1      -1.809  -4.786  -8.818  0.00  0.00    +0.238 A 
ATOM     16  N   UNL     1      -1.100  -3.654  -9.097  0.00  0.00    -0.210 NA
ATOM     17  C   UNL     1      -0.780  -3.415 -10.405  0.00  0.00    +0.096 A 
ATOM     18  C   UNL     1      -0.012  -2.313 -10.832  0.00  0.00    +0.075 A 
ATOM     19  C   UNL     1       0.386  -2.182 -12.168  0.00  0.00    +0.122 A 
ATOM     20  C   UNL     1       0.060  -3.179 -13.082  0.00  0.00    +0.048 A 
ATOM     21  C   UNL     1      -0.752  -4.227 -12.699  0.00  0.00    +0.033 A 
ATOM     22  C   UNL     1      -1.202  -4.327 -11.400  0.00  0.00    +0.090 A 
ATOM     23  O   UNL     1      -1.389  -5.394  -7.685  0.00  0.00    -0.470 OA
ATOM     24  C   UNL     1      -1.904  -5.453  -6.374  0.00  0.00    +0.195 C 
ATOM     25  C   UNL     1      -1.514  -4.844  -5.009  0.00  0.00    +0.078 C 
ATOM     26  C   UNL     1      -1.369  -6.216  -4.253  0.00  0.00    +0.166 C 
ATOM     27  N   UNL     1      -2.478  -7.092  -4.705  0.00  0.00    -0.285 N 
ATOM     28  C   UNL     1      -3.018  -6.427  -5.930  0.00  0.00    +0.153 C 
ATOM     29  N   UNL     1      -1.998  -5.357 -11.142  0.00  0.00    -0.245 NA
ATOM     30  C   UNL     1      -4.100 -10.038  -7.266  0.00  0.00    +0.052 C 
ATOM     31  C   UNL     1      -3.408  -7.486  -3.728  0.00  0.00    +0.237 C 
ATOM     32  O   UNL     1      -4.249  -6.693  -3.297  0.00  0.00    -0.274 OA
ENDROOT
BRANCH   1  34
ATOM     33  C   UNL     1      -5.213  -8.996  -1.560  0.00  0.00    +0.013 C 
ATOM     34  C   UNL     1      -3.845  -9.581  -1.988  0.00  0.00    -0.011 C 
ATOM     35  C   UNL     1      -4.065 -11.111  -1.756  0.00  0.00    +0.013 C 
ATOM     36  C   UNL     1      -2.579  -9.394  -1.161  0.00  0.00    +0.013 C 
ENDBRANCH   1  34
BRANCH  26  37
ATOM     37  C   UNL     1      -0.793  -6.331  -2.859  0.00  0.00    +0.234 C 
ATOM     38  N   UNL     1      -0.256  -5.201  -2.294  0.00  0.00    -0.299 N 
ATOM     39  H   UNL     1      -0.259  -4.305  -2.761  0.00  0.00    +0.150 HD
ATOM     40  O   UNL     1      -0.662  -7.442  -2.341  0.00  0.00    -0.274 OA
BRANCH  38  41
ATOM     41  C   UNL     1       0.511  -5.353  -1.077  0.00  0.00    +0.119 C 
ATOM     42  C   UNL     1       1.974  -5.715  -1.344  0.00  0.00    +0.046 C 
ATOM     43  C   UNL     1       1.656  -4.417  -0.697  0.00  0.00    +0.046 C 
BRANCH  41  44
ATOM     44  C   UNL     1      -0.342  -5.688   0.133  0.00  0.00    +0.256 C 
ATOM     45  N   UNL     1      -0.594  -7.024   0.416  0.00  0.00    -0.188 N 
ATOM     46  H   UNL     1      -0.289  -7.755  -0.218  0.00  0.00    +0.176 HD
ATOM     47  O   UNL     1      -0.864  -4.759   0.729  0.00  0.00    -0.272 OA
BRANCH  45  48
ATOM     48  S   UNL     1      -1.569  -7.449   1.684  0.00  0.00    +0.048 S 
ATOM     49  O   UNL     1      -1.040  -6.831   2.875  0.00  0.00    -0.155 OA
ATOM     50  O   UNL     1      -1.703  -8.894   1.656  0.00  0.00    -0.155 OA
BRANCH  48  51
ATOM     51  C   UNL     1      -3.238  -6.700   1.481  0.00  0.00    +0.151 C 
ATOM     52  C   UNL     1      -4.312  -7.695   1.118  0.00  0.00    +0.030 C 
ATOM     53  C   UNL     1      -3.855  -6.678   0.104  0.00  0.00    +0.030 C 
ENDBRANCH  48  51
ENDBRANCH  45  48
ENDBRANCH  41  44
BRANCH  42  54
ATOM     54  C   UNL     1       2.594  -6.850  -0.672  0.00  0.00    -0.028 C 
ATOM     55  C   UNL     1       2.553  -8.102  -1.151  0.00  0.00    +0.004 C 
ENDBRANCH  42  54
ENDBRANCH  38  41
ENDBRANCH  26  37
BRANCH  19  56
ATOM     56  O   UNL     1       1.082  -1.173 -12.762  0.00  0.00    -0.495 OA
ATOM     57  C   UNL     1       1.394  -0.018 -12.014  0.00  0.00    +0.277 C 
ENDBRANCH  19  56
TORSDOF 8
