REMARK  Name = 
REMARK  21 active torsions:
REMARK  status: ('A' for Active; 'I' for Inactive)
REMARK    1  A    between atoms: C_1  and  C_2
REMARK    2  A    between atoms: C_2  and  C_3
REMARK    3  A    between atoms: C_2  and  C_4
REMARK    4  A    between atoms: C_9  and  C_12
REMARK    5  A    between atoms: C_18  and  O_21
REMARK    6  A    between atoms: O_21  and  C_22
REMARK    7  A    between atoms: C_23  and  O_25
REMARK    8  A    between atoms: O_25  and  C_26
REMARK    9  A    between atoms: C_29  and  C_49
REMARK   10  A    between atoms: C_33  and  C_35
REMARK   11  A    between atoms: C_35  and  C_36
REMARK   12  A    between atoms: C_35  and  N_40
REMARK   13  A    between atoms: C_36  and  C_37
REMARK   14  A    between atoms: C_36  and  C_38
REMARK   15  A    between atoms: C_36  and  C_39
REMARK   16  A    between atoms: C_41  and  O_43
REMARK   17  A    between atoms: O_43  and  C_44
REMARK   18  A    between atoms: N_51  and  C_52
REMARK   19  A    between atoms: C_52  and  C_57
REMARK   20  A    between atoms: C_54  and  C_55
REMARK   21  A    between atoms: C_57  and  O_59
REMARK                            x       y       z     vdW  Elec       q    Type
REMARK                         _______ _______ _______ _____ _____    ______ ____
ROOT
ATOM      1  C   UNL     1       0.419 -14.083  -0.411  0.00  0.00    +0.193 C 
ATOM      2  C   UNL     1       0.305 -13.827   1.103  0.00  0.00    +0.153 C 
ATOM      3  N   UNL     1       1.568 -14.284   1.663  0.00  0.00    -0.285 N 
ATOM      4  C   UNL     1       1.853 -14.682   2.946  0.00  0.00    +0.237 C 
ATOM      5  O   UNL     1       2.951 -15.222   3.139  0.00  0.00    -0.274 OA
ATOM      6  C   UNL     1       2.539 -14.586   0.612  0.00  0.00    +0.166 C 
ATOM      7  C   UNL     1       1.923 -14.064  -0.676  0.00  0.00    +0.078 C 
ENDROOT
BRANCH   6   8
ATOM      8  C   UNL     1       3.865 -13.851   0.884  0.00  0.00    +0.235 C 
ATOM      9  N   UNL     1       4.879 -14.675   1.326  0.00  0.00    -0.298 N 
ATOM     10  H   UNL     1       4.560 -15.454   1.908  0.00  0.00    +0.150 HD
ATOM     11  O   UNL     1       4.007 -12.627   0.821  0.00  0.00    -0.274 OA
BRANCH   9  12
ATOM     12  C   UNL     1       6.176 -14.126   1.670  0.00  0.00    +0.138 C 
ATOM     13  C   UNL     1       7.441 -14.820   1.170  0.00  0.00    +0.048 C 
ATOM     14  C   UNL     1       7.010 -13.521   0.551  0.00  0.00    +0.048 C 
BRANCH  12  15
ATOM     15  C   UNL     1       6.245 -13.410   3.000  0.00  0.00    +0.329 C 
ATOM     16  O   UNL     1       6.820 -13.878   3.970  0.00  0.00    -0.249 OA
BRANCH  15  17
ATOM     17  O   UNL     1       5.608 -12.215   3.001  0.00  0.00    -0.479 OA
ATOM     18  H   UNL     1       5.126 -12.075   2.150  0.00  0.00    +0.295 HD
ENDBRANCH  15  17
ENDBRANCH  12  15
BRANCH  13  19
ATOM     19  C   UNL     1       7.396 -16.004   0.303  0.00  0.00    -0.028 C 
ATOM     20  C   UNL     1       7.153 -17.264   0.684  0.00  0.00    +0.004 C 
ENDBRANCH  13  19
ENDBRANCH   9  12
ENDBRANCH   6   8
BRANCH   1  21
ATOM     21  O   UNL     1      -0.073 -15.348  -0.868  0.00  0.00    -0.486 OA
BRANCH  21  24
ATOM     22  C   UNL     1      -2.888 -17.523  -0.418  0.00  0.00    +0.094 A 
ATOM     23  C   UNL     1      -1.601 -17.041  -0.561  0.00  0.00    +0.076 A 
ATOM     24  C   UNL     1      -1.405 -15.676  -0.795  0.00  0.00    +0.132 A 
ATOM     25  C   UNL     1      -2.528 -14.827  -0.972  0.00  0.00    +0.043 A 
ATOM     26  C   UNL     1      -2.466 -13.492  -1.432  0.00  0.00    +0.017 A 
ATOM     27  C   UNL     1      -3.575 -12.657  -1.486  0.00  0.00    +0.047 A 
ATOM     28  C   UNL     1      -4.817 -13.147  -1.128  0.00  0.00    +0.136 A 
ATOM     29  C   UNL     1      -4.927 -14.511  -0.792  0.00  0.00    +0.085 A 
ATOM     30 BR   UNL     1      -6.668 -15.220  -0.406  0.00  0.00    -0.044 Br
ATOM     31  C   UNL     1      -3.809 -15.377  -0.725  0.00  0.00    +0.093 A 
ATOM     32  N   UNL     1      -3.964 -16.699  -0.455  0.00  0.00    -0.244 NA
BRANCH  22  39
ATOM     33  C   UNL     1      -0.626 -22.444  -0.146  0.00  0.00    +0.221 C 
ATOM     34  N   UNL     1      -1.956 -22.295   0.179  0.00  0.00    -0.264 N 
ATOM     35  H   UNL     1      -2.529 -23.102   0.402  0.00  0.00    +0.157 HD
ATOM     36  C   UNL     1      -2.601 -21.087   0.065  0.00  0.00    +0.165 A 
ATOM     37  S   UNL     1      -4.301 -21.188   0.223  0.00  0.00    -0.060 S 
ATOM     38  C   UNL     1      -4.408 -19.495  -0.062  0.00  0.00    +0.078 A 
ATOM     39  C   UNL     1      -3.140 -18.955  -0.206  0.00  0.00    +0.098 A 
ATOM     40  N   UNL     1      -2.108 -19.894  -0.139  0.00  0.00    -0.223 NA
ATOM     41  O   UNL     1       0.097 -21.556  -0.593  0.00  0.00    -0.275 OA
BRANCH  33  43
ATOM     42  C   UNL     1       1.286 -24.021  -0.591  0.00  0.00    +0.017 C 
ATOM     43  C   UNL     1      -0.088 -23.869   0.066  0.00  0.00    +0.069 C 
ATOM     44  C   UNL     1       0.019 -24.203   1.554  0.00  0.00    +0.017 C 
ENDBRANCH  33  43
ENDBRANCH  22  39
BRANCH  28  45
ATOM     45  O   UNL     1      -5.950 -12.374  -1.170  0.00  0.00    -0.494 OA
ATOM     46  C   UNL     1      -5.761 -10.974  -0.960  0.00  0.00    +0.277 C 
ENDBRANCH  28  45
ENDBRANCH  21  24
ENDBRANCH   1  21
BRANCH   4  47
ATOM     47  C   UNL     1       0.869 -14.413   4.121  0.00  0.00    +0.168 C 
BRANCH  47  48
ATOM     48  N   UNL     1       0.912 -13.001   4.536  0.00  0.00    -0.269 N 
ATOM     49  H   UNL     1       1.750 -12.639   4.973  0.00  0.00    +0.153 HD
ATOM     50  C   UNL     1      -0.154 -12.146   4.482  0.00  0.00    +0.401 C 
ATOM     51  O   UNL     1      -1.213 -12.385   3.926  0.00  0.00    -0.226 OA
BRANCH  50  52
ATOM     52  O   UNL     1       0.142 -10.994   5.143  0.00  0.00    -0.447 OA
BRANCH  52  53
ATOM     53  C   UNL     1      -0.852  -9.948   5.141  0.00  0.00    +0.178 C 
ATOM     54  C   UNL     1      -0.253  -8.664   5.744  0.00  0.00    +0.045 C 
ATOM     55  C   UNL     1      -1.338  -8.029   6.618  0.00  0.00    +0.004 C 
ATOM     56  C   UNL     1      -2.594  -8.849   6.378  0.00  0.00    +0.004 C 
ATOM     57  C   UNL     1      -2.066 -10.233   6.026  0.00  0.00    +0.045 C 
ENDBRANCH  52  53
ENDBRANCH  50  52
ENDBRANCH  47  48
BRANCH  47  58
ATOM     58  C   UNL     1       1.166 -15.379   5.340  0.00  0.00    -0.011 C 
ATOM     59  C   UNL     1       1.079 -16.854   4.878  0.00  0.00    +0.013 C 
ATOM     60  C   UNL     1       0.101 -15.190   6.442  0.00  0.00    +0.013 C 
ATOM     61  C   UNL     1       2.544 -15.137   6.004  0.00  0.00    +0.013 C 
ENDBRANCH  47  58
ENDBRANCH   4  47
TORSDOF 15
