REMARK  Name = 
REMARK  12 active torsions:
REMARK  status: ('A' for Active; 'I' for Inactive)
REMARK    1  A    between atoms: C_1  and  C_2
REMARK    2  A    between atoms: C_2  and  C_3
REMARK    3  A    between atoms: C_2  and  C_4
REMARK    4  A    between atoms: C_2  and  C_5
REMARK    5  A    between atoms: C_12  and  C_13
REMARK    6  A    between atoms: N_15  and  C_16
REMARK    7  A    between atoms: C_16  and  C_22
REMARK    8  A    between atoms: C_18  and  C_20
REMARK    9  A    between atoms: N_24  and  S_25
REMARK   10  A    between atoms: S_25  and  C_28
REMARK   11  A    between atoms: C_38  and  O_40
REMARK   12  A    between atoms: O_40  and  C_41
REMARK                            x       y       z     vdW  Elec       q    Type
REMARK                         _______ _______ _______ _____ _____    ______ ____
ROOT
ATOM      1  C   UNL     1      12.539  -4.465  -1.189  0.00  0.00    +0.168 C 
ATOM      2  N   UNL     1      13.942  -4.849  -1.072  0.00  0.00    -0.269 N 
ATOM      3  H   UNL     1      14.627  -4.230  -0.675  0.00  0.00    +0.153 HD
ATOM      4  C   UNL     1      14.373  -6.077  -1.522  0.00  0.00    +0.401 C 
ATOM      5  O   UNL     1      13.666  -6.934  -2.021  0.00  0.00    -0.226 OA
ATOM      6  O   UNL     1      15.659  -6.292  -1.148  0.00  0.00    -0.447 OA
ATOM      7  C   UNL     1      15.709  -7.437  -0.269  0.00  0.00    +0.182 C 
ATOM      8  C   UNL     1      16.488  -7.429   1.012  0.00  0.00    +0.033 C 
ATOM      9  C   UNL     1      16.740  -8.625   1.880  0.00  0.00    +0.007 C 
ATOM     10  C   UNL     1      16.462  -8.232   3.341  0.00  0.00    +0.000 C 
ATOM     11  C   UNL     1      15.107  -8.744   3.836  0.00  0.00    +0.000 C 
ATOM     12  C   UNL     1      14.670  -8.062   5.126  0.00  0.00    +0.006 C 
ATOM     13  C   UNL     1      14.203  -6.622   4.888  0.00  0.00    +0.061 C 
ATOM     14  C   UNL     1      13.188  -6.210   5.912  0.00  0.00    +0.103 A 
ATOM     15  C   UNL     1      12.045  -5.495   5.574  0.00  0.00    +0.238 A 
ATOM     16  N   UNL     1      11.120  -5.140   6.506  0.00  0.00    -0.210 NA
ATOM     17  C   UNL     1      11.332  -5.593   7.791  0.00  0.00    +0.096 A 
ATOM     18  C   UNL     1      10.438  -5.361   8.847  0.00  0.00    +0.075 A 
ATOM     19  C   UNL     1      10.635  -5.922  10.122  0.00  0.00    +0.122 A 
ATOM     20  C   UNL     1      11.716  -6.760  10.349  0.00  0.00    +0.048 A 
ATOM     21  C   UNL     1      12.647  -6.949   9.337  0.00  0.00    +0.033 A 
ATOM     22  C   UNL     1      12.483  -6.365   8.091  0.00  0.00    +0.090 A 
ATOM     23  O   UNL     1      11.719  -5.420   4.208  0.00  0.00    -0.470 OA
ATOM     24  C   UNL     1      11.449  -4.033   3.787  0.00  0.00    +0.195 C 
ATOM     25  C   UNL     1      10.344  -3.413   2.824  0.00  0.00    +0.078 C 
ATOM     26  C   UNL     1      10.334  -4.302   1.598  0.00  0.00    +0.166 C 
ATOM     27  N   UNL     1      11.739  -4.398   1.245  0.00  0.00    -0.285 N 
ATOM     28  C   UNL     1      12.433  -4.083   2.530  0.00  0.00    +0.153 C 
ATOM     29  N   UNL     1      13.428  -6.608   7.184  0.00  0.00    -0.245 NA
ATOM     30  C   UNL     1      15.058  -7.001   1.024  0.00  0.00    +0.052 C 
ATOM     31  C   UNL     1      12.138  -3.630   0.108  0.00  0.00    +0.237 C 
ATOM     32  O   UNL     1      12.303  -2.413   0.203  0.00  0.00    -0.274 OA
ENDROOT
BRANCH   1  34
ATOM     33  C   UNL     1      13.116  -2.495  -2.778  0.00  0.00    +0.013 C 
ATOM     34  C   UNL     1      12.320  -3.802  -2.603  0.00  0.00    -0.011 C 
ATOM     35  C   UNL     1      12.768  -4.741  -3.761  0.00  0.00    +0.013 C 
ATOM     36  C   UNL     1      10.828  -3.541  -2.833  0.00  0.00    +0.013 C 
ENDBRANCH   1  34
BRANCH  26  37
ATOM     37  C   UNL     1       9.246  -4.013   0.552  0.00  0.00    +0.234 C 
ATOM     38  N   UNL     1       8.380  -2.988   0.856  0.00  0.00    -0.299 N 
ATOM     39  H   UNL     1       8.555  -2.362   1.633  0.00  0.00    +0.150 HD
ATOM     40  O   UNL     1       9.106  -4.700  -0.460  0.00  0.00    -0.274 OA
BRANCH  38  41
ATOM     41  C   UNL     1       7.175  -2.726   0.099  0.00  0.00    +0.119 C 
ATOM     42  C   UNL     1       6.922  -1.247  -0.186  0.00  0.00    +0.046 C 
ATOM     43  C   UNL     1       7.271  -2.169  -1.312  0.00  0.00    +0.046 C 
BRANCH  41  44
ATOM     44  C   UNL     1       6.051  -3.727   0.311  0.00  0.00    +0.256 C 
ATOM     45  N   UNL     1       6.277  -4.954  -0.311  0.00  0.00    -0.188 N 
ATOM     46  H   UNL     1       7.192  -5.157  -0.718  0.00  0.00    +0.176 HD
ATOM     47  O   UNL     1       5.065  -3.459   0.978  0.00  0.00    -0.272 OA
BRANCH  45  48
ATOM     48  S   UNL     1       5.216  -6.219  -0.297  0.00  0.00    +0.048 S 
ATOM     49  O   UNL     1       5.148  -6.725   1.053  0.00  0.00    -0.155 OA
ATOM     50  O   UNL     1       5.613  -7.081  -1.392  0.00  0.00    -0.155 OA
BRANCH  48  51
ATOM     51  C   UNL     1       3.576  -5.541  -0.687  0.00  0.00    +0.151 C 
ATOM     52  C   UNL     1       2.892  -6.113  -1.897  0.00  0.00    +0.030 C 
ATOM     53  C   UNL     1       3.542  -4.759  -1.977  0.00  0.00    +0.030 C 
ENDBRANCH  48  51
ENDBRANCH  45  48
ENDBRANCH  41  44
BRANCH  42  54
ATOM     54  C   UNL     1       5.590  -0.661  -0.080  0.00  0.00    -0.028 C 
ATOM     55  C   UNL     1       5.030   0.159  -0.977  0.00  0.00    +0.004 C 
ENDBRANCH  42  54
ENDBRANCH  38  41
ENDBRANCH  26  37
BRANCH  19  56
ATOM     56  O   UNL     1       9.786  -5.776  11.185  0.00  0.00    -0.495 OA
ATOM     57  C   UNL     1       9.374  -4.434  11.424  0.00  0.00    +0.277 C 
ENDBRANCH  19  56
TORSDOF 8
