REMARK  Name = 
REMARK  12 active torsions:
REMARK  status: ('A' for Active; 'I' for Inactive)
REMARK    1  A    between atoms: C_1  and  C_2
REMARK    2  A    between atoms: C_2  and  C_3
REMARK    3  A    between atoms: C_3  and  C_4
REMARK    4  A    between atoms: C_3  and  C_6
REMARK    5  A    between atoms: C_4  and  C_5
REMARK    6  A    between atoms: C_6  and  C_7
REMARK    7  A    between atoms: C_6  and  N_22
REMARK    8  A    between atoms: C_9  and  N_18
REMARK    9  A    between atoms: C_11  and  C_15
REMARK   10  A    between atoms: C_13  and  O_14
REMARK   11  A    between atoms: C_15  and  O_17
REMARK   12  A    between atoms: C_23  and  C_25
REMARK                            x       y       z     vdW  Elec       q    Type
REMARK                         _______ _______ _______ _____ _____    ______ ____
ROOT
ATOM      1  C   UNL     1       4.822  -1.108  -1.130  0.00  0.00    +0.079 C 
ATOM      2  C   UNL     1       4.088  -1.828  -0.004  0.00  0.00    +0.137 C 
ATOM      3  C   UNL     1       5.053  -2.757   0.727  0.00  0.00    +0.130 C 
ATOM      4  C   UNL     1       6.378  -2.628  -0.028  0.00  0.00    +0.062 C 
ATOM      5  C   UNL     1       6.320  -1.306  -0.809  0.00  0.00    +0.196 C 
ENDROOT
BRANCH   5   6
ATOM      6  N   UNL     1       6.915  -0.240   0.010  0.00  0.00    -0.110 NA
ATOM      7  C   UNL     1       8.185  -0.053  -0.095  0.00  0.00    +0.377 C 
ATOM      8  N   UNL     1       8.802   0.847   0.705  0.00  0.00    -0.289 N 
ATOM      9  H   UNL     1       9.610   1.331   0.357  0.00  0.00    +0.255 HD
ATOM     10  H   UNL     1       8.170   1.414   1.254  0.00  0.00    +0.255 HD
ATOM     11  N   UNL     1       9.098  -0.685  -0.868  0.00  0.00    -0.289 N 
ATOM     12  H   UNL     1       9.921  -0.172  -1.145  0.00  0.00    +0.255 HD
ATOM     13  H   UNL     1       8.772  -1.323  -1.580  0.00  0.00    +0.255 HD
ENDBRANCH   5   6
BRANCH   2  14
ATOM     14  O   UNL     1       2.977  -2.566  -0.530  0.00  0.00    -0.391 OA
ATOM     15  H   UNL     1       3.156  -2.795  -1.466  0.00  0.00    +0.210 HD
ENDBRANCH   2  14
BRANCH   3  16
ATOM     16  C   UNL     1       4.636  -4.203   0.905  0.00  0.00    +0.310 C 
ATOM     17  O   UNL     1       5.437  -5.120   1.088  0.00  0.00    -0.251 OA
BRANCH  16  18
ATOM     18  O   UNL     1       3.301  -4.439   0.947  0.00  0.00    -0.480 OA
ATOM     19  H   UNL     1       2.792  -3.666   0.605  0.00  0.00    +0.295 HD
ENDBRANCH  16  18
ENDBRANCH   3  16
BRANCH   1  20
ATOM     20  C   UNL     1       4.337   0.346  -1.463  0.00  0.00    +0.085 C 
BRANCH  20  21
ATOM     21  N   UNL     1       5.093   0.842  -2.636  0.00  0.00    -0.312 N 
ATOM     22  H   UNL     1       5.607   1.705  -2.515  0.00  0.00    +0.149 HD
ATOM     23  C   UNL     1       4.992   0.298  -3.899  0.00  0.00    +0.210 C 
ATOM     24  C   UNL     1       5.769   1.032  -4.961  0.00  0.00    +0.109 C 
ATOM     25  O   UNL     1       4.316  -0.689  -4.173  0.00  0.00    -0.276 OA
ENDBRANCH  20  21
BRANCH  20  26
ATOM     26  C   UNL     1       2.775   0.580  -1.703  0.00  0.00    +0.009 C 
BRANCH  26  28
ATOM     27  C   UNL     1       0.362   0.458  -0.714  0.00  0.00    +0.004 C 
ATOM     28  C   UNL     1       1.862   0.320  -0.474  0.00  0.00    +0.002 C 
ENDBRANCH  26  28
BRANCH  26  29
ATOM     29  C   UNL     1       2.474   2.005  -2.263  0.00  0.00    +0.002 C 
ATOM     30  C   UNL     1       2.793   3.154  -1.313  0.00  0.00    +0.004 C 
ENDBRANCH  26  29
ENDBRANCH  20  26
ENDBRANCH   1  20
TORSDOF 9
