REMARK  Name = 
REMARK  16 active torsions:
REMARK  status: ('A' for Active; 'I' for Inactive)
REMARK    1  A    between atoms: C_1  and  C_2
REMARK    2  A    between atoms: C_2  and  C_3
REMARK    3  A    between atoms: C_2  and  C_4
REMARK    4  A    between atoms: C_4  and  N_5
REMARK    5  A    between atoms: N_5  and  C_6
REMARK    6  A    between atoms: N_5  and  S_33
REMARK    7  A    between atoms: C_6  and  C_7
REMARK    8  A    between atoms: C_7  and  C_8
REMARK    9  A    between atoms: C_7  and  O_32
REMARK   10  A    between atoms: C_8  and  C_10
REMARK   11  A    between atoms: C_8  and  N_17
REMARK   12  A    between atoms: C_10  and  C_11
REMARK   13  A    between atoms: C_18  and  O_20
REMARK   14  A    between atoms: O_20  and  C_21
REMARK   15  A    between atoms: S_33  and  C_36
REMARK   16  A    between atoms: C_39  and  N_42
REMARK                            x       y       z     vdW  Elec       q    Type
REMARK                         _______ _______ _______ _____ _____    ______ ____
ROOT
ATOM      1  C   UNL     1       0.433   1.603   2.905  0.00  0.00    +0.151 C 
ENDROOT
BRANCH   1   2
ATOM      2  O   UNL     1      -0.469   2.706   2.768  0.00  0.00    -0.389 OA
ATOM      3  H   UNL     1      -0.936   2.800   3.613  0.00  0.00    +0.210 HD
ENDBRANCH   1   2
BRANCH   1   4
ATOM      4  C   UNL     1      -0.293   0.430   3.686  0.00  0.00    +0.142 C 
BRANCH   4   5
ATOM      5  N   UNL     1       0.096   0.231   5.175  0.00  0.00    -0.174 NA
BRANCH   5   6
ATOM      6  S   UNL     1      -0.271   1.559   6.263  0.00  0.00    +0.061 S 
ATOM      7  O   UNL     1       0.279   2.759   5.670  0.00  0.00    -0.153 OA
ATOM      8  O   UNL     1       0.083   1.169   7.608  0.00  0.00    -0.153 OA
BRANCH   6   9
ATOM      9  C   UNL     1      -2.050   1.694   6.193  0.00  0.00    +0.106 A 
ATOM     10  C   UNL     1      -2.617   2.809   5.577  0.00  0.00    +0.030 A 
ATOM     11  C   UNL     1      -3.990   2.839   5.325  0.00  0.00    +0.024 A 
ATOM     12  C   UNL     1      -4.800   1.758   5.674  0.00  0.00    +0.025 A 
ATOM     13  C   UNL     1      -4.252   0.740   6.459  0.00  0.00    +0.024 A 
ATOM     14  C   UNL     1      -2.880   0.701   6.724  0.00  0.00    +0.030 A 
BRANCH  12  15
ATOM     15  N   UNL     1      -6.177   1.809   5.430  0.00  0.00    -0.358 N 
ATOM     16  H   UNL     1      -6.415   2.375   4.620  0.00  0.00    +0.142 HD
ATOM     17  H   UNL     1      -6.615   0.894   5.384  0.00  0.00    +0.142 HD
ENDBRANCH  12  15
ENDBRANCH   6   9
ENDBRANCH   5   6
BRANCH   5  18
ATOM     18  C   UNL     1      -0.406  -1.076   5.749  0.00  0.00    +0.112 C 
BRANCH  18  20
ATOM     19  C   UNL     1      -0.211  -3.503   6.258  0.00  0.00    +0.008 C 
ATOM     20  C   UNL     1       0.516  -2.295   5.624  0.00  0.00    -0.001 C 
ATOM     21  C   UNL     1       0.949  -2.613   4.200  0.00  0.00    +0.008 C 
ENDBRANCH  18  20
ENDBRANCH   5  18
ENDBRANCH   4   5
ENDBRANCH   1   4
BRANCH   1  22
ATOM     22  C   UNL     1       1.040   1.307   1.467  0.00  0.00    +0.110 C 
BRANCH  22  23
ATOM     23  N   UNL     1       0.342   0.223   0.722  0.00  0.00    -0.275 N 
ATOM     24  H   UNL     1       0.908  -0.319   0.083  0.00  0.00    +0.152 HD
ATOM     25  C   UNL     1      -0.986   0.018   0.515  0.00  0.00    +0.401 C 
ATOM     26  O   UNL     1      -1.923   0.637   0.978  0.00  0.00    -0.226 OA
BRANCH  25  27
ATOM     27  O   UNL     1      -1.100  -1.042  -0.329  0.00  0.00    -0.444 OA
BRANCH  27  28
ATOM     28  C   UNL     1      -2.323  -1.181  -1.072  0.00  0.00    +0.212 C 
ATOM     29  C   UNL     1      -2.312  -2.469  -1.874  0.00  0.00    +0.090 C 
ATOM     30  C   UNL     1      -0.954  -2.904  -2.390  0.00  0.00    +0.040 C 
ATOM     31  C   UNL     1      -1.281  -3.515  -3.730  0.00  0.00    +0.163 C 
ATOM     32  O   UNL     1      -2.448  -2.847  -4.217  0.00  0.00    -0.351 OA
ATOM     33  C   UNL     1      -3.059  -2.116  -3.142  0.00  0.00    +0.257 C 
ATOM     34  O   UNL     1      -2.944  -0.717  -3.345  0.00  0.00    -0.347 OA
ATOM     35  C   UNL     1      -2.399  -0.122  -2.164  0.00  0.00    +0.208 C 
ENDBRANCH  27  28
ENDBRANCH  25  27
ENDBRANCH  22  23
BRANCH  22  36
ATOM     36  C   UNL     1       1.343   2.532   0.466  0.00  0.00    +0.060 C 
BRANCH  36  37
ATOM     37  C   UNL     1       2.393   3.631   0.704  0.00  0.00    -0.046 A 
ATOM     38  C   UNL     1       3.083   4.260  -0.375  0.00  0.00    +0.004 A 
ATOM     39  C   UNL     1       4.044   5.263  -0.170  0.00  0.00    +0.000 A 
ATOM     40  C   UNL     1       4.328   5.693   1.121  0.00  0.00    +0.000 A 
ATOM     41  C   UNL     1       3.624   5.146   2.187  0.00  0.00    +0.000 A 
ATOM     42  C   UNL     1       2.672   4.135   1.975  0.00  0.00    +0.004 A 
ENDBRANCH  36  37
ENDBRANCH  22  36
ENDBRANCH   1  22
TORSDOF 14
