REMARK  Name = 
REMARK  27 active torsions:
REMARK  status: ('A' for Active; 'I' for Inactive)
REMARK    1  A    between atoms: C_1  and  C_2
REMARK    2  A    between atoms: C_2  and  C_3
REMARK    3  A    between atoms: C_2  and  C_4
REMARK    4  A    between atoms: C_2  and  C_5
REMARK    5  A    between atoms: C_5  and  C_7
REMARK    6  A    between atoms: C_5  and  N_48
REMARK    7  A    between atoms: N_9  and  N_10
REMARK    8  A    between atoms: N_10  and  C_11
REMARK    9  A    between atoms: N_10  and  C_24
REMARK   10  A    between atoms: C_11  and  C_12
REMARK   11  A    between atoms: C_15  and  C_18
REMARK   12  A    between atoms: C_24  and  C_25
REMARK   13  A    between atoms: C_25  and  C_26
REMARK   14  A    between atoms: C_25  and  O_47
REMARK   15  A    between atoms: C_26  and  C_27
REMARK   16  A    between atoms: C_26  and  N_34
REMARK   17  A    between atoms: C_27  and  C_28
REMARK   18  A    between atoms: C_35  and  C_37
REMARK   19  A    between atoms: C_37  and  C_38
REMARK   20  A    between atoms: C_37  and  N_42
REMARK   21  A    between atoms: C_38  and  C_39
REMARK   22  A    between atoms: C_38  and  C_40
REMARK   23  A    between atoms: C_38  and  C_41
REMARK   24  A    between atoms: C_43  and  O_45
REMARK   25  A    between atoms: O_45  and  C_46
REMARK   26  A    between atoms: C_49  and  O_51
REMARK   27  A    between atoms: O_51  and  C_52
REMARK                            x       y       z     vdW  Elec       q    Type
REMARK                         _______ _______ _______ _____ _____    ______ ____
ROOT
ATOM      1  N   UNL     1       0.730  -3.532   1.287  0.00  0.00    -0.220 NA
ENDROOT
BRANCH   1   3
ATOM      2  C   UNL     1       1.285  -1.592  -0.031  0.00  0.00    +0.248 C 
ATOM      3  N   UNL     1       0.885  -2.123   1.175  0.00  0.00    -0.246 N 
ATOM      4  H   UNL     1       1.063  -1.575   2.023  0.00  0.00    +0.169 HD
ATOM      5  O   UNL     1       1.461  -2.292  -1.028  0.00  0.00    -0.272 OA
BRANCH   2   6
ATOM      6  C   UNL     1       1.695  -0.106  -0.053  0.00  0.00    +0.169 C 
BRANCH   6   8
ATOM      7  C   UNL     1       3.890  -0.824  -1.164  0.00  0.00    +0.013 C 
ATOM      8  C   UNL     1       3.253   0.034  -0.036  0.00  0.00    -0.011 C 
ATOM      9  C   UNL     1       3.679   1.487  -0.269  0.00  0.00    +0.013 C 
ATOM     10  C   UNL     1       3.836  -0.427   1.295  0.00  0.00    +0.013 C 
ENDBRANCH   6   8
BRANCH   6  11
ATOM     11  N   UNL     1       0.961   0.825   0.825  0.00  0.00    -0.269 N 
ATOM     12  H   UNL     1       0.762   1.739   0.437  0.00  0.00    +0.153 HD
ATOM     13  C   UNL     1       0.812   0.782   2.173  0.00  0.00    +0.401 C 
ATOM     14  O   UNL     1       1.062  -0.174   2.893  0.00  0.00    -0.226 OA
BRANCH  13  15
ATOM     15  O   UNL     1       0.270   1.955   2.594  0.00  0.00    -0.454 OA
ATOM     16  C   UNL     1      -0.008   2.004   3.996  0.00  0.00    +0.282 C 
ENDBRANCH  13  15
ENDBRANCH   6  11
ENDBRANCH   2   6
ENDBRANCH   1   3
BRANCH   1  17
ATOM     17  C   UNL     1      -0.701  -3.867   1.029  0.00  0.00    +0.139 C 
BRANCH  17  18
ATOM     18  C   UNL     1      -1.393  -3.471  -0.351  0.00  0.00    +0.151 C 
BRANCH  18  19
ATOM     19  O   UNL     1      -2.812  -3.755  -0.237  0.00  0.00    -0.389 OA
ATOM     20  H   UNL     1      -2.922  -4.582   0.260  0.00  0.00    +0.210 HD
ENDBRANCH  18  19
BRANCH  18  21
ATOM     21  C   UNL     1      -0.872  -4.091  -1.696  0.00  0.00    +0.107 C 
BRANCH  21  22
ATOM     22  N   UNL     1      -1.645  -3.576  -2.899  0.00  0.00    -0.308 N 
ATOM     23  H   UNL     1      -2.466  -4.100  -3.167  0.00  0.00    +0.149 HD
ATOM     24  C   UNL     1      -1.189  -2.579  -3.759  0.00  0.00    +0.234 C 
ATOM     25  O   UNL     1      -0.081  -2.061  -3.613  0.00  0.00    -0.274 OA
BRANCH  24  26
ATOM     26  C   UNL     1      -2.082  -2.232  -5.030  0.00  0.00    +0.167 C 
BRANCH  26  27
ATOM     27  C   UNL     1      -2.428  -0.684  -5.223  0.00  0.00    -0.011 C 
ATOM     28  C   UNL     1      -3.627  -0.304  -4.330  0.00  0.00    +0.013 C 
ATOM     29  C   UNL     1      -2.842  -0.290  -6.672  0.00  0.00    +0.013 C 
ATOM     30  C   UNL     1      -1.226   0.226  -4.901  0.00  0.00    +0.013 C 
ENDBRANCH  26  27
BRANCH  26  31
ATOM     31  N   UNL     1      -1.347  -2.741  -6.196  0.00  0.00    -0.269 N 
ATOM     32  H   UNL     1      -0.359  -2.530  -6.267  0.00  0.00    +0.153 HD
ATOM     33  C   UNL     1      -1.975  -3.145  -7.338  0.00  0.00    +0.401 C 
ATOM     34  O   UNL     1      -3.177  -3.343  -7.440  0.00  0.00    -0.226 OA
BRANCH  33  35
ATOM     35  O   UNL     1      -1.088  -3.199  -8.364  0.00  0.00    -0.454 OA
ATOM     36  C   UNL     1      -1.680  -3.420  -9.650  0.00  0.00    +0.282 C 
ENDBRANCH  33  35
ENDBRANCH  26  31
ENDBRANCH  24  26
ENDBRANCH  21  22
BRANCH  21  37
ATOM     37  C   UNL     1      -0.855  -5.644  -1.664  0.00  0.00    +0.060 C 
BRANCH  37  38
ATOM     38  C   UNL     1      -0.271  -6.276  -2.915  0.00  0.00    -0.046 A 
ATOM     39  C   UNL     1      -0.884  -7.396  -3.491  0.00  0.00    +0.004 A 
ATOM     40  C   UNL     1      -0.453  -7.879  -4.729  0.00  0.00    +0.000 A 
ATOM     41  C   UNL     1       0.611  -7.266  -5.388  0.00  0.00    +0.000 A 
ATOM     42  C   UNL     1       1.289  -6.215  -4.779  0.00  0.00    +0.000 A 
ATOM     43  C   UNL     1       0.868  -5.741  -3.538  0.00  0.00    +0.004 A 
ENDBRANCH  37  38
ENDBRANCH  21  37
ENDBRANCH  18  21
ENDBRANCH  17  18
ENDBRANCH   1  17
BRANCH   1  44
ATOM     44  C   UNL     1       1.172  -3.983   2.654  0.00  0.00    +0.140 C 
BRANCH  44  45
ATOM     45  C   UNL     1       2.624  -3.671   3.069  0.00  0.00    -0.032 A 
ATOM     46  C   UNL     1       3.723  -3.741   2.206  0.00  0.00    +0.005 A 
ATOM     47  C   UNL     1       5.010  -3.281   2.611  0.00  0.00    +0.010 A 
ATOM     48  C   UNL     1       5.267  -2.774   3.901  0.00  0.00    +0.000 A 
ATOM     49  C   UNL     1       4.182  -2.845   4.793  0.00  0.00    +0.010 A 
ATOM     50  C   UNL     1       2.897  -3.291   4.392  0.00  0.00    +0.005 A 
BRANCH  48  51
ATOM     51  C   UNL     1       6.565  -2.127   4.279  0.00  0.00    +0.071 A 
ATOM     52  N   UNL     1       7.332  -1.642   3.255  0.00  0.00    -0.255 NA
ATOM     53  C   UNL     1       8.467  -0.972   3.565  0.00  0.00    +0.111 A 
ATOM     54  C   UNL     1       8.920  -0.756   4.853  0.00  0.00    +0.020 A 
ATOM     55  C   UNL     1       8.156  -1.256   5.893  0.00  0.00    +0.004 A 
ATOM     56  C   UNL     1       6.974  -1.947   5.606  0.00  0.00    +0.028 A 
ENDBRANCH  48  51
ENDBRANCH  44  45
ENDBRANCH   1  44
TORSDOF 19
