REMARK  Name = 
REMARK  27 active torsions:
REMARK  status: ('A' for Active; 'I' for Inactive)
REMARK    1  A    between atoms: C_1  and  C_2
REMARK    2  A    between atoms: C_2  and  C_3
REMARK    3  A    between atoms: C_2  and  C_4
REMARK    4  A    between atoms: C_2  and  C_5
REMARK    5  A    between atoms: C_5  and  C_7
REMARK    6  A    between atoms: C_5  and  N_48
REMARK    7  A    between atoms: N_9  and  N_10
REMARK    8  A    between atoms: N_10  and  C_11
REMARK    9  A    between atoms: N_10  and  C_24
REMARK   10  A    between atoms: C_11  and  C_12
REMARK   11  A    between atoms: C_15  and  C_18
REMARK   12  A    between atoms: C_24  and  C_25
REMARK   13  A    between atoms: C_25  and  C_26
REMARK   14  A    between atoms: C_25  and  O_47
REMARK   15  A    between atoms: C_26  and  C_27
REMARK   16  A    between atoms: C_26  and  N_34
REMARK   17  A    between atoms: C_27  and  C_28
REMARK   18  A    between atoms: C_35  and  C_37
REMARK   19  A    between atoms: C_37  and  C_38
REMARK   20  A    between atoms: C_37  and  N_42
REMARK   21  A    between atoms: C_38  and  C_39
REMARK   22  A    between atoms: C_38  and  C_40
REMARK   23  A    between atoms: C_38  and  C_41
REMARK   24  A    between atoms: C_43  and  O_45
REMARK   25  A    between atoms: O_45  and  C_46
REMARK   26  A    between atoms: C_49  and  O_51
REMARK   27  A    between atoms: O_51  and  C_52
REMARK                            x       y       z     vdW  Elec       q    Type
REMARK                         _______ _______ _______ _____ _____    ______ ____
ROOT
ATOM      1  N   UNL     1       0.582   3.613  -0.419  0.00  0.00    -0.220 NA
ENDROOT
BRANCH   1   3
ATOM      2  C   UNL     1       1.846   1.777   0.541  0.00  0.00    +0.248 C 
ATOM      3  N   UNL     1       1.003   2.274  -0.446  0.00  0.00    -0.246 N 
ATOM      4  H   UNL     1       0.792   1.683  -1.248  0.00  0.00    +0.169 HD
ATOM      5  O   UNL     1       2.219   2.440   1.502  0.00  0.00    -0.272 OA
BRANCH   2   6
ATOM      6  C   UNL     1       2.330   0.318   0.272  0.00  0.00    +0.169 C 
BRANCH   6   7
ATOM      7  N   UNL     1       1.653  -0.280  -0.897  0.00  0.00    -0.269 N 
ATOM      8  H   UNL     1       2.066  -0.242  -1.819  0.00  0.00    +0.153 HD
ATOM      9  C   UNL     1       0.434  -0.881  -0.843  0.00  0.00    +0.401 C 
ATOM     10  O   UNL     1      -0.252  -0.992   0.160  0.00  0.00    -0.226 OA
BRANCH   9  11
ATOM     11  O   UNL     1       0.088  -1.285  -2.086  0.00  0.00    -0.454 OA
ATOM     12  C   UNL     1      -1.201  -1.892  -2.183  0.00  0.00    +0.282 C 
ENDBRANCH   9  11
ENDBRANCH   6   7
BRANCH   6  14
ATOM     13  C   UNL     1       4.603   0.726   1.411  0.00  0.00    +0.013 C 
ATOM     14  C   UNL     1       3.893   0.231   0.130  0.00  0.00    -0.011 C 
ATOM     15  C   UNL     1       4.318  -1.239  -0.074  0.00  0.00    +0.013 C 
ATOM     16  C   UNL     1       4.408   1.067  -1.059  0.00  0.00    +0.013 C 
ENDBRANCH   6  14
ENDBRANCH   2   6
ENDBRANCH   1   3
BRANCH   1  17
ATOM     17  C   UNL     1      -0.801   3.760   0.061  0.00  0.00    +0.139 C 
BRANCH  17  18
ATOM     18  C   UNL     1      -1.381   2.979   1.301  0.00  0.00    +0.151 C 
BRANCH  18  19
ATOM     19  O   UNL     1      -2.821   3.209   1.281  0.00  0.00    -0.389 OA
ATOM     20  H   UNL     1      -2.979   4.106   0.941  0.00  0.00    +0.210 HD
ENDBRANCH  18  19
BRANCH  18  21
ATOM     21  C   UNL     1      -0.886   3.243   2.771  0.00  0.00    +0.107 C 
BRANCH  21  22
ATOM     22  N   UNL     1      -1.682   2.381   3.730  0.00  0.00    -0.308 N 
ATOM     23  H   UNL     1      -2.637   2.671   3.901  0.00  0.00    +0.149 HD
ATOM     24  C   UNL     1      -1.236   1.192   4.290  0.00  0.00    +0.234 C 
ATOM     25  O   UNL     1      -0.069   0.840   4.181  0.00  0.00    -0.274 OA
BRANCH  24  26
ATOM     26  C   UNL     1      -2.249   0.414   5.240  0.00  0.00    +0.167 C 
BRANCH  26  27
ATOM     27  C   UNL     1      -2.480  -1.136   4.918  0.00  0.00    -0.011 C 
ATOM     28  C   UNL     1      -3.537  -1.295   3.802  0.00  0.00    +0.013 C 
ATOM     29  C   UNL     1      -3.024  -1.964   6.121  0.00  0.00    +0.013 C 
ATOM     30  C   UNL     1      -1.178  -1.846   4.504  0.00  0.00    +0.013 C 
ENDBRANCH  26  27
BRANCH  26  31
ATOM     31  N   UNL     1      -1.749   0.586   6.611  0.00  0.00    -0.269 N 
ATOM     32  H   UNL     1      -0.776   0.376   6.795  0.00  0.00    +0.153 HD
ATOM     33  C   UNL     1      -2.591   0.598   7.687  0.00  0.00    +0.401 C 
ATOM     34  O   UNL     1      -3.803   0.743   7.616  0.00  0.00    -0.226 OA
BRANCH  33  35
ATOM     35  O   UNL     1      -1.904   0.313   8.823  0.00  0.00    -0.454 OA
ATOM     36  C   UNL     1      -2.724   0.048   9.970  0.00  0.00    +0.282 C 
ENDBRANCH  33  35
ENDBRANCH  26  31
ENDBRANCH  24  26
ENDBRANCH  21  22
BRANCH  21  37
ATOM     37  C   UNL     1      -1.023   4.742   3.174  0.00  0.00    +0.060 C 
BRANCH  37  38
ATOM     38  C   UNL     1      -0.558   5.140   4.568  0.00  0.00    -0.046 A 
ATOM     39  C   UNL     1      -1.236   6.151   5.273  0.00  0.00    +0.004 A 
ATOM     40  C   UNL     1      -0.822   6.543   6.552  0.00  0.00    +0.000 A 
ATOM     41  C   UNL     1       0.288   5.944   7.140  0.00  0.00    +0.000 A 
ATOM     42  C   UNL     1       0.994   4.968   6.438  0.00  0.00    +0.000 A 
ATOM     43  C   UNL     1       0.579   4.575   5.163  0.00  0.00    +0.004 A 
ENDBRANCH  37  38
ENDBRANCH  21  37
ENDBRANCH  18  21
ENDBRANCH  17  18
ENDBRANCH   1  17
BRANCH   1  44
ATOM     44  C   UNL     1       0.815   4.294  -1.736  0.00  0.00    +0.140 C 
BRANCH  44  45
ATOM     45  C   UNL     1       0.416   3.511  -2.989  0.00  0.00    -0.032 A 
ATOM     46  C   UNL     1       1.389   2.781  -3.678  0.00  0.00    +0.005 A 
ATOM     47  C   UNL     1       1.030   1.905  -4.709  0.00  0.00    +0.010 A 
ATOM     48  C   UNL     1      -0.311   1.682  -5.078  0.00  0.00    +0.000 A 
ATOM     49  C   UNL     1      -1.262   2.531  -4.484  0.00  0.00    +0.010 A 
ATOM     50  C   UNL     1      -0.902   3.436  -3.461  0.00  0.00    +0.005 A 
BRANCH  48  51
ATOM     51  C   UNL     1      -0.644   0.492  -5.917  0.00  0.00    +0.071 A 
ATOM     52  N   UNL     1       0.417  -0.326  -6.164  0.00  0.00    -0.255 NA
ATOM     53  C   UNL     1       0.196  -1.561  -6.658  0.00  0.00    +0.111 A 
ATOM     54  C   UNL     1      -1.059  -2.052  -6.943  0.00  0.00    +0.020 A 
ATOM     55  C   UNL     1      -2.140  -1.198  -6.768  0.00  0.00    +0.004 A 
ATOM     56  C   UNL     1      -1.935   0.093  -6.266  0.00  0.00    +0.028 A 
ENDBRANCH  48  51
ENDBRANCH  44  45
ENDBRANCH   1  44
TORSDOF 19
