REMARK  Name = 
REMARK  13 active torsions:
REMARK  status: ('A' for Active; 'I' for Inactive)
REMARK    1  A    between atoms: C_1  and  C_2
REMARK    2  A    between atoms: C_3  and  O_51
REMARK    3  A    between atoms: C_9  and  C_43
REMARK    4  A    between atoms: C_11  and  O_12
REMARK    5  A    between atoms: O_12  and  C_13
REMARK    6  A    between atoms: N_20  and  C_42
REMARK    7  A    between atoms: C_29  and  C_33
REMARK    8  A    between atoms: N_35  and  S_36
REMARK    9  A    between atoms: S_36  and  C_39
REMARK   10  A    between atoms: C_45  and  C_48
REMARK   11  A    between atoms: C_48  and  C_49
REMARK   12  A    between atoms: C_48  and  C_50
REMARK   13  A    between atoms: O_51  and  C_52
REMARK                            x       y       z     vdW  Elec       q    Type
REMARK                         _______ _______ _______ _____ _____    ______ ____
ROOT
ATOM      1  C   UNL     1       7.017  -3.481   0.622  0.00  0.00    +0.175 C 
ATOM      2  C   UNL     1       7.143  -5.024   0.620  0.00  0.00    +0.058 C 
ATOM      3  C   UNL     1       8.380  -5.225   1.548  0.00  0.00    +0.091 C 
ATOM      4  C   UNL     1       7.889  -4.979   3.008  0.00  0.00    +0.219 C 
ATOM      5  N   UNL     1       8.449  -3.935   3.754  0.00  0.00    -0.304 N 
ATOM      6  C   UNL     1       8.993  -4.420   5.016  0.00  0.00    +0.132 C 
ATOM      7  C   UNL     1       7.608  -2.739   3.982  0.00  0.00    +0.107 C 
ATOM      8  C   UNL     1       8.432  -1.469   4.200  0.00  0.00    +0.019 C 
ATOM      9  C   UNL     1       7.798  -0.224   3.547  0.00  0.00    +0.006 C 
ATOM     10  C   UNL     1       8.827   0.671   2.847  0.00  0.00    +0.027 C 
ATOM     11  C   UNL     1       9.404   0.108   1.561  0.00  0.00    -0.031 C 
ATOM     12  C   UNL     1      10.652  -0.374   1.513  0.00  0.00    -0.025 C 
ATOM     13  C   UNL     1      11.530  -0.747   0.383  0.00  0.00    +0.046 C 
ATOM     14  C   UNL     1      11.997  -2.092  -0.207  0.00  0.00    +0.119 C 
ATOM     15  N   UNL     1      11.140  -3.242  -0.127  0.00  0.00    -0.301 N 
ATOM     16  H   UNL     1      10.573  -3.353  -0.960  0.00  0.00    +0.150 HD
ATOM     17  C   UNL     1      10.720  -3.930   1.011  0.00  0.00    +0.218 C 
ATOM     18  O   UNL     1      11.368  -4.172   2.009  0.00  0.00    -0.275 OA
ATOM     19  C   UNL     1      12.747  -1.488   0.930  0.00  0.00    +0.046 C 
ATOM     20  O   UNL     1       7.001  -5.684   3.482  0.00  0.00    -0.275 OA
ATOM     21  C   UNL     1       9.280  -4.295   0.763  0.00  0.00    +0.090 C 
ATOM     22  C   UNL     1       8.457  -3.016   0.625  0.00  0.00    +0.058 C 
ENDROOT
BRANCH  14  23
ATOM     23  C   UNL     1      12.682  -2.001  -1.566  0.00  0.00    +0.256 C 
ATOM     24  N   UNL     1      13.975  -2.502  -1.595  0.00  0.00    -0.188 N 
ATOM     25  H   UNL     1      14.368  -2.990  -0.795  0.00  0.00    +0.176 HD
ATOM     26  O   UNL     1      12.090  -1.534  -2.523  0.00  0.00    -0.272 OA
BRANCH  24  27
ATOM     27  S   UNL     1      14.977  -2.410  -2.903  0.00  0.00    +0.048 S 
ATOM     28  O   UNL     1      14.610  -3.478  -3.810  0.00  0.00    -0.155 OA
ATOM     29  O   UNL     1      16.311  -2.334  -2.339  0.00  0.00    -0.155 OA
BRANCH  27  30
ATOM     30  C   UNL     1      14.639  -0.855  -3.767  0.00  0.00    +0.151 C 
ATOM     31  C   UNL     1      15.813   0.047  -4.018  0.00  0.00    +0.030 C 
ATOM     32  C   UNL     1      14.848   0.369  -2.910  0.00  0.00    +0.030 C 
ENDBRANCH  27  30
ENDBRANCH  24  27
ENDBRANCH  14  23
BRANCH   1  33
ATOM     33  O   UNL     1       6.344  -2.781  -0.424  0.00  0.00    -0.488 OA
BRANCH  33  40
ATOM     34  C   UNL     1       0.796  -0.106  -0.398  0.00  0.00    +0.050 C 
ATOM     35  C   UNL     1       2.304  -0.094  -0.503  0.00  0.00    +0.017 A 
ATOM     36  C   UNL     1       2.985  -1.276  -0.189  0.00  0.00    +0.082 A 
ATOM     37  N   UNL     1       2.269  -2.356   0.222  0.00  0.00    -0.244 NA
ATOM     38  C   UNL     1       2.921  -3.500   0.485  0.00  0.00    +0.100 A 
ATOM     39  C   UNL     1       4.277  -3.611   0.328  0.00  0.00    +0.076 A 
ATOM     40  C   UNL     1       5.025  -2.542  -0.114  0.00  0.00    +0.132 A 
ATOM     41  C   UNL     1       4.395  -1.310  -0.345  0.00  0.00    +0.043 A 
ATOM     42  C   UNL     1       5.083  -0.133  -0.713  0.00  0.00    +0.017 A 
ATOM     43  C   UNL     1       4.386   1.046  -0.996  0.00  0.00    +0.047 A 
ATOM     44  C   UNL     1       2.994   1.064  -0.926  0.00  0.00    +0.125 A 
BRANCH  38  45
ATOM     45  C   UNL     1       2.223  -4.741   0.840  0.00  0.00    +0.127 A 
ATOM     46  S   UNL     1       0.537  -4.961   0.669  0.00  0.00    -0.074 S 
ATOM     47  C   UNL     1       0.731  -6.630   1.044  0.00  0.00    +0.070 A 
ATOM     48  C   UNL     1       2.055  -6.919   1.307  0.00  0.00    +0.052 A 
ATOM     49  N   UNL     1       2.885  -5.826   1.211  0.00  0.00    -0.242 NA
BRANCH  48  50
ATOM     50  C   UNL     1       2.662  -8.249   1.673  0.00  0.00    +0.032 C 
ATOM     51  C   UNL     1       3.286  -8.213   3.071  0.00  0.00    +0.014 C 
ATOM     52  C   UNL     1       3.710  -8.709   0.652  0.00  0.00    +0.014 C 
ENDBRANCH  48  50
ENDBRANCH  38  45
BRANCH  44  53
ATOM     53  O   UNL     1       2.213   2.145  -1.236  0.00  0.00    -0.495 OA
ATOM     54  C   UNL     1       2.838   3.300  -1.778  0.00  0.00    +0.277 C 
ENDBRANCH  44  53
ENDBRANCH  33  40
ENDBRANCH   1  33
TORSDOF 8
