REMARK  Name = 
REMARK  18 active torsions:
REMARK  status: ('A' for Active; 'I' for Inactive)
REMARK    1  A    between atoms: C_1  and  C_2
REMARK    2  A    between atoms: C_3  and  C_9
REMARK    3  A    between atoms: C_7  and  O_8
REMARK    4  A    between atoms: N_11  and  C_12
REMARK    5  A    between atoms: C_12  and  C_14
REMARK    6  A    between atoms: C_12  and  C_22
REMARK    7  A    between atoms: C_14  and  S_15
REMARK    8  A    between atoms: S_15  and  C_16
REMARK    9  A    between atoms: C_22  and  C_23
REMARK   10  A    between atoms: C_22  and  O_44
REMARK   11  A    between atoms: C_23  and  N_24
REMARK   12  A    between atoms: C_35  and  C_37
REMARK   13  A    between atoms: N_39  and  C_40
REMARK   14  A    between atoms: C_40  and  C_41
REMARK   15  A    between atoms: C_40  and  C_42
REMARK   16  A    between atoms: C_40  and  C_43
REMARK   17  A    between atoms: C_45  and  S_46
REMARK   18  A    between atoms: S_46  and  O_49
REMARK                            x       y       z     vdW  Elec       q    Type
REMARK                         _______ _______ _______ _____ _____    ______ ____
ROOT
ATOM      1  C   UNL     1       0.442   3.661  -0.375  0.00  0.00    +0.113 C 
ENDROOT
BRANCH   1   3
ATOM      2  C   UNL     1       2.624   2.446  -1.078  0.00  0.00    +0.245 C 
ATOM      3  N   UNL     1       1.242   2.455  -0.828  0.00  0.00    -0.305 N 
ATOM      4  H   UNL     1       0.748   1.576  -0.855  0.00  0.00    +0.149 HD
ATOM      5  O   UNL     1       3.321   3.436  -0.879  0.00  0.00    -0.270 OA
BRANCH   2  12
ATOM      6  C   UNL     1       5.703   1.636  -0.856  0.00  0.00    +0.048 C 
ATOM      7  C   UNL     1       4.634   0.817  -1.526  0.00  0.00    +0.003 A 
ATOM      8  C   UNL     1       5.082  -0.387  -2.123  0.00  0.00    +0.120 A 
ATOM      9  C   UNL     1       4.235  -1.242  -2.811  0.00  0.00    +0.046 A 
ATOM     10  C   UNL     1       2.899  -0.895  -2.942  0.00  0.00    +0.004 A 
ATOM     11  C   UNL     1       2.417   0.296  -2.380  0.00  0.00    +0.013 A 
ATOM     12  C   UNL     1       3.260   1.174  -1.648  0.00  0.00    +0.043 A 
BRANCH   8  13
ATOM     13  O   UNL     1       6.408  -0.719  -2.013  0.00  0.00    -0.506 OA
ATOM     14  H   UNL     1       6.683  -1.184  -2.825  0.00  0.00    +0.292 HD
ENDBRANCH   8  13
ENDBRANCH   2  12
ENDBRANCH   1   3
BRANCH   1  15
ATOM     15  C   UNL     1      -1.111   3.322  -0.254  0.00  0.00    +0.149 C 
BRANCH  15  16
ATOM     16  O   UNL     1      -1.934   4.496  -0.303  0.00  0.00    -0.389 OA
ATOM     17  H   UNL     1      -1.686   5.072   0.450  0.00  0.00    +0.210 HD
ENDBRANCH  15  16
BRANCH  15  18
ATOM     18  C   UNL     1      -1.650   2.478   0.969  0.00  0.00    +0.118 C 
BRANCH  18  19
ATOM     19  N   UNL     1      -3.135   2.345   0.946  0.00  0.00    -0.289 NA
ATOM     20  C   UNL     1      -3.861   1.755   2.104  0.00  0.00    +0.143 C 
ATOM     21  C   UNL     1      -3.965   0.218   2.063  0.00  0.00    +0.032 C 
ATOM     22  C   UNL     1      -4.527  -0.310   0.739  0.00  0.00    -0.005 C 
ATOM     23  C   UNL     1      -3.738   0.258  -0.436  0.00  0.00    +0.006 C 
ATOM     24  C   UNL     1      -2.386  -0.442  -0.685  0.00  0.00    +0.005 C 
ATOM     25  C   UNL     1      -2.045  -1.694   0.138  0.00  0.00    +0.000 C 
ATOM     26  C   UNL     1      -3.172  -2.435   0.855  0.00  0.00    +0.000 C 
ATOM     27  C   UNL     1      -4.550  -1.834   0.652  0.00  0.00    +0.004 C 
ATOM     28  C   UNL     1      -3.689   1.799  -0.312  0.00  0.00    +0.089 C 
BRANCH  20  29
ATOM     29  C   UNL     1      -3.400   2.183   3.516  0.00  0.00    +0.231 C 
ATOM     30  N   UNL     1      -3.487   3.530   3.811  0.00  0.00    -0.309 N 
ATOM     31  H   UNL     1      -3.690   4.157   3.040  0.00  0.00    +0.149 HD
ATOM     32  O   UNL     1      -3.087   1.348   4.364  0.00  0.00    -0.274 OA
BRANCH  30  33
ATOM     33  C   UNL     1      -3.404   4.071   5.188  0.00  0.00    +0.026 C 
ATOM     34  C   UNL     1      -4.562   3.543   6.059  0.00  0.00    +0.031 C 
ATOM     35  C   UNL     1      -3.522   5.605   5.141  0.00  0.00    +0.031 C 
ATOM     36  C   UNL     1      -2.063   3.718   5.857  0.00  0.00    +0.031 C 
ENDBRANCH  30  33
ENDBRANCH  20  29
ENDBRANCH  18  19
ENDBRANCH  15  18
ENDBRANCH   1  15
BRANCH   1  37
ATOM     37  C   UNL     1       0.658   4.842  -1.392  0.00  0.00    +0.099 C 
BRANCH  37  38
ATOM     38  S   UNL     1      -0.018   6.486  -0.887  0.00  0.00    -0.123 S 
BRANCH  38  39
ATOM     39  C   UNL     1       0.090   7.344  -2.442  0.00  0.00    +0.008 A 
ATOM     40  C   UNL     1       1.341   7.802  -2.872  0.00  0.00    +0.015 A 
ATOM     41  C   UNL     1       1.464   8.509  -4.070  0.00  0.00    +0.001 A 
ATOM     42  C   UNL     1       0.337   8.775  -4.838  0.00  0.00    +0.000 A 
ATOM     43  C   UNL     1      -0.918   8.329  -4.419  0.00  0.00    +0.001 A 
ATOM     44  C   UNL     1      -1.043   7.619  -3.220  0.00  0.00    +0.015 A 
ENDBRANCH  38  39
ENDBRANCH  37  38
ENDBRANCH   1  37
TORSDOF 12
REMARK  Name = 
REMARK  18 active torsions:
REMARK  status: ('A' for Active; 'I' for Inactive)
REMARK    1  A    between atoms: C_1  and  C_2
REMARK    2  A    between atoms: C_3  and  C_9
REMARK    3  A    between atoms: C_7  and  O_8
REMARK    4  A    between atoms: N_11  and  C_12
REMARK    5  A    between atoms: C_12  and  C_14
REMARK    6  A    between atoms: C_12  and  C_22
REMARK    7  A    between atoms: C_14  and  S_15
REMARK    8  A    between atoms: S_15  and  C_16
REMARK    9  A    between atoms: C_22  and  C_23
REMARK   10  A    between atoms: C_22  and  O_44
REMARK   11  A    between atoms: C_23  and  N_24
REMARK   12  A    between atoms: C_35  and  C_37
REMARK   13  A    between atoms: N_39  and  C_40
REMARK   14  A    between atoms: C_40  and  C_41
REMARK   15  A    between atoms: C_40  and  C_42
REMARK   16  A    between atoms: C_40  and  C_43
REMARK   17  A    between atoms: C_45  and  S_46
REMARK   18  A    between atoms: S_46  and  O_49
REMARK                            x       y       z     vdW  Elec       q    Type
REMARK                         _______ _______ _______ _____ _____    ______ ____
ROOT
ATOM      1  C   UNL     1       1.438  -0.234   1.287  0.00  0.00    +0.228 C 
ATOM      2  S   UNL     1       2.763  -0.254   2.460  0.00  0.00    +0.077 S 
ATOM      3  O   UNL     1       2.476  -1.236   3.476  0.00  0.00    -0.148 OA
ATOM      4  O   UNL     1       3.145   1.108   2.752  0.00  0.00    -0.148 OA
ENDROOT
BRANCH   2   5
ATOM      5  O   UNL     1       3.894  -0.840   1.469  0.00  0.00    -0.254 OA
ATOM      6  H   UNL     1       4.458  -0.096   1.161  0.00  0.00    +0.244 HD
ENDBRANCH   2   5
TORSDOF 1
