REMARK  Name = 
REMARK  11 active torsions:
REMARK  status: ('A' for Active; 'I' for Inactive)
REMARK    1  A    between atoms: C_1  and  C_2
REMARK    2  A    between atoms: N_4  and  C_5
REMARK    3  A    between atoms: C_6  and  N_21
REMARK    4  A    between atoms: C_9  and  C_18
REMARK    5  A    between atoms: C_11  and  C_12
REMARK    6  A    between atoms: C_12  and  C_13
REMARK    7  A    between atoms: C_12  and  O_17
REMARK    8  A    between atoms: C_13  and  C_14
REMARK    9  A    between atoms: C_13  and  O_16
REMARK   10  A    between atoms: C_14  and  O_15
REMARK   11  A    between atoms: C_18  and  O_20
REMARK                            x       y       z     vdW  Elec       q    Type
REMARK                         _______ _______ _______ _____ _____    ______ ____
ROOT
ATOM      1  C   UNL     1       4.467   1.246  -0.493  0.00  0.00    +0.160 C 
ATOM      2  C   UNL     1       5.195   2.525  -1.010  0.00  0.00    +0.229 C 
ATOM      3  O   UNL     1       6.008   2.417  -2.185  0.00  0.00    -0.477 OA
ATOM      4  C   UNL     1       6.328   1.189  -2.707  0.00  0.00    +0.204 C 
ATOM      5  C   UNL     1       5.900   0.024  -2.211  0.00  0.00    +0.071 C 
ATOM      6  C   UNL     1       5.043  -0.097  -1.015  0.00  0.00    +0.238 C 
ENDROOT
BRANCH   6   7
ATOM      7  N   UNL     1       4.002  -1.081  -1.314  0.00  0.00    -0.104 NA
ATOM      8  C   UNL     1       3.513  -1.805  -0.381  0.00  0.00    +0.377 C 
ATOM      9  N   UNL     1       2.541  -2.686  -0.689  0.00  0.00    -0.289 N 
ATOM     10  H   UNL     1       1.787  -2.767  -0.023  0.00  0.00    +0.255 HD
ATOM     11  H   UNL     1       2.198  -2.532  -1.633  0.00  0.00    +0.255 HD
ATOM     12  N   UNL     1       3.770  -1.797   0.945  0.00  0.00    -0.289 N 
ATOM     13  H   UNL     1       3.457  -2.600   1.479  0.00  0.00    +0.255 HD
ATOM     14  H   UNL     1       4.674  -1.458   1.252  0.00  0.00    +0.255 HD
ENDBRANCH   6   7
BRANCH   1  17
ATOM     15  C   UNL     1       0.685   1.912  -0.902  0.00  0.00    +0.109 C 
ATOM     16  C   UNL     1       2.145   2.084  -1.232  0.00  0.00    +0.210 C 
ATOM     17  N   UNL     1       2.983   1.316  -0.464  0.00  0.00    -0.305 N 
ATOM     18  H   UNL     1       2.556   0.524   0.001  0.00  0.00    +0.149 HD
ATOM     19  O   UNL     1       2.500   2.891  -2.082  0.00  0.00    -0.276 OA
ENDBRANCH   1  17
BRANCH   4  20
ATOM     20  C   UNL     1       7.245   1.170  -3.893  0.00  0.00    +0.372 C 
ATOM     21  O   UNL     1       7.735   0.175  -4.382  0.00  0.00    -0.242 OA
BRANCH  20  22
ATOM     22  O   UNL     1       7.492   2.440  -4.312  0.00  0.00    -0.475 OA
ATOM     23  H   UNL     1       6.954   3.079  -3.784  0.00  0.00    +0.296 HD
ENDBRANCH  20  22
ENDBRANCH   4  20
BRANCH   2  24
ATOM     24  C   UNL     1       5.998   3.244   0.109  0.00  0.00    +0.187 C 
BRANCH  24  25
ATOM     25  O   UNL     1       5.262   3.264   1.340  0.00  0.00    -0.385 OA
ATOM     26  H   UNL     1       4.399   3.691   1.169  0.00  0.00    +0.210 HD
ENDBRANCH  24  25
BRANCH  24  27
ATOM     27  C   UNL     1       6.348   4.702  -0.280  0.00  0.00    +0.172 C 
BRANCH  27  28
ATOM     28  O   UNL     1       7.149   4.780  -1.467  0.00  0.00    -0.387 OA
ATOM     29  H   UNL     1       7.962   4.266  -1.315  0.00  0.00    +0.210 HD
ENDBRANCH  27  28
BRANCH  27  30
ATOM     30  C   UNL     1       7.091   5.428   0.848  0.00  0.00    +0.189 C 
BRANCH  30  31
ATOM     31  O   UNL     1       7.388   6.764   0.445  0.00  0.00    -0.392 OA
ATOM     32  H   UNL     1       7.612   6.720  -0.506  0.00  0.00    +0.210 HD
ENDBRANCH  30  31
ENDBRANCH  27  30
ENDBRANCH  24  27
ENDBRANCH   2  24
TORSDOF 10
