REMARK  Name = 
REMARK  7 active torsions:
REMARK  status: ('A' for Active; 'I' for Inactive)
REMARK    1  A    between atoms: C_1  and  O_2
REMARK    2  A    between atoms: O_2  and  C_3
REMARK    3  A    between atoms: C_3  and  O_5
REMARK    4  A    between atoms: O_5  and  C_6
REMARK    5  A    between atoms: C_6  and  O_7
REMARK    6  A    between atoms: O_7  and  C_8
REMARK    7  A    between atoms: N_19  and  C_25
REMARK                            x       y       z     vdW  Elec       q    Type
REMARK                         _______ _______ _______ _____ _____    ______ ____
ROOT
ATOM      1  C   UNL     1       7.830  -0.964  -2.864  0.00  0.00    +0.201 A 
ATOM      2  C   UNL     1       8.572  -0.006  -3.759  0.00  0.00    +0.224 A 
ATOM      3  O   UNL     1       8.419   1.210  -3.695  0.00  0.00    -0.284 OA
ATOM      4  C   UNL     1       9.506  -0.565  -4.764  0.00  0.00    +0.074 A 
ATOM      5  C   UNL     1       9.494  -1.888  -4.987  0.00  0.00    +0.113 A 
ATOM      6  N   UNL     1       8.673  -2.763  -4.302  0.00  0.00    -0.260 N 
ATOM      7  N   UNL     1       8.567  -4.174  -4.742  0.00  0.00    -0.236 N 
ATOM      8  C   UNL     1       8.371  -4.991  -3.512  0.00  0.00    +0.206 C 
ATOM      9  N   UNL     1       7.169  -4.559  -2.851  0.00  0.00    -0.272 N 
ATOM     10  C   UNL     1       6.083  -5.497  -2.609  0.00  0.00    +0.138 C 
ATOM     11  C   UNL     1       6.450  -6.957  -2.816  0.00  0.00    +0.179 C 
ATOM     12  O   UNL     1       7.781  -7.195  -2.376  0.00  0.00    -0.375 OA
ATOM     13  C   UNL     1       7.087  -3.265  -2.388  0.00  0.00    +0.270 C 
ATOM     14  O   UNL     1       6.283  -2.946  -1.518  0.00  0.00    -0.268 OA
ATOM     15  C   UNL     1       8.727  -6.493  -3.201  0.00  0.00    +0.203 C 
ATOM     16  C   UNL     1       7.952  -2.281  -3.168  0.00  0.00    +0.169 A 
ENDROOT
BRANCH   7  17
ATOM     17  C   UNL     1       7.782  -4.355  -6.081  0.00  0.00    +0.155 C 
ATOM     18  C   UNL     1       8.316  -5.560  -6.944  0.00  0.00    -0.008 A 
ATOM     19  C   UNL     1       7.998  -5.742  -8.304  0.00  0.00    +0.014 A 
ATOM     20  C   UNL     1       8.380  -6.898  -9.029  0.00  0.00    +0.015 A 
ATOM     21  C   UNL     1       9.122  -7.890  -8.422  0.00  0.00    +0.001 A 
ATOM     22  C   UNL     1       9.572  -7.677  -7.131  0.00  0.00    +0.000 A 
ATOM     23  S   UNL     1       6.951  -4.614  -9.183  0.00  0.00    -0.120 S 
ATOM     24  C   UNL     1       5.476  -5.224  -8.368  0.00  0.00    +0.112 C 
ATOM     25  C   UNL     1       5.230  -4.589  -7.025  0.00  0.00    +0.006 A 
ATOM     26  C   UNL     1       3.840  -4.381  -6.788  0.00  0.00    +0.163 A 
ATOM     27  F   UNL     1       2.938  -4.895  -7.641  0.00  0.00    -0.202 F 
ATOM     28  C   UNL     1       3.377  -3.617  -5.737  0.00  0.00    +0.159 A 
ATOM     29  F   UNL     1       2.066  -3.432  -5.544  0.00  0.00    -0.202 F 
ATOM     30  C   UNL     1       4.289  -2.968  -4.954  0.00  0.00    +0.041 A 
ATOM     31  C   UNL     1       5.652  -3.182  -5.192  0.00  0.00    +0.009 A 
ATOM     32  C   UNL     1       9.231  -6.498  -6.449  0.00  0.00    +0.007 A 
ATOM     33  C   UNL     1       6.199  -4.121  -6.088  0.00  0.00    -0.014 A 
ENDBRANCH   7  17
BRANCH   1  34
ATOM     34  O   UNL     1       6.950  -0.521  -1.901  0.00  0.00    -0.450 OA
BRANCH  34  35
ATOM     35  C   UNL     1       7.119   0.769  -1.331  0.00  0.00    +0.473 C 
BRANCH  35  36
ATOM     36  O   UNL     1       6.481   0.834  -0.060  0.00  0.00    -0.397 OA
BRANCH  36  37
ATOM     37  C   UNL     1       7.188   0.232   0.927  0.00  0.00    +0.513 C 
ATOM     38  O   UNL     1       8.297  -0.270   0.816  0.00  0.00    -0.203 OA
BRANCH  37  40
ATOM     39  C   UNL     1       7.157  -0.246   3.208  0.00  0.00    +0.284 C 
ATOM     40  O   UNL     1       6.489   0.334   2.087  0.00  0.00    -0.437 OA
ENDBRANCH  37  40
ENDBRANCH  36  37
ENDBRANCH  35  36
ENDBRANCH  34  35
ENDBRANCH   1  34
TORSDOF 6
