REMARK  Name = 
REMARK  17 active torsions:
REMARK  status: ('A' for Active; 'I' for Inactive)
REMARK    1  A    between atoms: C_1  and  C_2
REMARK    2  A    between atoms: C_2  and  C_3
REMARK    3  A    between atoms: C_2  and  C_4
REMARK    4  A    between atoms: C_2  and  N_5
REMARK    5  A    between atoms: C_6  and  C_8
REMARK    6  A    between atoms: N_10  and  C_41
REMARK    7  A    between atoms: N_13  and  C_14
REMARK    8  A    between atoms: C_14  and  C_15
REMARK    9  A    between atoms: C_15  and  C_16
REMARK   10  A    between atoms: C_15  and  O_40
REMARK   11  A    between atoms: C_16  and  C_17
REMARK   12  A    between atoms: C_17  and  C_19
REMARK   13  A    between atoms: C_17  and  C_26
REMARK   14  A    between atoms: C_19  and  C_20
REMARK   15  A    between atoms: N_28  and  C_29
REMARK   16  A    between atoms: C_31  and  O_39
REMARK   17  A    between atoms: C_41  and  C_42
REMARK                            x       y       z     vdW  Elec       q    Type
REMARK                         _______ _______ _______ _____ _____    ______ ____
ROOT
ATOM      1  C   UNL     1       4.815   2.652   5.886  0.00  0.00    +0.129 C 
ENDROOT
BRANCH   1   2
ATOM      2  O   UNL     1       5.031   3.592   6.945  0.00  0.00    -0.391 OA
ATOM      3  H   UNL     1       5.957   3.534   7.242  0.00  0.00    +0.210 HD
ENDBRANCH   1   2
BRANCH   1   4
ATOM      4  C   UNL     1       5.977   2.778   4.839  0.00  0.00    +0.116 C 
BRANCH   4   6
ATOM      5  C   UNL     1       7.158   2.021   2.791  0.00  0.00    +0.157 C 
ATOM      6  N   UNL     1       5.893   1.912   3.623  0.00  0.00    -0.287 NA
ATOM      7  C   UNL     1       4.770   2.366   2.761  0.00  0.00    +0.100 C 
ATOM      8  C   UNL     1       4.944   3.757   2.092  0.00  0.00    +0.100 C 
ATOM      9  N   UNL     1       6.234   3.942   1.418  0.00  0.00    -0.295 NA
ATOM     10  C   UNL     1       7.376   3.465   2.233  0.00  0.00    +0.113 C 
BRANCH   5  13
ATOM     11  N   UNL     1       7.179  -0.371   1.965  0.00  0.00    -0.309 N 
ATOM     12  H   UNL     1       6.851  -0.536   2.908  0.00  0.00    +0.149 HD
ATOM     13  C   UNL     1       7.186   0.967   1.598  0.00  0.00    +0.232 C 
ATOM     14  O   UNL     1       7.287   1.307   0.426  0.00  0.00    -0.274 OA
BRANCH  11  16
ATOM     15  C   UNL     1       7.982  -1.405  -0.235  0.00  0.00    +0.031 C 
ATOM     16  C   UNL     1       7.077  -1.521   1.013  0.00  0.00    +0.026 C 
ATOM     17  C   UNL     1       7.509  -2.803   1.749  0.00  0.00    +0.031 C 
ATOM     18  C   UNL     1       5.625  -1.704   0.539  0.00  0.00    +0.031 C 
ENDBRANCH  11  16
ENDBRANCH   5  13
BRANCH   9  19
ATOM     19  C   UNL     1       6.402   5.324   0.934  0.00  0.00    +0.121 C 
BRANCH  19  20
ATOM     20  C   UNL     1       7.528   5.524  -0.053  0.00  0.00    -0.015 A 
ATOM     21  C   UNL     1       7.890   4.549  -0.988  0.00  0.00    +0.008 A 
ATOM     22  C   UNL     1       8.869   4.822  -1.938  0.00  0.00    +0.020 A 
ATOM     23  C   UNL     1       9.449   6.079  -1.938  0.00  0.00    +0.111 A 
ATOM     24  N   UNL     1       9.134   7.050  -1.054  0.00  0.00    -0.263 NA
ATOM     25  C   UNL     1       8.182   6.751  -0.138  0.00  0.00    +0.115 A 
ENDBRANCH  19  20
ENDBRANCH   9  19
ENDBRANCH   4   6
ENDBRANCH   1   4
BRANCH   1  26
ATOM     26  C   UNL     1       4.727   1.232   6.464  0.00  0.00    +0.045 C 
BRANCH  26  27
ATOM     27  C   UNL     1       3.677   0.981   7.566  0.00  0.00    +0.082 C 
BRANCH  27  28
ATOM     28  C   UNL     1       4.050  -0.313   8.316  0.00  0.00    +0.217 C 
ATOM     29  N   UNL     1       3.996  -1.521   7.652  0.00  0.00    -0.306 N 
ATOM     30  H   UNL     1       3.587  -1.597   6.730  0.00  0.00    +0.149 HD
ATOM     31  O   UNL     1       4.497  -0.249   9.464  0.00  0.00    -0.275 OA
BRANCH  29  32
ATOM     32  C   UNL     1       4.540  -2.710   8.311  0.00  0.00    +0.132 C 
ATOM     33  C   UNL     1       4.110  -4.046   7.783  0.00  0.00    -0.022 A 
ATOM     34  C   UNL     1       5.190  -4.930   7.680  0.00  0.00    -0.040 A 
ATOM     35  C   UNL     1       4.998  -6.289   7.469  0.00  0.00    +0.004 A 
ATOM     36  C   UNL     1       3.693  -6.769   7.383  0.00  0.00    +0.000 A 
ATOM     37  C   UNL     1       2.607  -5.886   7.460  0.00  0.00    +0.000 A 
ATOM     38  C   UNL     1       6.500  -4.254   7.919  0.00  0.00    +0.069 C 
ATOM     39  C   UNL     1       2.811  -4.517   7.652  0.00  0.00    +0.006 A 
ATOM     40  C   UNL     1       6.104  -2.801   8.267  0.00  0.00    +0.143 C 
BRANCH  40  41
ATOM     41  O   UNL     1       6.681  -2.467   9.537  0.00  0.00    -0.389 OA
ATOM     42  H   UNL     1       6.130  -1.757   9.926  0.00  0.00    +0.210 HD
ENDBRANCH  40  41
ENDBRANCH  29  32
ENDBRANCH  27  28
BRANCH  27  43
ATOM     43  C   UNL     1       2.165   1.207   7.296  0.00  0.00    +0.048 C 
BRANCH  43  44
ATOM     44  C   UNL     1       1.348   0.426   6.289  0.00  0.00    -0.047 A 
ATOM     45  C   UNL     1       1.865  -0.095   5.103  0.00  0.00    +0.003 A 
ATOM     46  C   UNL     1       1.074  -0.862   4.240  0.00  0.00    +0.000 A 
ATOM     47  C   UNL     1      -0.275  -1.069   4.523  0.00  0.00    +0.000 A 
ATOM     48  C   UNL     1      -0.843  -0.463   5.637  0.00  0.00    +0.000 A 
ATOM     49  C   UNL     1      -0.042   0.287   6.505  0.00  0.00    +0.003 A 
ENDBRANCH  43  44
ENDBRANCH  27  43
ENDBRANCH  26  27
ENDBRANCH   1  26
TORSDOF 14
