REMARK  Name = 
REMARK  17 active torsions:
REMARK  status: ('A' for Active; 'I' for Inactive)
REMARK    1  A    between atoms: C_1  and  C_2
REMARK    2  A    between atoms: C_2  and  C_3
REMARK    3  A    between atoms: C_2  and  C_4
REMARK    4  A    between atoms: C_2  and  N_5
REMARK    5  A    between atoms: C_6  and  C_8
REMARK    6  A    between atoms: N_10  and  C_41
REMARK    7  A    between atoms: N_13  and  C_14
REMARK    8  A    between atoms: C_14  and  C_15
REMARK    9  A    between atoms: C_15  and  C_16
REMARK   10  A    between atoms: C_15  and  O_40
REMARK   11  A    between atoms: C_16  and  C_17
REMARK   12  A    between atoms: C_17  and  C_19
REMARK   13  A    between atoms: C_17  and  C_26
REMARK   14  A    between atoms: C_19  and  C_20
REMARK   15  A    between atoms: N_28  and  C_29
REMARK   16  A    between atoms: C_31  and  O_39
REMARK   17  A    between atoms: C_41  and  C_42
REMARK                            x       y       z     vdW  Elec       q    Type
REMARK                         _______ _______ _______ _____ _____    ______ ____
ROOT
ATOM      1  C   UNL     1      -3.511  -2.617   4.488  0.00  0.00    +0.129 C 
ENDROOT
BRANCH   1   2
ATOM      2  O   UNL     1      -4.826  -3.192   4.381  0.00  0.00    -0.391 OA
ATOM      3  H   UNL     1      -4.760  -4.152   4.251  0.00  0.00    +0.210 HD
ENDBRANCH   1   2
BRANCH   1   4
ATOM      4  C   UNL     1      -2.407  -3.726   4.505  0.00  0.00    +0.116 C 
BRANCH   4   6
ATOM      5  C   UNL     1      -0.029  -4.378   4.202  0.00  0.00    +0.157 C 
ATOM      6  N   UNL     1      -0.987  -3.272   4.560  0.00  0.00    -0.287 NA
ATOM      7  C   UNL     1      -0.628  -2.790   5.912  0.00  0.00    +0.100 C 
ATOM      8  C   UNL     1      -0.409  -3.900   6.997  0.00  0.00    +0.100 C 
ATOM      9  N   UNL     1       0.406  -5.046   6.533  0.00  0.00    -0.295 NA
ATOM     10  C   UNL     1      -0.080  -5.519   5.223  0.00  0.00    +0.113 C 
BRANCH   5  13
ATOM     11  N   UNL     1       2.391  -3.882   4.975  0.00  0.00    -0.309 N 
ATOM     12  H   UNL     1       2.061  -4.298   5.846  0.00  0.00    +0.149 HD
ATOM     13  C   UNL     1       1.464  -3.883   3.929  0.00  0.00    +0.232 C 
ATOM     14  O   UNL     1       1.780  -3.534   2.790  0.00  0.00    -0.274 OA
BRANCH  11  16
ATOM     15  C   UNL     1       4.036  -2.145   4.278  0.00  0.00    +0.031 C 
ATOM     16  C   UNL     1       3.848  -3.556   4.858  0.00  0.00    +0.026 C 
ATOM     17  C   UNL     1       4.570  -3.540   6.231  0.00  0.00    +0.031 C 
ATOM     18  C   UNL     1       4.590  -4.598   4.000  0.00  0.00    +0.031 C 
ENDBRANCH  11  16
ENDBRANCH   5  13
BRANCH   9  19
ATOM     19  C   UNL     1       0.543  -6.128   7.515  0.00  0.00    +0.121 C 
BRANCH  19  20
ATOM     20  C   UNL     1       1.458  -7.219   6.997  0.00  0.00    -0.015 A 
ATOM     21  C   UNL     1       0.950  -8.362   6.367  0.00  0.00    +0.008 A 
ATOM     22  C   UNL     1       1.812  -9.225   5.696  0.00  0.00    +0.020 A 
ATOM     23  C   UNL     1       3.166  -8.936   5.702  0.00  0.00    +0.111 A 
ATOM     24  N   UNL     1       3.700  -7.870   6.333  0.00  0.00    -0.263 NA
ATOM     25  C   UNL     1       2.836  -7.037   6.957  0.00  0.00    +0.115 A 
ENDBRANCH  19  20
ENDBRANCH   9  19
ENDBRANCH   4   6
ENDBRANCH   1   4
BRANCH   1  26
ATOM     26  C   UNL     1      -3.335  -1.660   3.311  0.00  0.00    +0.045 C 
BRANCH  26  27
ATOM     27  C   UNL     1      -4.429  -0.581   3.163  0.00  0.00    +0.082 C 
BRANCH  27  28
ATOM     28  C   UNL     1      -4.249   0.132   1.805  0.00  0.00    +0.217 C 
ATOM     29  N   UNL     1      -4.486  -0.690   0.702  0.00  0.00    -0.306 N 
ATOM     30  H   UNL     1      -4.760  -1.652   0.851  0.00  0.00    +0.149 HD
ATOM     31  O   UNL     1      -3.915   1.306   1.699  0.00  0.00    -0.275 OA
BRANCH  29  32
ATOM     32  C   UNL     1      -4.166  -0.291  -0.672  0.00  0.00    +0.132 C 
ATOM     33  C   UNL     1      -4.414  -1.392  -1.698  0.00  0.00    -0.022 A 
ATOM     34  C   UNL     1      -5.517  -1.104  -2.507  0.00  0.00    -0.040 A 
ATOM     35  C   UNL     1      -5.891  -1.941  -3.556  0.00  0.00    +0.004 A 
ATOM     36  C   UNL     1      -5.130  -3.072  -3.812  0.00  0.00    +0.000 A 
ATOM     37  C   UNL     1      -4.009  -3.362  -3.020  0.00  0.00    +0.000 A 
ATOM     38  C   UNL     1      -6.167   0.182  -2.108  0.00  0.00    +0.069 C 
ATOM     39  C   UNL     1      -3.650  -2.525  -1.950  0.00  0.00    +0.006 A 
ATOM     40  C   UNL     1      -5.089   0.840  -1.223  0.00  0.00    +0.143 C 
BRANCH  40  41
ATOM     41  O   UNL     1      -4.316   1.744  -2.032  0.00  0.00    -0.389 OA
ATOM     42  H   UNL     1      -4.603   2.644  -1.805  0.00  0.00    +0.210 HD
ENDBRANCH  40  41
ENDBRANCH  29  32
ENDBRANCH  27  28
BRANCH  27  43
ATOM     43  C   UNL     1      -4.647   0.341   4.409  0.00  0.00    +0.048 C 
BRANCH  43  44
ATOM     44  C   UNL     1      -3.526   0.916   5.266  0.00  0.00    -0.047 A 
ATOM     45  C   UNL     1      -3.816   1.284   6.603  0.00  0.00    +0.003 A 
ATOM     46  C   UNL     1      -2.834   1.800   7.463  0.00  0.00    +0.000 A 
ATOM     47  C   UNL     1      -1.536   1.969   6.998  0.00  0.00    +0.000 A 
ATOM     48  C   UNL     1      -1.244   1.661   5.668  0.00  0.00    +0.000 A 
ATOM     49  C   UNL     1      -2.231   1.159   4.804  0.00  0.00    +0.003 A 
ENDBRANCH  43  44
ENDBRANCH  27  43
ENDBRANCH  26  27
ENDBRANCH   1  26
TORSDOF 14
