REMARK  Name = 
REMARK  18 active torsions:
REMARK  status: ('A' for Active; 'I' for Inactive)
REMARK    1  A    between atoms: C_1  and  C_2
REMARK    2  A    between atoms: C_3  and  C_9
REMARK    3  A    between atoms: C_7  and  O_8
REMARK    4  A    between atoms: N_11  and  C_12
REMARK    5  A    between atoms: C_12  and  C_14
REMARK    6  A    between atoms: C_12  and  C_22
REMARK    7  A    between atoms: C_14  and  S_15
REMARK    8  A    between atoms: S_15  and  C_16
REMARK    9  A    between atoms: C_22  and  C_23
REMARK   10  A    between atoms: C_22  and  O_44
REMARK   11  A    between atoms: C_23  and  N_24
REMARK   12  A    between atoms: C_35  and  C_37
REMARK   13  A    between atoms: N_39  and  C_40
REMARK   14  A    between atoms: C_40  and  C_41
REMARK   15  A    between atoms: C_40  and  C_42
REMARK   16  A    between atoms: C_40  and  C_43
REMARK   17  A    between atoms: C_45  and  S_46
REMARK   18  A    between atoms: S_46  and  O_49
REMARK                            x       y       z     vdW  Elec       q    Type
REMARK                         _______ _______ _______ _____ _____    ______ ____
ROOT
ATOM      1  C   UNL     1       0.256   3.672  -0.334  0.00  0.00    +0.113 C 
ENDROOT
BRANCH   1   3
ATOM      2  C   UNL     1       2.393   2.497  -1.141  0.00  0.00    +0.245 C 
ATOM      3  N   UNL     1       1.081   2.465  -0.679  0.00  0.00    -0.305 N 
ATOM      4  H   UNL     1       0.767   1.577  -0.313  0.00  0.00    +0.149 HD
ATOM      5  O   UNL     1       3.031   3.529  -1.290  0.00  0.00    -0.270 OA
BRANCH   2  12
ATOM      6  C   UNL     1       5.409   1.983  -0.912  0.00  0.00    +0.048 C 
ATOM      7  C   UNL     1       4.429   0.996  -1.492  0.00  0.00    +0.003 A 
ATOM      8  C   UNL     1       4.954  -0.171  -2.073  0.00  0.00    +0.120 A 
ATOM      9  C   UNL     1       4.143  -1.167  -2.607  0.00  0.00    +0.046 A 
ATOM     10  C   UNL     1       2.763  -0.996  -2.591  0.00  0.00    +0.004 A 
ATOM     11  C   UNL     1       2.209   0.178  -2.069  0.00  0.00    +0.013 A 
ATOM     12  C   UNL     1       3.027   1.189  -1.526  0.00  0.00    +0.043 A 
BRANCH   8  13
ATOM     13  O   UNL     1       6.311  -0.332  -2.120  0.00  0.00    -0.506 OA
ATOM     14  H   UNL     1       6.541  -0.498  -3.053  0.00  0.00    +0.292 HD
ENDBRANCH   8  13
ENDBRANCH   2  12
ENDBRANCH   1   3
BRANCH   1  15
ATOM     15  C   UNL     1      -1.268   3.273  -0.233  0.00  0.00    +0.149 C 
BRANCH  15  16
ATOM     16  O   UNL     1      -2.135   4.404  -0.137  0.00  0.00    -0.389 OA
ATOM     17  H   UNL     1      -1.797   4.995   0.564  0.00  0.00    +0.210 HD
ENDBRANCH  15  16
BRANCH  15  18
ATOM     18  C   UNL     1      -1.685   2.292   0.923  0.00  0.00    +0.118 C 
BRANCH  18  19
ATOM     19  N   UNL     1      -3.142   2.011   0.934  0.00  0.00    -0.289 NA
ATOM     20  C   UNL     1      -3.702   1.186   2.038  0.00  0.00    +0.143 C 
ATOM     21  C   UNL     1      -3.615  -0.333   1.781  0.00  0.00    +0.032 C 
ATOM     22  C   UNL     1      -4.196  -0.749   0.426  0.00  0.00    -0.005 C 
ATOM     23  C   UNL     1      -3.550   0.057  -0.695  0.00  0.00    +0.006 C 
ATOM     24  C   UNL     1      -2.134  -0.420  -1.079  0.00  0.00    +0.005 C 
ATOM     25  C   UNL     1      -1.623  -1.760  -0.522  0.00  0.00    +0.000 C 
ATOM     26  C   UNL     1      -2.607  -2.691   0.185  0.00  0.00    +0.000 C 
ATOM     27  C   UNL     1      -4.053  -2.239   0.128  0.00  0.00    +0.004 C 
ATOM     28  C   UNL     1      -3.699   1.560  -0.361  0.00  0.00    +0.089 C 
BRANCH  20  29
ATOM     29  C   UNL     1      -3.141   1.479   3.451  0.00  0.00    +0.231 C 
ATOM     30  N   UNL     1      -3.362   2.746   3.954  0.00  0.00    -0.309 N 
ATOM     31  H   UNL     1      -3.728   3.439   3.308  0.00  0.00    +0.149 HD
ATOM     32  O   UNL     1      -2.607   0.593   4.121  0.00  0.00    -0.274 OA
BRANCH  30  33
ATOM     33  C   UNL     1      -3.193   3.097   5.383  0.00  0.00    +0.026 C 
ATOM     34  C   UNL     1      -4.176   2.293   6.259  0.00  0.00    +0.031 C 
ATOM     35  C   UNL     1      -3.505   4.592   5.584  0.00  0.00    +0.031 C 
ATOM     36  C   UNL     1      -1.754   2.846   5.868  0.00  0.00    +0.031 C 
ENDBRANCH  30  33
ENDBRANCH  20  29
ENDBRANCH  18  19
ENDBRANCH  15  18
ENDBRANCH   1  15
BRANCH   1  37
ATOM     37  C   UNL     1       0.449   4.825  -1.382  0.00  0.00    +0.099 C 
BRANCH  37  38
ATOM     38  S   UNL     1      -0.301   6.448  -0.941  0.00  0.00    -0.123 S 
BRANCH  38  39
ATOM     39  C   UNL     1       0.015   7.339  -2.453  0.00  0.00    +0.008 A 
ATOM     40  C   UNL     1       1.316   7.748  -2.761  0.00  0.00    +0.015 A 
ATOM     41  C   UNL     1       1.569   8.483  -3.919  0.00  0.00    +0.001 A 
ATOM     42  C   UNL     1       0.523   8.814  -4.778  0.00  0.00    +0.000 A 
ATOM     43  C   UNL     1      -0.777   8.410  -4.478  0.00  0.00    +0.001 A 
ATOM     44  C   UNL     1      -1.032   7.677  -3.314  0.00  0.00    +0.015 A 
ENDBRANCH  38  39
ENDBRANCH  37  38
ENDBRANCH   1  37
TORSDOF 12
REMARK  Name = 
REMARK  18 active torsions:
REMARK  status: ('A' for Active; 'I' for Inactive)
REMARK    1  A    between atoms: C_1  and  C_2
REMARK    2  A    between atoms: C_3  and  C_9
REMARK    3  A    between atoms: C_7  and  O_8
REMARK    4  A    between atoms: N_11  and  C_12
REMARK    5  A    between atoms: C_12  and  C_14
REMARK    6  A    between atoms: C_12  and  C_22
REMARK    7  A    between atoms: C_14  and  S_15
REMARK    8  A    between atoms: S_15  and  C_16
REMARK    9  A    between atoms: C_22  and  C_23
REMARK   10  A    between atoms: C_22  and  O_44
REMARK   11  A    between atoms: C_23  and  N_24
REMARK   12  A    between atoms: C_35  and  C_37
REMARK   13  A    between atoms: N_39  and  C_40
REMARK   14  A    between atoms: C_40  and  C_41
REMARK   15  A    between atoms: C_40  and  C_42
REMARK   16  A    between atoms: C_40  and  C_43
REMARK   17  A    between atoms: C_45  and  S_46
REMARK   18  A    between atoms: S_46  and  O_49
REMARK                            x       y       z     vdW  Elec       q    Type
REMARK                         _______ _______ _______ _____ _____    ______ ____
ROOT
ATOM      1  C   UNL     1       1.803  -0.146   1.877  0.00  0.00    +0.228 C 
ATOM      2  S   UNL     1       3.262  -1.062   2.330  0.00  0.00    +0.077 S 
ATOM      3  O   UNL     1       2.884  -2.398   2.712  0.00  0.00    -0.148 OA
ATOM      4  O   UNL     1       4.121  -0.218   3.127  0.00  0.00    -0.148 OA
ENDROOT
BRANCH   2   5
ATOM      5  O   UNL     1       3.928  -1.122   0.869  0.00  0.00    -0.254 OA
ATOM      6  H   UNL     1       4.693  -0.513   0.821  0.00  0.00    +0.244 HD
ENDBRANCH   2   5
TORSDOF 1
