REMARK  Name = 
REMARK  13 active torsions:
REMARK  status: ('A' for Active; 'I' for Inactive)
REMARK    1  A    between atoms: C_1  and  C_2
REMARK    2  A    between atoms: C_3  and  O_51
REMARK    3  A    between atoms: C_9  and  C_43
REMARK    4  A    between atoms: C_11  and  O_12
REMARK    5  A    between atoms: O_12  and  C_13
REMARK    6  A    between atoms: N_20  and  C_42
REMARK    7  A    between atoms: C_29  and  C_33
REMARK    8  A    between atoms: N_35  and  S_36
REMARK    9  A    between atoms: S_36  and  C_39
REMARK   10  A    between atoms: C_45  and  C_48
REMARK   11  A    between atoms: C_48  and  C_49
REMARK   12  A    between atoms: C_48  and  C_50
REMARK   13  A    between atoms: O_51  and  C_52
REMARK                            x       y       z     vdW  Elec       q    Type
REMARK                         _______ _______ _______ _____ _____    ______ ____
ROOT
ATOM      1  C   UNL     1       7.100  -3.599   0.535  0.00  0.00    +0.175 C 
ATOM      2  C   UNL     1       7.222  -5.142   0.521  0.00  0.00    +0.058 C 
ATOM      3  C   UNL     1       8.457  -5.352   1.450  0.00  0.00    +0.091 C 
ATOM      4  C   UNL     1       7.963  -5.091   2.911  0.00  0.00    +0.219 C 
ATOM      5  N   UNL     1       8.523  -4.048   3.658  0.00  0.00    -0.304 N 
ATOM      6  C   UNL     1       9.058  -4.527   4.925  0.00  0.00    +0.132 C 
ATOM      7  C   UNL     1       7.682  -2.849   3.877  0.00  0.00    +0.107 C 
ATOM      8  C   UNL     1       8.504  -1.577   4.100  0.00  0.00    +0.019 C 
ATOM      9  C   UNL     1       7.869  -0.332   3.448  0.00  0.00    +0.006 C 
ATOM     10  C   UNL     1       8.896   0.561   2.742  0.00  0.00    +0.027 C 
ATOM     11  C   UNL     1       9.471  -0.007   1.455  0.00  0.00    -0.031 C 
ATOM     12  C   UNL     1      10.727  -0.488   1.411  0.00  0.00    -0.025 C 
ATOM     13  C   UNL     1      11.592  -0.868   0.279  0.00  0.00    +0.046 C 
ATOM     14  C   UNL     1      12.058  -2.214  -0.315  0.00  0.00    +0.119 C 
ATOM     15  N   UNL     1      11.210  -3.364  -0.237  0.00  0.00    -0.301 N 
ATOM     16  H   UNL     1      10.626  -3.462  -1.068  0.00  0.00    +0.150 HD
ATOM     17  C   UNL     1      10.803  -4.074   0.889  0.00  0.00    +0.218 C 
ATOM     18  O   UNL     1      11.475  -4.345   1.867  0.00  0.00    -0.275 OA
ATOM     19  C   UNL     1      12.799  -1.619   0.831  0.00  0.00    +0.046 C 
ATOM     20  O   UNL     1       7.090  -5.812   3.389  0.00  0.00    -0.275 OA
ATOM     21  C   UNL     1       9.358  -4.423   0.664  0.00  0.00    +0.090 C 
ATOM     22  C   UNL     1       8.542  -3.138   0.540  0.00  0.00    +0.058 C 
ENDROOT
BRANCH  14  23
ATOM     23  C   UNL     1      12.751  -2.118  -1.668  0.00  0.00    +0.256 C 
ATOM     24  N   UNL     1      14.042  -2.630  -1.689  0.00  0.00    -0.188 N 
ATOM     25  H   UNL     1      14.413  -3.139  -0.894  0.00  0.00    +0.176 HD
ATOM     26  O   UNL     1      12.171  -1.638  -2.628  0.00  0.00    -0.272 OA
BRANCH  24  27
ATOM     27  S   UNL     1      15.071  -2.525  -2.976  0.00  0.00    +0.048 S 
ATOM     28  O   UNL     1      14.710  -3.564  -3.908  0.00  0.00    -0.155 OA
ATOM     29  O   UNL     1      16.394  -2.478  -2.411  0.00  0.00    -0.155 OA
BRANCH  27  30
ATOM     30  C   UNL     1      14.755  -0.944  -3.812  0.00  0.00    +0.151 C 
ATOM     31  C   UNL     1      15.941  -0.045  -4.018  0.00  0.00    +0.030 C 
ATOM     32  C   UNL     1      14.954   0.260  -2.925  0.00  0.00    +0.030 C 
ENDBRANCH  27  30
ENDBRANCH  24  27
ENDBRANCH  14  23
BRANCH   1  33
ATOM     33  O   UNL     1       6.427  -2.878  -0.495  0.00  0.00    -0.488 OA
BRANCH  33  40
ATOM     34  C   UNL     1       0.884  -0.199  -0.439  0.00  0.00    +0.050 C 
ATOM     35  C   UNL     1       2.393  -0.178  -0.525  0.00  0.00    +0.017 A 
ATOM     36  C   UNL     1       3.074  -1.365  -0.227  0.00  0.00    +0.082 A 
ATOM     37  N   UNL     1       2.352  -2.451   0.154  0.00  0.00    -0.244 NA
ATOM     38  C   UNL     1       3.008  -3.608   0.399  0.00  0.00    +0.100 A 
ATOM     39  C   UNL     1       4.357  -3.717   0.239  0.00  0.00    +0.076 A 
ATOM     40  C   UNL     1       5.110  -2.640  -0.175  0.00  0.00    +0.132 A 
ATOM     41  C   UNL     1       4.484  -1.398  -0.376  0.00  0.00    +0.043 A 
ATOM     42  C   UNL     1       5.173  -0.215  -0.715  0.00  0.00    +0.017 A 
ATOM     43  C   UNL     1       4.478   0.970  -0.978  0.00  0.00    +0.047 A 
ATOM     44  C   UNL     1       3.086   0.986  -0.918  0.00  0.00    +0.125 A 
BRANCH  38  45
ATOM     45  C   UNL     1       2.302  -4.849   0.711  0.00  0.00    +0.127 A 
ATOM     46  S   UNL     1       0.618  -5.062   0.517  0.00  0.00    -0.074 S 
ATOM     47  C   UNL     1       0.802  -6.742   0.844  0.00  0.00    +0.070 A 
ATOM     48  C   UNL     1       2.119  -7.036   1.105  0.00  0.00    +0.052 A 
ATOM     49  N   UNL     1       2.957  -5.957   1.058  0.00  0.00    -0.242 NA
BRANCH  48  50
ATOM     50  C   UNL     1       2.718  -8.392   1.431  0.00  0.00    +0.032 C 
ATOM     51  C   UNL     1       3.331  -8.406   2.834  0.00  0.00    +0.014 C 
ATOM     52  C   UNL     1       3.766  -8.825   0.401  0.00  0.00    +0.014 C 
ENDBRANCH  48  50
ENDBRANCH  38  45
BRANCH  44  53
ATOM     53  O   UNL     1       2.305   2.071  -1.220  0.00  0.00    -0.495 OA
ATOM     54  C   UNL     1       2.936   3.234  -1.740  0.00  0.00    +0.277 C 
ENDBRANCH  44  53
ENDBRANCH  33  40
ENDBRANCH   1  33
TORSDOF 8
