REMARK  Name = 
REMARK  3 active torsions:
REMARK  status: ('A' for Active; 'I' for Inactive)
REMARK    1  A    between atoms: C_2  and  N_10
REMARK    2  A    between atoms: C_5  and  C_8
REMARK    3  A    between atoms: C_8  and  O_9
REMARK                            x       y       z     vdW  Elec       q    Type
REMARK                         _______ _______ _______ _____ _____    ______ ____
ROOT
ATOM      1  N   UNL     1      -1.305   0.376   1.819  0.00  0.00    -0.272 N 
ATOM      2  C   UNL     1      -1.599   1.621   2.401  0.00  0.00    +0.352 A 
ATOM      3  O   UNL     1      -1.804   2.618   1.711  0.00  0.00    -0.244 OA
ATOM      4  N   UNL     1      -1.633   1.712   3.772  0.00  0.00    -0.178 NA
ATOM      5  C   UNL     1      -1.484   0.650   4.498  0.00  0.00    +0.123 A 
ATOM      6  N   UNL     1      -1.484   0.813   5.853  0.00  0.00    -0.343 N 
ATOM      7  H   UNL     1      -1.814   1.728   6.142  0.00  0.00    +0.144 HD
ATOM      8  H   UNL     1      -1.812   0.051   6.431  0.00  0.00    +0.144 HD
ATOM      9  C   UNL     1      -1.319  -0.697   3.927  0.00  0.00    +0.061 A 
ATOM     10  C   UNL     1      -1.224  -0.758   2.601  0.00  0.00    +0.096 A 
ENDROOT
BRANCH   1  15
ATOM     11  C   UNL     1      -0.912  -0.978  -0.352  0.00  0.00    +0.126 C 
ATOM     12  S   UNL     1       0.844  -1.338  -0.112  0.00  0.00    -0.123 S 
ATOM     13  C   UNL     1       1.230   0.419   0.095  0.00  0.00    +0.203 C 
ATOM     14  O   UNL     1       0.015   1.183   0.023  0.00  0.00    -0.340 OA
ATOM     15  C   UNL     1      -1.123   0.364   0.363  0.00  0.00    +0.235 C 
BRANCH  13  16
ATOM     16  C   UNL     1       1.953   0.736   1.413  0.00  0.00    +0.198 C 
BRANCH  16  17
ATOM     17  O   UNL     1       2.281   2.129   1.470  0.00  0.00    -0.392 OA
ATOM     18  H   UNL     1       1.445   2.612   1.312  0.00  0.00    +0.210 HD
ENDBRANCH  16  17
ENDBRANCH  13  16
ENDBRANCH   1  15
TORSDOF 3
