REMARK  Name = 
REMARK  24 active torsions:
REMARK  status: ('A' for Active; 'I' for Inactive)
REMARK    1  A    between atoms: C_1  and  C_2
REMARK    2  A    between atoms: C_2  and  C_3
REMARK    3  A    between atoms: C_2  and  C_4
REMARK    4  A    between atoms: C_6  and  C_9
REMARK    5  A    between atoms: C_9  and  N_10
REMARK    6  A    between atoms: N_10  and  C_11
REMARK    7  A    between atoms: N_14  and  C_15
REMARK    8  A    between atoms: C_15  and  C_16
REMARK    9  A    between atoms: C_15  and  C_19
REMARK   10  A    between atoms: C_16  and  C_17
REMARK   11  A    between atoms: C_16  and  C_18
REMARK   12  A    between atoms: N_21  and  C_22
REMARK   13  A    between atoms: C_22  and  C_24
REMARK   14  A    between atoms: C_22  and  C_31
REMARK   15  A    between atoms: C_24  and  C_25
REMARK   16  A    between atoms: C_31  and  C_32
REMARK   17  A    between atoms: C_32  and  C_33
REMARK   18  A    between atoms: C_32  and  O_52
REMARK   19  A    between atoms: C_33  and  C_35
REMARK   20  A    between atoms: C_33  and  N_42
REMARK   21  A    between atoms: C_35  and  C_36
REMARK   22  A    between atoms: C_43  and  O_45
REMARK   23  A    between atoms: O_45  and  C_46
REMARK   24  A    between atoms: C_46  and  C_47
REMARK                            x       y       z     vdW  Elec       q    Type
REMARK                         _______ _______ _______ _____ _____    ______ ____
ROOT
ATOM      1  C   UNL     1       5.306   8.920   9.124  0.00  0.00    +0.080 C 
ENDROOT
BRANCH   1   3
ATOM      2  C   UNL     1       3.415   8.350   7.569  0.00  0.00    +0.234 C 
ATOM      3  N   UNL     1       4.580   9.054   7.862  0.00  0.00    -0.311 N 
ATOM      4  H   UNL     1       5.037   9.518   7.081  0.00  0.00    +0.149 HD
ATOM      5  O   UNL     1       2.910   7.564   8.368  0.00  0.00    -0.274 OA
BRANCH   2   6
ATOM      6  C   UNL     1       2.879   8.540   6.111  0.00  0.00    +0.163 C 
BRANCH   6   9
ATOM      7  N   UNL     1       3.596  11.694   4.291  0.00  0.00    -0.283 N 
ATOM      8  C   UNL     1       3.008  10.451   4.476  0.00  0.00    +0.303 C 
ATOM      9  N   UNL     1       3.316   9.882   5.689  0.00  0.00    -0.288 N 
ATOM     10  H   UNL     1       3.247  10.560   6.437  0.00  0.00    +0.151 HD
ATOM     11  O   UNL     1       2.299   9.904   3.641  0.00  0.00    -0.253 OA
ATOM     12  C   UNL     1       4.527  12.292   5.238  0.00  0.00    +0.134 C 
BRANCH   7  13
ATOM     13  C   UNL     1       3.202  12.503   3.137  0.00  0.00    +0.164 C 
BRANCH  13  17
ATOM     14  C   UNL     1       6.026  13.753   1.218  0.00  0.00    +0.081 A 
ATOM     15  S   UNL     1       5.926  12.379   0.185  0.00  0.00    -0.080 S 
ATOM     16  C   UNL     1       4.624  11.777   1.118  0.00  0.00    +0.071 A 
ATOM     17  C   UNL     1       4.327  12.648   2.150  0.00  0.00    +0.066 A 
ATOM     18  N   UNL     1       5.147  13.777   2.201  0.00  0.00    -0.247 NA
BRANCH  14  20
ATOM     19  C   UNL     1       6.438  16.188   0.777  0.00  0.00    +0.014 C 
ATOM     20  C   UNL     1       7.074  14.810   0.965  0.00  0.00    +0.038 C 
ATOM     21  C   UNL     1       8.093  14.839   2.105  0.00  0.00    +0.014 C 
ENDBRANCH  14  20
ENDBRANCH  13  17
ENDBRANCH   7  13
ENDBRANCH   6   9
BRANCH   6  22
ATOM     22  C   UNL     1       3.341   7.413   5.147  0.00  0.00    +0.012 C 
ATOM     23  C   UNL     1       2.846   6.027   5.575  0.00  0.00    +0.009 C 
ATOM     24  C   UNL     1       4.854   7.384   4.952  0.00  0.00    +0.009 C 
ENDBRANCH   6  22
ENDBRANCH   2   6
ENDBRANCH   1   3
BRANCH   1  25
ATOM     25  C   UNL     1       5.395  10.238   9.910  0.00  0.00    +0.055 C 
BRANCH  25  26
ATOM     26  C   UNL     1       4.078  10.943  10.275  0.00  0.00    +0.137 C 
BRANCH  26  27
ATOM     27  O   UNL     1       4.430  12.177  10.935  0.00  0.00    -0.390 OA
ATOM     28  H   UNL     1       4.965  11.972  11.720  0.00  0.00    +0.210 HD
ENDBRANCH  26  27
BRANCH  26  29
ATOM     29  C   UNL     1       3.017  10.173  11.131  0.00  0.00    +0.109 C 
BRANCH  29  30
ATOM     30  N   UNL     1       1.801  10.990  11.246  0.00  0.00    -0.275 N 
ATOM     31  H   UNL     1       1.536  11.404  12.126  0.00  0.00    +0.152 HD
ATOM     32  C   UNL     1       1.019  11.310  10.177  0.00  0.00    +0.401 C 
ATOM     33  O   UNL     1       1.182  10.894   9.037  0.00  0.00    -0.226 OA
BRANCH  32  34
ATOM     34  O   UNL     1       0.057  12.174  10.562  0.00  0.00    -0.445 OA
BRANCH  34  35
ATOM     35  C   UNL     1      -0.858  12.569   9.531  0.00  0.00    +0.278 C 
BRANCH  35  36
ATOM     36  C   UNL     1      -0.322  13.782   8.847  0.00  0.00    +0.046 A 
ATOM     37  S   UNL     1      -0.753  15.366   9.347  0.00  0.00    -0.077 S 
ATOM     38  C   UNL     1       0.145  16.008   8.034  0.00  0.00    +0.156 A 
ATOM     39  N   UNL     1       0.775  15.134   7.280  0.00  0.00    -0.255 NA
ATOM     40  C   UNL     1       0.515  13.861   7.750  0.00  0.00    +0.125 A 
ENDBRANCH  35  36
ENDBRANCH  34  35
ENDBRANCH  32  34
ENDBRANCH  29  30
BRANCH  29  41
ATOM     41  C   UNL     1       3.518   9.790  12.549  0.00  0.00    +0.060 C 
BRANCH  41  42
ATOM     42  C   UNL     1       2.464   9.142  13.434  0.00  0.00    -0.046 A 
ATOM     43  C   UNL     1       2.097   9.731  14.657  0.00  0.00    +0.004 A 
ATOM     44  C   UNL     1       1.095   9.163  15.452  0.00  0.00    +0.000 A 
ATOM     45  C   UNL     1       0.455   7.999  15.039  0.00  0.00    +0.000 A 
ATOM     46  C   UNL     1       0.826   7.392  13.841  0.00  0.00    +0.000 A 
ATOM     47  C   UNL     1       1.828   7.955  13.045  0.00  0.00    +0.004 A 
ENDBRANCH  41  42
ENDBRANCH  29  41
ENDBRANCH  26  29
ENDBRANCH  25  26
ENDBRANCH   1  25
BRANCH   1  48
ATOM     48  C   UNL     1       6.713   8.289   8.916  0.00  0.00    +0.057 C 
BRANCH  48  49
ATOM     49  C   UNL     1       7.714   8.954   7.986  0.00  0.00    -0.046 A 
ATOM     50  C   UNL     1       7.938   8.426   6.705  0.00  0.00    +0.004 A 
ATOM     51  C   UNL     1       8.959   8.910   5.883  0.00  0.00    +0.000 A 
ATOM     52  C   UNL     1       9.791   9.926   6.337  0.00  0.00    +0.000 A 
ATOM     53  C   UNL     1       9.575  10.480   7.597  0.00  0.00    +0.000 A 
ATOM     54  C   UNL     1       8.539  10.004   8.414  0.00  0.00    +0.004 A 
ENDBRANCH  48  49
ENDBRANCH   1  48
TORSDOF 19
