REMARK  Name = 
REMARK  3 active torsions:
REMARK  status: ('A' for Active; 'I' for Inactive)
REMARK    1  A    between atoms: C_2  and  N_10
REMARK    2  A    between atoms: C_5  and  C_8
REMARK    3  A    between atoms: C_8  and  O_9
REMARK                            x       y       z     vdW  Elec       q    Type
REMARK                         _______ _______ _______ _____ _____    ______ ____
ROOT
ATOM      1  N   UNL     1      -1.290   0.367   1.811  0.00  0.00    -0.272 N 
ATOM      2  C   UNL     1      -1.587   1.609   2.398  0.00  0.00    +0.352 A 
ATOM      3  O   UNL     1      -1.795   2.608   1.713  0.00  0.00    -0.244 OA
ATOM      4  N   UNL     1      -1.624   1.693   3.770  0.00  0.00    -0.178 NA
ATOM      5  C   UNL     1      -1.472   0.628   4.492  0.00  0.00    +0.123 A 
ATOM      6  N   UNL     1      -1.477   0.786   5.847  0.00  0.00    -0.343 N 
ATOM      7  H   UNL     1      -1.809   1.700   6.138  0.00  0.00    +0.144 HD
ATOM      8  H   UNL     1      -1.810   0.022   6.420  0.00  0.00    +0.144 HD
ATOM      9  C   UNL     1      -1.301  -0.715   3.914  0.00  0.00    +0.061 A 
ATOM     10  C   UNL     1      -1.204  -0.771   2.588  0.00  0.00    +0.096 A 
ENDROOT
BRANCH   1  15
ATOM     11  C   UNL     1      -0.919  -0.976  -0.370  0.00  0.00    +0.126 C 
ATOM     12  S   UNL     1       0.838  -1.346  -0.156  0.00  0.00    -0.123 S 
ATOM     13  C   UNL     1       1.234   0.406   0.067  0.00  0.00    +0.203 C 
ATOM     14  O   UNL     1       0.023   1.178   0.014  0.00  0.00    -0.340 OA
ATOM     15  C   UNL     1      -1.116   0.361   0.354  0.00  0.00    +0.235 C 
BRANCH  13  16
ATOM     16  C   UNL     1       1.969   0.703   1.382  0.00  0.00    +0.198 C 
BRANCH  16  17
ATOM     17  O   UNL     1       2.296   2.096   1.458  0.00  0.00    -0.392 OA
ATOM     18  H   UNL     1       1.460   2.580   1.301  0.00  0.00    +0.210 HD
ENDBRANCH  16  17
ENDBRANCH  13  16
ENDBRANCH   1  15
TORSDOF 3
