REMARK  Name = 
REMARK  7 active torsions:
REMARK  status: ('A' for Active; 'I' for Inactive)
REMARK    1  A    between atoms: C_1  and  O_2
REMARK    2  A    between atoms: O_2  and  C_3
REMARK    3  A    between atoms: C_3  and  O_5
REMARK    4  A    between atoms: O_5  and  C_6
REMARK    5  A    between atoms: C_6  and  O_7
REMARK    6  A    between atoms: O_7  and  C_8
REMARK    7  A    between atoms: N_19  and  C_25
REMARK                            x       y       z     vdW  Elec       q    Type
REMARK                         _______ _______ _______ _____ _____    ______ ____
ROOT
ATOM      1  C   UNL     1       7.304   0.044  -3.079  0.00  0.00    +0.201 A 
ATOM      2  C   UNL     1       7.723   1.374  -3.639  0.00  0.00    +0.224 A 
ATOM      3  O   UNL     1       7.611   2.434  -3.031  0.00  0.00    -0.284 OA
ATOM      4  C   UNL     1       8.234   1.404  -5.012  0.00  0.00    +0.074 A 
ATOM      5  C   UNL     1       8.385   0.241  -5.647  0.00  0.00    +0.113 A 
ATOM      6  N   UNL     1       8.217  -1.016  -5.096  0.00  0.00    -0.260 N 
ATOM      7  N   UNL     1       8.982  -2.284  -5.580  0.00  0.00    -0.236 N 
ATOM      8  C   UNL     1       7.948  -3.373  -5.419  0.00  0.00    +0.206 C 
ATOM      9  N   UNL     1       7.638  -3.480  -3.983  0.00  0.00    -0.272 N 
ATOM     10  C   UNL     1       8.146  -4.586  -3.175  0.00  0.00    +0.138 C 
ATOM     11  C   UNL     1       8.602  -5.844  -3.904  0.00  0.00    +0.179 C 
ATOM     12  O   UNL     1       9.021  -5.611  -5.243  0.00  0.00    -0.375 OA
ATOM     13  C   UNL     1       7.221  -2.390  -3.249  0.00  0.00    +0.270 C 
ATOM     14  O   UNL     1       6.677  -2.546  -2.158  0.00  0.00    -0.268 OA
ATOM     15  C   UNL     1       8.063  -4.823  -5.961  0.00  0.00    +0.203 C 
ATOM     16  C   UNL     1       7.590  -1.056  -3.823  0.00  0.00    +0.169 A 
ENDROOT
BRANCH   7  17
ATOM     17  C   UNL     1       9.539  -2.149  -7.023  0.00  0.00    +0.155 C 
ATOM     18  C   UNL     1      10.442  -0.924  -7.292  0.00  0.00    -0.008 A 
ATOM     19  C   UNL     1      10.306  -0.232  -8.520  0.00  0.00    +0.014 A 
ATOM     20  C   UNL     1      10.918   1.008  -8.713  0.00  0.00    +0.015 A 
ATOM     21  C   UNL     1      11.720   1.546  -7.709  0.00  0.00    +0.001 A 
ATOM     22  C   UNL     1      11.948   0.824  -6.536  0.00  0.00    +0.000 A 
ATOM     23  S   UNL     1       9.303  -0.907  -9.833  0.00  0.00    -0.120 S 
ATOM     24  C   UNL     1      10.291  -2.382 -10.146  0.00  0.00    +0.112 C 
ATOM     25  C   UNL     1      10.433  -3.467  -9.089  0.00  0.00    +0.006 A 
ATOM     26  C   UNL     1      10.945  -4.678  -9.603  0.00  0.00    +0.163 A 
ATOM     27  F   UNL     1      11.082  -4.830 -10.932  0.00  0.00    -0.202 F 
ATOM     28  C   UNL     1      11.340  -5.715  -8.775  0.00  0.00    +0.159 A 
ATOM     29  F   UNL     1      11.751  -6.879  -9.295  0.00  0.00    -0.202 F 
ATOM     30  C   UNL     1      11.349  -5.529  -7.406  0.00  0.00    +0.041 A 
ATOM     31  C   UNL     1      10.890  -4.321  -6.868  0.00  0.00    +0.009 A 
ATOM     32  C   UNL     1      11.331  -0.416  -6.331  0.00  0.00    +0.007 A 
ATOM     33  C   UNL     1      10.290  -3.335  -7.674  0.00  0.00    -0.014 A 
ENDBRANCH   7  17
BRANCH   1  34
ATOM     34  O   UNL     1       6.629  -0.015  -1.873  0.00  0.00    -0.450 OA
BRANCH  34  35
ATOM     35  C   UNL     1       6.998   0.948  -0.888  0.00  0.00    +0.473 C 
BRANCH  35  36
ATOM     36  O   UNL     1       6.768   0.443   0.430  0.00  0.00    -0.397 OA
BRANCH  36  37
ATOM     37  C   UNL     1       7.769  -0.344   0.861  0.00  0.00    +0.513 C 
ATOM     38  O   UNL     1       8.792  -0.642   0.261  0.00  0.00    -0.203 OA
BRANCH  37  40
ATOM     39  C   UNL     1       8.489  -1.528   2.737  0.00  0.00    +0.284 C 
ATOM     40  O   UNL     1       7.484  -0.711   2.144  0.00  0.00    -0.437 OA
ENDBRANCH  37  40
ENDBRANCH  36  37
ENDBRANCH  35  36
ENDBRANCH  34  35
ENDBRANCH   1  34
TORSDOF 6
