REMARK  Name = 
REMARK  7 active torsions:
REMARK  status: ('A' for Active; 'I' for Inactive)
REMARK    1  A    between atoms: C_1  and  O_2
REMARK    2  A    between atoms: O_2  and  C_3
REMARK    3  A    between atoms: C_3  and  O_5
REMARK    4  A    between atoms: O_5  and  C_6
REMARK    5  A    between atoms: C_6  and  O_7
REMARK    6  A    between atoms: O_7  and  C_8
REMARK    7  A    between atoms: N_19  and  C_25
REMARK                            x       y       z     vdW  Elec       q    Type
REMARK                         _______ _______ _______ _____ _____    ______ ____
ROOT
ATOM      1  C   UNL     1       7.290   1.092  -3.074  0.00  0.00    +0.201 A 
ATOM      2  C   UNL     1       7.436   2.521  -3.489  0.00  0.00    +0.224 A 
ATOM      3  O   UNL     1       6.975   3.470  -2.857  0.00  0.00    -0.284 OA
ATOM      4  C   UNL     1       8.129   2.797  -4.742  0.00  0.00    +0.074 A 
ATOM      5  C   UNL     1       8.476   1.755  -5.495  0.00  0.00    +0.113 A 
ATOM      6  N   UNL     1       8.434   0.414  -5.152  0.00  0.00    -0.260 N 
ATOM      7  N   UNL     1       9.423  -0.659  -5.781  0.00  0.00    -0.236 N 
ATOM      8  C   UNL     1       8.741  -2.001  -5.512  0.00  0.00    +0.206 C 
ATOM      9  N   UNL     1       8.652  -2.125  -4.030  0.00  0.00    -0.272 N 
ATOM     10  C   UNL     1       8.744  -3.420  -3.344  0.00  0.00    +0.138 C 
ATOM     11  C   UNL     1       9.390  -4.539  -4.122  0.00  0.00    +0.179 C 
ATOM     12  O   UNL     1       8.836  -4.532  -5.442  0.00  0.00    -0.375 OA
ATOM     13  C   UNL     1       7.800  -1.248  -3.376  0.00  0.00    +0.270 C 
ATOM     14  O   UNL     1       7.121  -1.607  -2.417  0.00  0.00    -0.268 OA
ATOM     15  C   UNL     1       9.290  -3.336  -6.109  0.00  0.00    +0.203 C 
ATOM     16  C   UNL     1       7.834   0.148  -3.891  0.00  0.00    +0.169 A 
ENDROOT
BRANCH   7  17
ATOM     17  C   UNL     1       9.806  -0.311  -7.272  0.00  0.00    +0.155 C 
ATOM     18  C   UNL     1      10.489   1.079  -7.450  0.00  0.00    -0.008 A 
ATOM     19  C   UNL     1      10.173   1.872  -8.565  0.00  0.00    +0.014 A 
ATOM     20  C   UNL     1      10.576   3.202  -8.628  0.00  0.00    +0.015 A 
ATOM     21  C   UNL     1      11.287   3.772  -7.574  0.00  0.00    +0.001 A 
ATOM     22  C   UNL     1      11.666   2.977  -6.489  0.00  0.00    +0.000 A 
ATOM     23  S   UNL     1       9.227   1.207  -9.926  0.00  0.00    -0.120 S 
ATOM     24  C   UNL     1      10.451   0.008 -10.461  0.00  0.00    +0.112 C 
ATOM     25  C   UNL     1      10.782  -1.180  -9.566  0.00  0.00    +0.006 A 
ATOM     26  C   UNL     1      11.485  -2.192 -10.264  0.00  0.00    +0.163 A 
ATOM     27  F   UNL     1      11.595  -2.127 -11.601  0.00  0.00    -0.202 F 
ATOM     28  C   UNL     1      12.127  -3.215  -9.597  0.00  0.00    +0.159 A 
ATOM     29  F   UNL     1      12.743  -4.192 -10.280  0.00  0.00    -0.202 F 
ATOM     30  C   UNL     1      12.211  -3.181  -8.221  0.00  0.00    +0.041 A 
ATOM     31  C   UNL     1      11.579  -2.152  -7.514  0.00  0.00    +0.009 A 
ATOM     32  C   UNL     1      11.317   1.623  -6.446  0.00  0.00    +0.007 A 
ATOM     33  C   UNL     1      10.698  -1.255  -8.135  0.00  0.00    -0.014 A 
ENDBRANCH   7  17
BRANCH   1  34
ATOM     34  O   UNL     1       6.611   0.784  -1.906  0.00  0.00    -0.450 OA
BRANCH  34  35
ATOM     35  C   UNL     1       6.674   1.741  -0.853  0.00  0.00    +0.473 C 
BRANCH  35  36
ATOM     36  O   UNL     1       6.506   1.107   0.412  0.00  0.00    -0.397 OA
BRANCH  36  37
ATOM     37  C   UNL     1       7.639   0.510   0.843  0.00  0.00    +0.513 C 
ATOM     38  O   UNL     1       8.714   0.483   0.262  0.00  0.00    -0.203 OA
BRANCH  37  40
ATOM     39  C   UNL     1       8.533  -0.648   2.646  0.00  0.00    +0.284 C 
ATOM     40  O   UNL     1       7.395  -0.014   2.071  0.00  0.00    -0.437 OA
ENDBRANCH  37  40
ENDBRANCH  36  37
ENDBRANCH  35  36
ENDBRANCH  34  35
ENDBRANCH   1  34
TORSDOF 6
