REMARK  Name = 
REMARK  4 active torsions:
REMARK  status: ('A' for Active; 'I' for Inactive)
REMARK    1  A    between atoms: C_3  and  N_13
REMARK    2  A    between atoms: C_6  and  O_12
REMARK    3  A    between atoms: C_8  and  C_10
REMARK    4  A    between atoms: C_10  and  O_11
REMARK                            x       y       z     vdW  Elec       q    Type
REMARK                         _______ _______ _______ _____ _____    ______ ____
ROOT
ATOM      1  N   UNL     1       4.063   1.514   1.568  0.00  0.00    -0.308 N 
ATOM      2  C   UNL     1       3.391   2.044   2.644  0.00  0.00    +0.170 A 
ATOM      3  N   UNL     1       2.104   2.478   2.686  0.00  0.00    -0.196 NA
ATOM      4  C   UNL     1       1.753   2.945   3.854  0.00  0.00    +0.195 A 
ATOM      5  N   UNL     1       0.512   3.462   4.040  0.00  0.00    -0.329 N 
ATOM      6  H   UNL     1       0.108   3.429   4.967  0.00  0.00    +0.145 HD
ATOM      7  H   UNL     1      -0.136   3.237   3.294  0.00  0.00    +0.145 HD
ATOM      8  N   UNL     1       2.574   2.959   4.962  0.00  0.00    -0.293 N 
ATOM      9  H   UNL     1       2.253   3.341   5.833  0.00  0.00    +0.172 HD
ATOM     10  C   UNL     1       3.892   2.526   4.967  0.00  0.00    +0.280 A 
ATOM     11  O   UNL     1       4.577   2.558   5.982  0.00  0.00    -0.265 OA
ATOM     12  C   UNL     1       4.316   2.062   3.666  0.00  0.00    +0.172 A 
ATOM     13  N   UNL     1       5.556   1.679   3.238  0.00  0.00    -0.229 NA
ATOM     14  C   UNL     1       5.375   1.391   1.965  0.00  0.00    +0.202 A 
ENDROOT
BRANCH   1  20
ATOM     15  C   UNL     1       1.221   0.136   0.194  0.00  0.00    +0.010 C 
ATOM     16  C   UNL     1       2.559   0.054   0.210  0.00  0.00    -0.046 C 
ATOM     17  C   UNL     1       3.322  -1.226  -0.090  0.00  0.00    +0.070 C 
ATOM     18  C   UNL     1       4.681  -0.720  -0.608  0.00  0.00    +0.126 C 
ATOM     19  C   UNL     1       4.507   0.787  -0.826  0.00  0.00    +0.061 C 
ATOM     20  C   UNL     1       3.507   1.240   0.247  0.00  0.00    +0.118 C 
BRANCH  18  21
ATOM     21  O   UNL     1       5.003  -1.346  -1.849  0.00  0.00    -0.391 OA
ATOM     22  H   UNL     1       5.850  -0.975  -2.154  0.00  0.00    +0.210 HD
ENDBRANCH  18  21
BRANCH  17  23
ATOM     23  C   UNL     1       3.464  -2.142   1.133  0.00  0.00    +0.166 C 
BRANCH  23  24
ATOM     24  O   UNL     1       4.183  -1.502   2.177  0.00  0.00    -0.394 OA
ATOM     25  H   UNL     1       4.095  -2.044   2.980  0.00  0.00    +0.209 HD
ENDBRANCH  23  24
ENDBRANCH  17  23
ENDBRANCH   1  20
TORSDOF 4
