REMARK  Name = 
REMARK  7 active torsions:
REMARK  status: ('A' for Active; 'I' for Inactive)
REMARK    1  A    between atoms: N_5  and  C_6
REMARK    2  A    between atoms: C_6  and  C_7
REMARK    3  A    between atoms: C_7  and  C_8
REMARK    4  A    between atoms: C_8  and  C_9
REMARK    5  A    between atoms: C_8  and  C_11
REMARK    6  A    between atoms: C_9  and  O_10
REMARK    7  A    between atoms: C_11  and  O_12
REMARK                            x       y       z     vdW  Elec       q    Type
REMARK                         _______ _______ _______ _____ _____    ______ ____
ROOT
ATOM      1  C   UNL     1       1.662  -0.012  -0.877  0.00  0.00    +0.201 A 
ATOM      2  N   UNL     1       1.524  -0.979   0.090  0.00  0.00    -0.315 N 
ATOM      3  C   UNL     1       0.757  -0.444   1.086  0.00  0.00    +0.169 A 
ATOM      4  N   UNL     1       0.376  -1.053   2.235  0.00  0.00    -0.196 NA
ATOM      5  C   UNL     1      -0.366  -0.297   3.001  0.00  0.00    +0.195 A 
ATOM      6  N   UNL     1      -0.806  -0.763   4.195  0.00  0.00    -0.329 N 
ATOM      7  H   UNL     1      -1.656  -0.380   4.585  0.00  0.00    +0.145 HD
ATOM      8  H   UNL     1      -0.720  -1.768   4.296  0.00  0.00    +0.145 HD
ATOM      9  N   UNL     1      -0.749   0.990   2.671  0.00  0.00    -0.293 N 
ATOM     10  H   UNL     1      -1.307   1.533   3.306  0.00  0.00    +0.172 HD
ATOM     11  C   UNL     1      -0.369   1.654   1.511  0.00  0.00    +0.280 A 
ATOM     12  O   UNL     1      -0.723   2.809   1.286  0.00  0.00    -0.265 OA
ATOM     13  C   UNL     1       0.462   0.831   0.659  0.00  0.00    +0.172 A 
ATOM     14  N   UNL     1       1.034   1.101  -0.558  0.00  0.00    -0.229 NA
ENDROOT
BRANCH   2  15
ATOM     15  C   UNL     1       2.027  -2.332   0.006  0.00  0.00    +0.125 C 
BRANCH  15  16
ATOM     16  C   UNL     1       3.555  -2.451  -0.033  0.00  0.00    +0.029 C 
BRANCH  16  17
ATOM     17  C   UNL     1       4.302  -1.892   1.200  0.00  0.00    +0.042 C 
BRANCH  17  18
ATOM     18  C   UNL     1       5.822  -2.029   0.992  0.00  0.00    +0.161 C 
BRANCH  18  19
ATOM     19  O   UNL     1       6.214  -3.388   0.834  0.00  0.00    -0.395 OA
ATOM     20  H   UNL     1       5.889  -3.862   1.629  0.00  0.00    +0.209 HD
ENDBRANCH  18  19
ENDBRANCH  17  18
BRANCH  17  21
ATOM     21  C   UNL     1       3.885  -2.558   2.520  0.00  0.00    +0.161 C 
BRANCH  21  22
ATOM     22  O   UNL     1       4.213  -3.944   2.531  0.00  0.00    -0.395 OA
ATOM     23  H   UNL     1       3.606  -4.396   1.917  0.00  0.00    +0.209 HD
ENDBRANCH  21  22
ENDBRANCH  17  21
ENDBRANCH  16  17
ENDBRANCH  15  16
ENDBRANCH   2  15
TORSDOF 7
