REMARK  Name = 
REMARK  7 active torsions:
REMARK  status: ('A' for Active; 'I' for Inactive)
REMARK    1  A    between atoms: N_5  and  C_6
REMARK    2  A    between atoms: C_6  and  C_7
REMARK    3  A    between atoms: C_7  and  C_8
REMARK    4  A    between atoms: C_8  and  C_9
REMARK    5  A    between atoms: C_8  and  C_11
REMARK    6  A    between atoms: C_9  and  O_10
REMARK    7  A    between atoms: C_11  and  O_12
REMARK                            x       y       z     vdW  Elec       q    Type
REMARK                         _______ _______ _______ _____ _____    ______ ____
ROOT
ATOM      1  C   UNL     1       1.660  -0.009  -0.877  0.00  0.00    +0.201 A 
ATOM      2  N   UNL     1       1.526  -0.976   0.088  0.00  0.00    -0.315 N 
ATOM      3  C   UNL     1       0.756  -0.445   1.084  0.00  0.00    +0.169 A 
ATOM      4  N   UNL     1       0.374  -1.056   2.233  0.00  0.00    -0.196 NA
ATOM      5  C   UNL     1      -0.372  -0.301   2.995  0.00  0.00    +0.195 A 
ATOM      6  N   UNL     1      -0.815  -0.772   4.189  0.00  0.00    -0.329 N 
ATOM      7  H   UNL     1      -1.679  -0.402   4.561  0.00  0.00    +0.145 HD
ATOM      8  H   UNL     1      -0.724  -1.778   4.285  0.00  0.00    +0.145 HD
ATOM      9  N   UNL     1      -0.758   0.983   2.668  0.00  0.00    -0.293 N 
ATOM     10  H   UNL     1      -1.313   1.525   3.305  0.00  0.00    +0.172 HD
ATOM     11  C   UNL     1      -0.378   1.650   1.508  0.00  0.00    +0.280 A 
ATOM     12  O   UNL     1      -0.734   2.800   1.280  0.00  0.00    -0.265 OA
ATOM     13  C   UNL     1       0.457   0.830   0.658  0.00  0.00    +0.172 A 
ATOM     14  N   UNL     1       1.029   1.104  -0.557  0.00  0.00    -0.229 NA
ENDROOT
BRANCH   2  15
ATOM     15  C   UNL     1       2.027  -2.329   0.003  0.00  0.00    +0.125 C 
BRANCH  15  16
ATOM     16  C   UNL     1       3.554  -2.450  -0.036  0.00  0.00    +0.029 C 
BRANCH  16  17
ATOM     17  C   UNL     1       4.302  -1.894   1.197  0.00  0.00    +0.042 C 
BRANCH  17  18
ATOM     18  C   UNL     1       5.822  -2.034   0.988  0.00  0.00    +0.161 C 
BRANCH  18  19
ATOM     19  O   UNL     1       6.211  -3.394   0.826  0.00  0.00    -0.395 OA
ATOM     20  H   UNL     1       5.882  -3.870   1.616  0.00  0.00    +0.209 HD
ENDBRANCH  18  19
ENDBRANCH  17  18
BRANCH  17  21
ATOM     21  C   UNL     1       3.885  -2.562   2.516  0.00  0.00    +0.161 C 
BRANCH  21  22
ATOM     22  O   UNL     1       4.208  -3.949   2.523  0.00  0.00    -0.395 OA
ATOM     23  H   UNL     1       3.589  -4.400   1.922  0.00  0.00    +0.209 HD
ENDBRANCH  21  22
ENDBRANCH  17  21
ENDBRANCH  16  17
ENDBRANCH  15  16
ENDBRANCH   2  15
TORSDOF 7
