REMARK  Name = 
REMARK  13 active torsions:
REMARK  status: ('A' for Active; 'I' for Inactive)
REMARK    1  A    between atoms: C_1  and  C_2
REMARK    2  A    between atoms: C_2  and  C_3
REMARK    3  A    between atoms: C_2  and  C_4
REMARK    4  A    between atoms: C_4  and  C_5
REMARK    5  A    between atoms: C_4  and  N_25
REMARK    6  A    between atoms: C_5  and  O_7
REMARK    7  A    between atoms: O_7  and  C_8
REMARK    8  A    between atoms: C_8  and  C_9
REMARK    9  A    between atoms: C_9  and  C_10
REMARK   10  A    between atoms: C_9  and  O_12
REMARK   11  A    between atoms: C_10  and  O_11
REMARK   12  A    between atoms: O_12  and  C_13
REMARK   13  A    between atoms: C_13  and  N_14
REMARK                            x       y       z     vdW  Elec       q    Type
REMARK                         _______ _______ _______ _____ _____    ______ ____
ROOT
ATOM      1  O   UNL     1      -1.255   2.686   4.378  0.00  0.00    -0.350 OA
ENDROOT
BRANCH   1   2
ATOM      2  C   UNL     1      -0.777   2.276   3.080  0.00  0.00    +0.183 C 
BRANCH   2   3
ATOM      3  C   UNL     1       0.758   2.266   2.985  0.00  0.00    +0.266 C 
BRANCH   3   4
ATOM      4  O   UNL     1       1.319   1.396   3.987  0.00  0.00    -0.461 OA
BRANCH   4   5
ATOM      5  C   UNL     1       2.188   0.449   3.538  0.00  0.00    +0.324 C 
ATOM      6  O   UNL     1       2.518   0.299   2.368  0.00  0.00    -0.249 OA
BRANCH   5   7
ATOM      7  C   UNL     1       2.685  -0.451   4.688  0.00  0.00    +0.163 C 
BRANCH   7   9
ATOM      8  C   UNL     1       3.893   1.465   5.864  0.00  0.00    +0.009 C 
ATOM      9  C   UNL     1       4.027   0.061   5.263  0.00  0.00    +0.010 C 
ATOM     10  C   UNL     1       4.587  -0.885   6.335  0.00  0.00    +0.009 C 
ENDBRANCH   7   9
BRANCH   7  11
ATOM     11  N   UNL     1       2.852  -1.827   4.153  0.00  0.00    -0.318 NA
ATOM     12  H   UNL     1       1.974  -2.126   3.727  0.00  0.00    +0.119 HD
ATOM     13  H   UNL     1       3.510  -1.776   3.369  0.00  0.00    +0.119 HD
ENDBRANCH   7  11
ENDBRANCH   5   7
ENDBRANCH   4   5
ENDBRANCH   3   4
ENDBRANCH   2   3
BRANCH   2  14
ATOM     14  C   UNL     1      -1.337   0.870   2.817  0.00  0.00    +0.190 C 
BRANCH  14  15
ATOM     15  O   UNL     1      -2.760   0.922   2.725  0.00  0.00    -0.392 OA
ATOM     16  H   UNL     1      -3.070   1.341   3.550  0.00  0.00    +0.210 HD
ENDBRANCH  14  15
ENDBRANCH   2  14
ENDBRANCH   1   2
BRANCH   1  17
ATOM     17  C   UNL     1      -0.961   4.052   4.686  0.00  0.00    +0.288 C 
BRANCH  17  18
ATOM     18  N   UNL     1      -1.482   4.376   5.999  0.00  0.00    -0.291 N 
ATOM     19  C   UNL     1      -1.724   5.634   6.477  0.00  0.00    +0.171 A 
ATOM     20  N   UNL     1      -1.568   6.803   5.808  0.00  0.00    -0.196 NA
ATOM     21  C   UNL     1      -1.845   7.853   6.537  0.00  0.00    +0.195 A 
ATOM     22  N   UNL     1      -1.720   9.100   6.017  0.00  0.00    -0.329 N 
ATOM     23  H   UNL     1      -2.322   9.828   6.378  0.00  0.00    +0.145 HD
ATOM     24  H   UNL     1      -1.635   9.109   5.006  0.00  0.00    +0.145 HD
ATOM     25  N   UNL     1      -2.274   7.788   7.848  0.00  0.00    -0.293 N 
ATOM     26  H   UNL     1      -2.443   8.631   8.369  0.00  0.00    +0.172 HD
ATOM     27  C   UNL     1      -2.435   6.614   8.570  0.00  0.00    +0.280 A 
ATOM     28  O   UNL     1      -2.795   6.619   9.742  0.00  0.00    -0.265 OA
ATOM     29  C   UNL     1      -2.120   5.443   7.781  0.00  0.00    +0.172 A 
ATOM     30  N   UNL     1      -2.107   4.116   8.126  0.00  0.00    -0.229 NA
ATOM     31  C   UNL     1      -1.701   3.501   7.033  0.00  0.00    +0.203 A 
ENDBRANCH  17  18
ENDBRANCH   1  17
TORSDOF 11
