REMARK  Name = 
REMARK  11 active torsions:
REMARK  status: ('A' for Active; 'I' for Inactive)
REMARK    1  A    between atoms: C_1  and  C_2
REMARK    2  A    between atoms: C_2  and  C_3
REMARK    3  A    between atoms: C_2  and  C_4
REMARK    4  A    between atoms: C_4  and  C_6
REMARK    5  A    between atoms: C_4  and  N_24
REMARK    6  A    between atoms: C_6  and  O_8
REMARK    7  A    between atoms: O_8  and  C_9
REMARK    8  A    between atoms: C_9  and  C_10
REMARK    9  A    between atoms: C_10  and  O_11
REMARK   10  A    between atoms: O_11  and  C_12
REMARK   11  A    between atoms: C_12  and  N_13
REMARK                            x       y       z     vdW  Elec       q    Type
REMARK                         _______ _______ _______ _____ _____    ______ ____
ROOT
ATOM      1  C   UNL     1      -2.658  -4.588  -2.436  0.00  0.00    +0.287 C 
ENDROOT
BRANCH   1   2
ATOM      2  N   UNL     1      -3.057  -5.616  -3.375  0.00  0.00    -0.291 N 
ATOM      3  C   UNL     1      -4.182  -5.611  -4.149  0.00  0.00    +0.171 A 
ATOM      4  N   UNL     1      -5.111  -4.628  -4.228  0.00  0.00    -0.196 NA
ATOM      5  C   UNL     1      -6.068  -4.892  -5.078  0.00  0.00    +0.195 A 
ATOM      6  N   UNL     1      -7.061  -3.992  -5.283  0.00  0.00    -0.329 N 
ATOM      7  H   UNL     1      -7.976  -4.347  -5.527  0.00  0.00    +0.145 HD
ATOM      8  H   UNL     1      -7.085  -3.261  -4.579  0.00  0.00    +0.145 HD
ATOM      9  N   UNL     1      -6.151  -6.063  -5.806  0.00  0.00    -0.293 N 
ATOM     10  H   UNL     1      -6.895  -6.198  -6.468  0.00  0.00    +0.172 HD
ATOM     11  C   UNL     1      -5.223  -7.094  -5.751  0.00  0.00    +0.280 A 
ATOM     12  O   UNL     1      -5.343  -8.109  -6.430  0.00  0.00    -0.265 OA
ATOM     13  C   UNL     1      -4.148  -6.809  -4.829  0.00  0.00    +0.172 A 
ATOM     14  N   UNL     1      -3.042  -7.550  -4.492  0.00  0.00    -0.229 NA
ATOM     15  C   UNL     1      -2.401  -6.796  -3.621  0.00  0.00    +0.203 A 
ENDBRANCH   1   2
BRANCH   1  16
ATOM     16  O   UNL     1      -1.235  -4.569  -2.359  0.00  0.00    -0.356 OA
BRANCH  16  17
ATOM     17  C   UNL     1      -0.762  -3.616  -1.406  0.00  0.00    +0.203 C 
BRANCH  17  18
ATOM     18  C   UNL     1       0.764  -3.698  -1.363  0.00  0.00    +0.260 C 
BRANCH  18  19
ATOM     19  O   UNL     1       1.197  -5.005  -0.944  0.00  0.00    -0.461 OA
BRANCH  19  20
ATOM     20  C   UNL     1       1.138  -5.242   0.394  0.00  0.00    +0.324 C 
ATOM     21  O   UNL     1       0.745  -4.438   1.233  0.00  0.00    -0.249 OA
BRANCH  20  22
ATOM     22  C   UNL     1       1.615  -6.670   0.716  0.00  0.00    +0.163 C 
BRANCH  22  24
ATOM     23  C   UNL     1      -0.768  -7.557   0.530  0.00  0.00    +0.009 C 
ATOM     24  C   UNL     1       0.483  -7.467   1.417  0.00  0.00    +0.010 C 
ATOM     25  C   UNL     1       0.916  -8.889   1.796  0.00  0.00    +0.009 C 
ENDBRANCH  22  24
BRANCH  22  26
ATOM     26  N   UNL     1       2.833  -6.558   1.547  0.00  0.00    -0.318 NA
ATOM     27  H   UNL     1       2.600  -6.043   2.399  0.00  0.00    +0.119 HD
ATOM     28  H   UNL     1       3.147  -7.480   1.841  0.00  0.00    +0.119 HD
ENDBRANCH  22  26
ENDBRANCH  20  22
ENDBRANCH  19  20
ENDBRANCH  18  19
ENDBRANCH  17  18
ENDBRANCH  16  17
ENDBRANCH   1  16
TORSDOF 9
