REMARK  Name = 
REMARK  4 active torsions:
REMARK  status: ('A' for Active; 'I' for Inactive)
REMARK    1  A    between atoms: C_3  and  N_13
REMARK    2  A    between atoms: C_6  and  O_12
REMARK    3  A    between atoms: C_8  and  C_10
REMARK    4  A    between atoms: C_10  and  O_11
REMARK                            x       y       z     vdW  Elec       q    Type
REMARK                         _______ _______ _______ _____ _____    ______ ____
ROOT
ATOM      1  N   UNL     1       3.829   1.472   1.501  0.00  0.00    -0.308 N 
ATOM      2  C   UNL     1       3.094   1.850   2.603  0.00  0.00    +0.170 A 
ATOM      3  N   UNL     1       1.751   2.047   2.678  0.00  0.00    -0.196 NA
ATOM      4  C   UNL     1       1.337   2.404   3.867  0.00  0.00    +0.195 A 
ATOM      5  N   UNL     1       0.024   2.651   4.095  0.00  0.00    -0.329 N 
ATOM      6  H   UNL     1      -0.336   2.474   5.023  0.00  0.00    +0.145 HD
ATOM      7  H   UNL     1      -0.581   2.313   3.354  0.00  0.00    +0.145 HD
ATOM      8  N   UNL     1       2.170   2.551   4.958  0.00  0.00    -0.293 N 
ATOM      9  H   UNL     1       1.801   2.859   5.841  0.00  0.00    +0.172 HD
ATOM     10  C   UNL     1       3.543   2.374   4.930  0.00  0.00    +0.280 A 
ATOM     11  O   UNL     1       4.237   2.533   5.929  0.00  0.00    -0.265 OA
ATOM     12  C   UNL     1       4.016   1.992   3.618  0.00  0.00    +0.172 A 
ATOM     13  N   UNL     1       5.289   1.759   3.183  0.00  0.00    -0.229 NA
ATOM     14  C   UNL     1       5.146   1.469   1.908  0.00  0.00    +0.202 A 
ENDROOT
BRANCH   1  20
ATOM     15  C   UNL     1       1.058   0.114   0.000  0.00  0.00    +0.010 C 
ATOM     16  C   UNL     1       2.397   0.039   0.048  0.00  0.00    -0.046 C 
ATOM     17  C   UNL     1       3.174  -1.219  -0.301  0.00  0.00    +0.070 C 
ATOM     18  C   UNL     1       4.557  -0.685  -0.717  0.00  0.00    +0.126 C 
ATOM     19  C   UNL     1       4.371   0.825  -0.899  0.00  0.00    +0.061 C 
ATOM     20  C   UNL     1       3.329   1.232   0.152  0.00  0.00    +0.118 C 
BRANCH  18  21
ATOM     21  O   UNL     1       4.959  -1.266  -1.955  0.00  0.00    -0.391 OA
ATOM     22  H   UNL     1       5.836  -0.911  -2.179  0.00  0.00    +0.210 HD
ENDBRANCH  18  21
BRANCH  17  23
ATOM     23  C   UNL     1       3.256  -2.230   0.848  0.00  0.00    +0.166 C 
BRANCH  23  24
ATOM     24  O   UNL     1       3.938  -1.708   1.983  0.00  0.00    -0.394 OA
ATOM     25  H   UNL     1       3.355  -1.046   2.397  0.00  0.00    +0.209 HD
ENDBRANCH  23  24
ENDBRANCH  17  23
ENDBRANCH   1  20
TORSDOF 4
