REMARK  Name = 
REMARK  5 active torsions:
REMARK  status: ('A' for Active; 'I' for Inactive)
REMARK    1  A    between atoms: N_5  and  C_6
REMARK    2  A    between atoms: C_6  and  O_7
REMARK    3  A    between atoms: O_7  and  C_8
REMARK    4  A    between atoms: C_8  and  C_9
REMARK    5  A    between atoms: C_9  and  O_10
REMARK                            x       y       z     vdW  Elec       q    Type
REMARK                         _______ _______ _______ _____ _____    ______ ____
ROOT
ATOM      1  C   UNL     1       2.304   0.048   0.054  0.00  0.00    +0.203 A 
ATOM      2  N   UNL     1       1.521  -1.079   0.055  0.00  0.00    -0.291 N 
ATOM      3  C   UNL     1       0.219  -0.667   0.022  0.00  0.00    +0.171 A 
ATOM      4  N   UNL     1      -0.884  -1.454  -0.036  0.00  0.00    -0.196 NA
ATOM      5  C   UNL     1      -2.001  -0.776  -0.072  0.00  0.00    +0.195 A 
ATOM      6  N   UNL     1      -3.189  -1.426  -0.155  0.00  0.00    -0.329 N 
ATOM      7  H   UNL     1      -4.017  -0.973   0.206  0.00  0.00    +0.145 HD
ATOM      8  H   UNL     1      -3.126  -2.414   0.066  0.00  0.00    +0.145 HD
ATOM      9  N   UNL     1      -2.064   0.604  -0.032  0.00  0.00    -0.293 N 
ATOM     10  H   UNL     1      -2.951   1.074  -0.084  0.00  0.00    +0.172 HD
ATOM     11  C   UNL     1      -0.960   1.443   0.008  0.00  0.00    +0.280 A 
ATOM     12  O   UNL     1      -1.077   2.665   0.010  0.00  0.00    -0.265 OA
ATOM     13  C   UNL     1       0.285   0.708   0.034  0.00  0.00    +0.172 A 
ATOM     14  N   UNL     1       1.584   1.152   0.045  0.00  0.00    -0.229 NA
ENDROOT
BRANCH   2  15
ATOM     15  C   UNL     1       2.004  -2.441   0.018  0.00  0.00    +0.287 C 
BRANCH  15  16
ATOM     16  O   UNL     1       2.848  -2.658   1.152  0.00  0.00    -0.357 OA
BRANCH  16  17
ATOM     17  C   UNL     1       3.300  -4.017   1.199  0.00  0.00    +0.190 C 
BRANCH  17  18
ATOM     18  C   UNL     1       4.158  -4.206   2.445  0.00  0.00    +0.184 C 
BRANCH  18  19
ATOM     19  O   UNL     1       3.380  -3.968   3.615  0.00  0.00    -0.393 OA
ATOM     20  H   UNL     1       3.008  -3.071   3.508  0.00  0.00    +0.209 HD
ENDBRANCH  18  19
ENDBRANCH  17  18
ENDBRANCH  16  17
ENDBRANCH  15  16
ENDBRANCH   2  15
TORSDOF 5
