REMARK  Name = 
REMARK  3 active torsions:
REMARK  status: ('A' for Active; 'I' for Inactive)
REMARK    1  A    between atoms: C_3  and  N_10
REMARK    2  A    between atoms: C_6  and  C_8
REMARK    3  A    between atoms: C_8  and  O_9
REMARK                            x       y       z     vdW  Elec       q    Type
REMARK                         _______ _______ _______ _____ _____    ______ ____
ROOT
ATOM      1  N   UNL     1      -0.128   1.462  -1.749  0.00  0.00    -0.288 N 
ATOM      2  C   UNL     1      -1.117   2.185  -2.359  0.00  0.00    +0.169 A 
ATOM      3  N   UNL     1      -2.203   2.742  -1.767  0.00  0.00    -0.218 NA
ATOM      4  C   UNL     1      -2.978   3.345  -2.620  0.00  0.00    +0.201 A 
ATOM      5  N   UNL     1      -2.758   3.430  -3.983  0.00  0.00    -0.312 N 
ATOM      6  H   UNL     1      -3.409   3.911  -4.585  0.00  0.00    +0.170 HD
ATOM      7  C   UNL     1      -1.657   2.882  -4.620  0.00  0.00    +0.279 A 
ATOM      8  O   UNL     1      -1.494   2.978  -5.833  0.00  0.00    -0.265 OA
ATOM      9  C   UNL     1      -0.771   2.208  -3.695  0.00  0.00    +0.172 A 
ATOM     10  N   UNL     1       0.416   1.566  -3.919  0.00  0.00    -0.229 NA
ATOM     11  C   UNL     1       0.794   1.159  -2.725  0.00  0.00    +0.203 A 
ENDROOT
BRANCH   1  15
ATOM     12  C   UNL     1      -0.776  -1.082   0.006  0.00  0.00    +0.038 C 
ATOM     13  C   UNL     1       0.736  -1.029   0.141  0.00  0.00    +0.146 C 
ATOM     14  O   UNL     1       1.147   0.332  -0.121  0.00  0.00    -0.351 OA
ATOM     15  C   UNL     1      -0.027   1.148  -0.333  0.00  0.00    +0.222 C 
ATOM     16  C   UNL     1      -1.189   0.350   0.241  0.00  0.00    +0.057 C 
BRANCH  13  17
ATOM     17  C   UNL     1       1.442  -1.973  -0.835  0.00  0.00    +0.187 C 
BRANCH  17  18
ATOM     18  O   UNL     1       2.854  -1.889  -0.665  0.00  0.00    -0.392 OA
ATOM     19  H   UNL     1       3.081  -0.942  -0.730  0.00  0.00    +0.210 HD
ENDBRANCH  17  18
ENDBRANCH  13  17
ENDBRANCH   1  15
TORSDOF 3
