REMARK  Name = 
REMARK  5 active torsions:
REMARK  status: ('A' for Active; 'I' for Inactive)
REMARK    1  A    between atoms: N_5  and  C_6
REMARK    2  A    between atoms: C_6  and  O_7
REMARK    3  A    between atoms: O_7  and  C_8
REMARK    4  A    between atoms: C_8  and  C_9
REMARK    5  A    between atoms: C_9  and  O_10
REMARK                            x       y       z     vdW  Elec       q    Type
REMARK                         _______ _______ _______ _____ _____    ______ ____
ROOT
ATOM      1  C   UNL     1       2.309   0.044   0.041  0.00  0.00    +0.203 A 
ATOM      2  N   UNL     1       1.525  -1.083   0.048  0.00  0.00    -0.291 N 
ATOM      3  C   UNL     1       0.224  -0.669   0.015  0.00  0.00    +0.171 A 
ATOM      4  N   UNL     1      -0.881  -1.455  -0.034  0.00  0.00    -0.196 NA
ATOM      5  C   UNL     1      -1.997  -0.776  -0.070  0.00  0.00    +0.195 A 
ATOM      6  N   UNL     1      -3.186  -1.425  -0.151  0.00  0.00    -0.329 N 
ATOM      7  H   UNL     1      -4.019  -0.969   0.193  0.00  0.00    +0.145 HD
ATOM      8  H   UNL     1      -3.128  -2.414   0.069  0.00  0.00    +0.145 HD
ATOM      9  N   UNL     1      -2.060   0.602  -0.034  0.00  0.00    -0.293 N 
ATOM     10  H   UNL     1      -2.946   1.074  -0.081  0.00  0.00    +0.172 HD
ATOM     11  C   UNL     1      -0.954   1.443  -0.001  0.00  0.00    +0.280 A 
ATOM     12  O   UNL     1      -1.072   2.664  -0.004  0.00  0.00    -0.265 OA
ATOM     13  C   UNL     1       0.291   0.707   0.025  0.00  0.00    +0.172 A 
ATOM     14  N   UNL     1       1.590   1.150   0.029  0.00  0.00    -0.229 NA
ENDROOT
BRANCH   2  15
ATOM     15  C   UNL     1       2.008  -2.445   0.015  0.00  0.00    +0.287 C 
BRANCH  15  16
ATOM     16  O   UNL     1       2.848  -2.659   1.152  0.00  0.00    -0.357 OA
BRANCH  16  17
ATOM     17  C   UNL     1       3.300  -4.018   1.202  0.00  0.00    +0.190 C 
BRANCH  17  18
ATOM     18  C   UNL     1       4.158  -4.208   2.448  0.00  0.00    +0.184 C 
BRANCH  18  19
ATOM     19  O   UNL     1       3.381  -3.969   3.619  0.00  0.00    -0.393 OA
ATOM     20  H   UNL     1       3.014  -3.070   3.514  0.00  0.00    +0.209 HD
ENDBRANCH  18  19
ENDBRANCH  17  18
ENDBRANCH  16  17
ENDBRANCH  15  16
ENDBRANCH   2  15
TORSDOF 5
