REMARK  Name = 
REMARK  11 active torsions:
REMARK  status: ('A' for Active; 'I' for Inactive)
REMARK    1  A    between atoms: C_1  and  C_2
REMARK    2  A    between atoms: C_2  and  C_3
REMARK    3  A    between atoms: C_2  and  C_4
REMARK    4  A    between atoms: C_4  and  C_6
REMARK    5  A    between atoms: C_4  and  N_24
REMARK    6  A    between atoms: C_6  and  O_8
REMARK    7  A    between atoms: O_8  and  C_9
REMARK    8  A    between atoms: C_9  and  C_10
REMARK    9  A    between atoms: C_10  and  O_11
REMARK   10  A    between atoms: O_11  and  C_12
REMARK   11  A    between atoms: C_12  and  N_13
REMARK                            x       y       z     vdW  Elec       q    Type
REMARK                         _______ _______ _______ _____ _____    ______ ____
ROOT
ATOM      1  C   UNL     1      -2.539   1.087  -3.861  0.00  0.00    +0.287 C 
ENDROOT
BRANCH   1   2
ATOM      2  N   UNL     1      -2.948  -0.098  -4.608  0.00  0.00    -0.291 N 
ATOM      3  C   UNL     1      -2.637  -1.378  -4.360  0.00  0.00    +0.171 A 
ATOM      4  N   UNL     1      -1.881  -1.875  -3.352  0.00  0.00    -0.196 NA
ATOM      5  C   UNL     1      -1.687  -3.229  -3.294  0.00  0.00    +0.195 A 
ATOM      6  N   UNL     1      -0.907  -3.780  -2.249  0.00  0.00    -0.329 N 
ATOM      7  H   UNL     1      -0.751  -4.796  -2.191  0.00  0.00    +0.145 HD
ATOM      8  H   UNL     1      -0.493  -3.169  -1.530  0.00  0.00    +0.145 HD
ATOM      9  N   UNL     1      -2.247  -4.052  -4.243  0.00  0.00    -0.293 N 
ATOM     10  H   UNL     1      -2.090  -5.084  -4.191  0.00  0.00    +0.172 HD
ATOM     11  C   UNL     1      -3.016  -3.537  -5.266  0.00  0.00    +0.280 A 
ATOM     12  O   UNL     1      -3.513  -4.267  -6.108  0.00  0.00    -0.265 OA
ATOM     13  C   UNL     1      -3.205  -2.166  -5.304  0.00  0.00    +0.172 A 
ATOM     14  N   UNL     1      -3.899  -1.414  -6.179  0.00  0.00    -0.229 NA
ATOM     15  C   UNL     1      -3.722  -0.145  -5.722  0.00  0.00    +0.203 A 
ENDBRANCH   1   2
BRANCH   1  16
ATOM     16  O   UNL     1      -1.130   1.170  -3.884  0.00  0.00    -0.356 OA
BRANCH  16  17
ATOM     17  C   UNL     1      -0.706   2.318  -3.181  0.00  0.00    +0.203 C 
BRANCH  17  18
ATOM     18  C   UNL     1       0.817   2.391  -3.220  0.00  0.00    +0.260 C 
BRANCH  18  19
ATOM     19  O   UNL     1       1.369   1.268  -2.623  0.00  0.00    -0.461 OA
BRANCH  19  20
ATOM     20  C   UNL     1       2.183   0.371  -3.245  0.00  0.00    +0.324 C 
ATOM     21  O   UNL     1       2.464   0.498  -4.429  0.00  0.00    -0.249 OA
BRANCH  20  22
ATOM     22  C   UNL     1       2.738  -0.807  -2.475  0.00  0.00    +0.163 C 
BRANCH  22  24
ATOM     23  C   UNL     1       4.829   0.498  -1.792  0.00  0.00    +0.009 C 
ATOM     24  C   UNL     1       4.301  -0.783  -2.463  0.00  0.00    +0.010 C 
ATOM     25  C   UNL     1       4.910  -1.997  -1.739  0.00  0.00    +0.009 C 
ENDBRANCH  22  24
BRANCH  22  26
ATOM     26  N   UNL     1       2.213  -2.033  -3.085  0.00  0.00    -0.318 NA
ATOM     27  H   UNL     1       2.628  -2.179  -4.035  0.00  0.00    +0.119 HD
ATOM     28  H   UNL     1       2.409  -2.864  -2.484  0.00  0.00    +0.119 HD
ENDBRANCH  22  26
ENDBRANCH  20  22
ENDBRANCH  19  20
ENDBRANCH  18  19
ENDBRANCH  17  18
ENDBRANCH  16  17
ENDBRANCH   1  16
TORSDOF 9
REMARK  Name = 
REMARK  11 active torsions:
REMARK  status: ('A' for Active; 'I' for Inactive)
REMARK    1  A    between atoms: C_1  and  C_2
REMARK    2  A    between atoms: C_2  and  C_3
REMARK    3  A    between atoms: C_2  and  C_4
REMARK    4  A    between atoms: C_4  and  C_6
REMARK    5  A    between atoms: C_4  and  N_24
REMARK    6  A    between atoms: C_6  and  O_8
REMARK    7  A    between atoms: O_8  and  C_9
REMARK    8  A    between atoms: C_9  and  C_10
REMARK    9  A    between atoms: C_10  and  O_11
REMARK   10  A    between atoms: O_11  and  C_12
REMARK   11  A    between atoms: C_12  and  N_13
REMARK                            x       y       z     vdW  Elec       q    Type
REMARK                         _______ _______ _______ _____ _____    ______ ____
ROOT
ATOM      1 CL   UNL     1      -0.600   2.063   0.837  0.00  0.00    -0.145 Cl
ATOM      2  H   UNL     1       0.759   2.048   0.627  0.00  0.00    +0.145 HD
ENDROOT
TORSDOF 0
