REMARK  Name = 
REMARK  13 active torsions:
REMARK  status: ('A' for Active; 'I' for Inactive)
REMARK    1  A    between atoms: C_1  and  C_2
REMARK    2  A    between atoms: C_2  and  C_3
REMARK    3  A    between atoms: C_2  and  C_4
REMARK    4  A    between atoms: C_4  and  C_5
REMARK    5  A    between atoms: C_4  and  N_25
REMARK    6  A    between atoms: C_5  and  O_7
REMARK    7  A    between atoms: O_7  and  C_8
REMARK    8  A    between atoms: C_8  and  C_9
REMARK    9  A    between atoms: C_9  and  C_10
REMARK   10  A    between atoms: C_9  and  O_12
REMARK   11  A    between atoms: C_10  and  O_11
REMARK   12  A    between atoms: O_12  and  C_13
REMARK   13  A    between atoms: C_13  and  N_14
REMARK                            x       y       z     vdW  Elec       q    Type
REMARK                         _______ _______ _______ _____ _____    ______ ____
ROOT
ATOM      1  O   UNL     1      -1.344   2.558  -4.483  0.00  0.00    -0.350 OA
ENDROOT
BRANCH   1   2
ATOM      2  C   UNL     1      -0.865   1.634  -3.483  0.00  0.00    +0.183 C 
BRANCH   2   3
ATOM      3  C   UNL     1       0.670   1.564  -3.411  0.00  0.00    +0.266 C 
BRANCH   3   4
ATOM      4  O   UNL     1       1.221   2.867  -3.149  0.00  0.00    -0.461 OA
BRANCH   4   5
ATOM      5  C   UNL     1       2.074   2.958  -2.093  0.00  0.00    +0.324 C 
ATOM      6  O   UNL     1       2.403   2.021  -1.375  0.00  0.00    -0.249 OA
BRANCH   5   7
ATOM      7  C   UNL     1       2.555   4.406  -1.879  0.00  0.00    +0.163 C 
BRANCH   7   9
ATOM      8  C   UNL     1       3.781   4.489  -4.117  0.00  0.00    +0.009 C 
ATOM      9  C   UNL     1       3.900   4.666  -2.599  0.00  0.00    +0.010 C 
ATOM     10  C   UNL     1       4.440   6.074  -2.308  0.00  0.00    +0.009 C 
ENDBRANCH   7   9
BRANCH   7  11
ATOM     11  N   UNL     1       2.709   4.628  -0.418  0.00  0.00    -0.318 NA
ATOM     12  H   UNL     1       1.828   4.400   0.045  0.00  0.00    +0.119 HD
ATOM     13  H   UNL     1       3.367   3.926  -0.066  0.00  0.00    +0.119 HD
ENDBRANCH   7  11
ENDBRANCH   5   7
ENDBRANCH   4   5
ENDBRANCH   3   4
ENDBRANCH   2   3
BRANCH   2  14
ATOM     14  C   UNL     1      -1.439   2.091  -2.133  0.00  0.00    +0.190 C 
BRANCH  14  15
ATOM     15  O   UNL     1      -2.861   1.967  -2.146  0.00  0.00    -0.392 OA
ATOM     16  H   UNL     1      -3.168   2.491  -2.909  0.00  0.00    +0.210 HD
ENDBRANCH  14  15
ENDBRANCH   2  14
ENDBRANCH   1   2
BRANCH   1  17
ATOM     17  C   UNL     1      -1.013   2.164  -5.816  0.00  0.00    +0.288 C 
BRANCH  17  18
ATOM     18  N   UNL     1      -1.540   3.148  -6.737  0.00  0.00    -0.291 N 
ATOM     19  C   UNL     1      -0.831   3.850  -7.672  0.00  0.00    +0.171 A 
ATOM     20  N   UNL     1       0.501   3.772  -7.915  0.00  0.00    -0.196 NA
ATOM     21  C   UNL     1       0.894   4.548  -8.890  0.00  0.00    +0.195 A 
ATOM     22  N   UNL     1       2.195   4.555  -9.275  0.00  0.00    -0.329 N 
ATOM     23  H   UNL     1       2.568   5.376  -9.730  0.00  0.00    +0.145 HD
ATOM     24  H   UNL     1       2.826   4.118  -8.612  0.00  0.00    +0.145 HD
ATOM     25  N   UNL     1       0.051   5.388  -9.590  0.00  0.00    -0.293 N 
ATOM     26  H   UNL     1       0.404   5.950 -10.344  0.00  0.00    +0.172 HD
ATOM     27  C   UNL     1      -1.320   5.482  -9.385  0.00  0.00    +0.280 A 
ATOM     28  O   UNL     1      -2.024   6.226 -10.059  0.00  0.00    -0.265 OA
ATOM     29  C   UNL     1      -1.774   4.615  -8.321  0.00  0.00    +0.172 A 
ATOM     30  N   UNL     1      -3.037   4.380  -7.838  0.00  0.00    -0.229 NA
ATOM     31  C   UNL     1      -2.861   3.483  -6.889  0.00  0.00    +0.203 A 
ENDBRANCH  17  18
ENDBRANCH   1  17
TORSDOF 11
