REMARK  Name = 
REMARK  7 active torsions:
REMARK  status: ('A' for Active; 'I' for Inactive)
REMARK    1  A    between atoms: N_5  and  C_6
REMARK    2  A    between atoms: C_6  and  O_7
REMARK    3  A    between atoms: O_7  and  C_8
REMARK    4  A    between atoms: C_8  and  C_9
REMARK    5  A    between atoms: C_8  and  C_11
REMARK    6  A    between atoms: C_9  and  O_10
REMARK    7  A    between atoms: C_11  and  O_12
REMARK                            x       y       z     vdW  Elec       q    Type
REMARK                         _______ _______ _______ _____ _____    ______ ____
ROOT
ATOM      1  C   UNL     1       1.640  -0.038  -0.869  0.00  0.00    +0.203 A 
ATOM      2  N   UNL     1       1.493  -1.023   0.074  0.00  0.00    -0.291 N 
ATOM      3  C   UNL     1       0.735  -0.506   1.086  0.00  0.00    +0.171 A 
ATOM      4  N   UNL     1       0.373  -1.135   2.229  0.00  0.00    -0.196 NA
ATOM      5  C   UNL     1      -0.325  -0.382   3.038  0.00  0.00    +0.195 A 
ATOM      6  N   UNL     1      -0.727  -0.869   4.237  0.00  0.00    -0.329 N 
ATOM      7  H   UNL     1      -1.559  -0.487   4.664  0.00  0.00    +0.145 HD
ATOM      8  H   UNL     1      -0.644  -1.877   4.318  0.00  0.00    +0.145 HD
ATOM      9  N   UNL     1      -0.692   0.917   2.748  0.00  0.00    -0.293 N 
ATOM     10  H   UNL     1      -1.214   1.459   3.416  0.00  0.00    +0.172 HD
ATOM     11  C   UNL     1      -0.341   1.596   1.588  0.00  0.00    +0.280 A 
ATOM     12  O   UNL     1      -0.685   2.759   1.391  0.00  0.00    -0.265 OA
ATOM     13  C   UNL     1       0.453   0.782   0.694  0.00  0.00    +0.172 A 
ATOM     14  N   UNL     1       1.014   1.071  -0.523  0.00  0.00    -0.229 NA
ENDROOT
BRANCH   2  15
ATOM     15  C   UNL     1       1.989  -2.378  -0.022  0.00  0.00    +0.287 C 
BRANCH  15  16
ATOM     16  O   UNL     1       3.421  -2.435  -0.009  0.00  0.00    -0.351 OA
BRANCH  16  17
ATOM     17  C   UNL     1       4.067  -1.887   1.165  0.00  0.00    +0.171 C 
BRANCH  17  18
ATOM     18  C   UNL     1       5.583  -2.020   0.942  0.00  0.00    +0.189 C 
BRANCH  18  19
ATOM     19  O   UNL     1       5.979  -1.306  -0.230  0.00  0.00    -0.392 OA
ATOM     20  H   UNL     1       5.476  -1.703  -0.964  0.00  0.00    +0.210 HD
ENDBRANCH  18  19
ENDBRANCH  17  18
BRANCH  17  21
ATOM     21  C   UNL     1       3.670  -2.607   2.462  0.00  0.00    +0.189 C 
BRANCH  21  22
ATOM     22  O   UNL     1       3.988  -3.996   2.405  0.00  0.00    -0.392 OA
ATOM     23  H   UNL     1       3.631  -4.341   1.567  0.00  0.00    +0.210 HD
ENDBRANCH  21  22
ENDBRANCH  17  21
ENDBRANCH  16  17
ENDBRANCH  15  16
ENDBRANCH   2  15
TORSDOF 7
