REMARK  Name = 
REMARK  3 active torsions:
REMARK  status: ('A' for Active; 'I' for Inactive)
REMARK    1  A    between atoms: C_3  and  N_10
REMARK    2  A    between atoms: C_6  and  C_8
REMARK    3  A    between atoms: C_8  and  O_9
REMARK                            x       y       z     vdW  Elec       q    Type
REMARK                         _______ _______ _______ _____ _____    ______ ____
ROOT
ATOM      1  N   UNL     1      -0.128   1.465  -1.743  0.00  0.00    -0.288 N 
ATOM      2  C   UNL     1      -1.117   2.194  -2.348  0.00  0.00    +0.169 A 
ATOM      3  N   UNL     1      -2.200   2.754  -1.752  0.00  0.00    -0.218 NA
ATOM      4  C   UNL     1      -2.974   3.362  -2.603  0.00  0.00    +0.201 A 
ATOM      5  N   UNL     1      -2.757   3.450  -3.966  0.00  0.00    -0.312 N 
ATOM      6  H   UNL     1      -3.408   3.932  -4.566  0.00  0.00    +0.170 HD
ATOM      7  C   UNL     1      -1.657   2.898  -4.607  0.00  0.00    +0.279 A 
ATOM      8  O   UNL     1      -1.499   2.996  -5.819  0.00  0.00    -0.265 OA
ATOM      9  C   UNL     1      -0.772   2.219  -3.684  0.00  0.00    +0.172 A 
ATOM     10  N   UNL     1       0.412   1.575  -3.912  0.00  0.00    -0.229 NA
ATOM     11  C   UNL     1       0.790   1.164  -2.720  0.00  0.00    +0.203 A 
ENDROOT
BRANCH   1  15
ATOM     12  C   UNL     1      -0.776  -1.082   0.005  0.00  0.00    +0.038 C 
ATOM     13  C   UNL     1       0.735  -1.030   0.140  0.00  0.00    +0.146 C 
ATOM     14  O   UNL     1       1.147   0.331  -0.118  0.00  0.00    -0.351 OA
ATOM     15  C   UNL     1      -0.027   1.149  -0.327  0.00  0.00    +0.222 C 
ATOM     16  C   UNL     1      -1.190   0.348   0.244  0.00  0.00    +0.057 C 
BRANCH  13  17
ATOM     17  C   UNL     1       1.441  -1.972  -0.838  0.00  0.00    +0.187 C 
BRANCH  17  18
ATOM     18  O   UNL     1       2.854  -1.889  -0.669  0.00  0.00    -0.392 OA
ATOM     19  H   UNL     1       3.080  -0.942  -0.731  0.00  0.00    +0.210 HD
ENDBRANCH  17  18
ENDBRANCH  13  17
ENDBRANCH   1  15
TORSDOF 3
