REMARK  Name = 
REMARK  11 active torsions:
REMARK  status: ('A' for Active; 'I' for Inactive)
REMARK    1  A    between atoms: C_1  and  C_2
REMARK    2  A    between atoms: C_2  and  C_3
REMARK    3  A    between atoms: C_2  and  C_4
REMARK    4  A    between atoms: C_4  and  C_6
REMARK    5  A    between atoms: C_4  and  N_24
REMARK    6  A    between atoms: C_6  and  O_8
REMARK    7  A    between atoms: O_8  and  C_9
REMARK    8  A    between atoms: C_9  and  C_10
REMARK    9  A    between atoms: C_10  and  O_11
REMARK   10  A    between atoms: O_11  and  C_12
REMARK   11  A    between atoms: C_12  and  N_13
REMARK                            x       y       z     vdW  Elec       q    Type
REMARK                         _______ _______ _______ _____ _____    ______ ____
ROOT
ATOM      1  C   UNL     1      -2.735   3.150   4.277  0.00  0.00    +0.287 C 
ENDROOT
BRANCH   1   2
ATOM      2  N   UNL     1      -3.123   3.668   5.573  0.00  0.00    -0.291 N 
ATOM      3  C   UNL     1      -4.264   3.372   6.263  0.00  0.00    +0.171 A 
ATOM      4  N   UNL     1      -5.271   2.555   5.868  0.00  0.00    -0.196 NA
ATOM      5  C   UNL     1      -6.241   2.472   6.742  0.00  0.00    +0.195 A 
ATOM      6  N   UNL     1      -7.332   1.711   6.482  0.00  0.00    -0.329 N 
ATOM      7  H   UNL     1      -7.830   1.308   7.264  0.00  0.00    +0.145 HD
ATOM      8  H   UNL     1      -7.201   1.071   5.705  0.00  0.00    +0.145 HD
ATOM      9  N   UNL     1      -6.238   3.125   7.959  0.00  0.00    -0.293 N 
ATOM     10  H   UNL     1      -7.022   3.043   8.582  0.00  0.00    +0.172 HD
ATOM     11  C   UNL     1      -5.235   3.980   8.394  0.00  0.00    +0.280 A 
ATOM     12  O   UNL     1      -5.298   4.552   9.478  0.00  0.00    -0.265 OA
ATOM     13  C   UNL     1      -4.164   4.098   7.431  0.00  0.00    +0.172 A 
ATOM     14  N   UNL     1      -3.021   4.853   7.464  0.00  0.00    -0.229 NA
ATOM     15  C   UNL     1      -2.419   4.577   6.325  0.00  0.00    +0.203 A 
ENDBRANCH   1   2
BRANCH   1  16
ATOM     16  O   UNL     1      -1.310   3.132   4.208  0.00  0.00    -0.356 OA
BRANCH  16  17
ATOM     17  C   UNL     1      -0.830   2.698   2.936  0.00  0.00    +0.203 C 
BRANCH  17  18
ATOM     18  C   UNL     1       0.696   2.791   2.941  0.00  0.00    +0.260 C 
BRANCH  18  19
ATOM     19  O   UNL     1       1.130   4.151   3.128  0.00  0.00    -0.461 OA
BRANCH  19  20
ATOM     20  C   UNL     1       1.085   4.939   2.021  0.00  0.00    +0.324 C 
ATOM     21  O   UNL     1       0.696   4.575   0.916  0.00  0.00    -0.249 OA
BRANCH  20  22
ATOM     22  C   UNL     1       1.574   6.364   2.343  0.00  0.00    +0.163 C 
BRANCH  22  24
ATOM     23  C   UNL     1      -0.801   7.097   2.908  0.00  0.00    +0.009 C 
ATOM     24  C   UNL     1       0.446   7.391   2.062  0.00  0.00    +0.010 C 
ATOM     25  C   UNL     1       0.889   8.836   2.330  0.00  0.00    +0.009 C 
ENDBRANCH  22  24
BRANCH  22  26
ATOM     26  N   UNL     1       2.788   6.615   1.537  0.00  0.00    -0.318 NA
ATOM     27  H   UNL     1       2.546   6.525   0.548  0.00  0.00    +0.119 HD
ATOM     28  H   UNL     1       3.110   7.570   1.672  0.00  0.00    +0.119 HD
ENDBRANCH  22  26
ENDBRANCH  20  22
ENDBRANCH  19  20
ENDBRANCH  18  19
ENDBRANCH  17  18
ENDBRANCH  16  17
ENDBRANCH   1  16
TORSDOF 9
