REMARK  Name = 
REMARK  11 active torsions:
REMARK  status: ('A' for Active; 'I' for Inactive)
REMARK    1  A    between atoms: C_1  and  C_2
REMARK    2  A    between atoms: C_2  and  C_3
REMARK    3  A    between atoms: C_2  and  C_4
REMARK    4  A    between atoms: C_4  and  C_6
REMARK    5  A    between atoms: C_4  and  N_24
REMARK    6  A    between atoms: C_6  and  O_8
REMARK    7  A    between atoms: O_8  and  C_9
REMARK    8  A    between atoms: C_9  and  C_10
REMARK    9  A    between atoms: C_10  and  O_11
REMARK   10  A    between atoms: O_11  and  C_12
REMARK   11  A    between atoms: C_12  and  N_13
REMARK                            x       y       z     vdW  Elec       q    Type
REMARK                         _______ _______ _______ _____ _____    ______ ____
ROOT
ATOM      1  C   UNL     1      -2.773  -4.858   1.622  0.00  0.00    +0.287 C 
ENDROOT
BRANCH   1   2
ATOM      2  N   UNL     1      -3.252  -6.241   1.635  0.00  0.00    -0.291 N 
ATOM      3  C   UNL     1      -3.078  -7.185   2.573  0.00  0.00    +0.171 A 
ATOM      4  N   UNL     1      -2.396  -7.090   3.741  0.00  0.00    -0.196 NA
ATOM      5  C   UNL     1      -2.358  -8.188   4.561  0.00  0.00    +0.195 A 
ATOM      6  N   UNL     1      -1.650  -8.124   5.783  0.00  0.00    -0.329 N 
ATOM      7  H   UNL     1      -1.611  -8.941   6.409  0.00  0.00    +0.145 HD
ATOM      8  H   UNL     1      -1.160  -7.261   6.055  0.00  0.00    +0.145 HD
ATOM      9  N   UNL     1      -3.003  -9.350   4.200  0.00  0.00    -0.293 N 
ATOM     10  H   UNL     1      -2.970 -10.180   4.834  0.00  0.00    +0.172 HD
ATOM     11  C   UNL     1      -3.696  -9.437   3.010  0.00  0.00    +0.280 A 
ATOM     12  O   UNL     1      -4.270 -10.465   2.694  0.00  0.00    -0.265 OA
ATOM     13  C   UNL     1      -3.718  -8.317   2.193  0.00  0.00    +0.172 A 
ATOM     14  N   UNL     1      -4.317  -8.134   1.001  0.00  0.00    -0.229 NA
ATOM     15  C   UNL     1      -4.011  -6.848   0.686  0.00  0.00    +0.203 A 
ENDBRANCH   1   2
BRANCH   1  16
ATOM     16  O   UNL     1      -1.360  -4.830   1.650  0.00  0.00    -0.356 OA
BRANCH  16  17
ATOM     17  C   UNL     1      -0.923  -3.482   1.630  0.00  0.00    +0.203 C 
BRANCH  17  18
ATOM     18  C   UNL     1       0.600  -3.437   1.714  0.00  0.00    +0.260 C 
BRANCH  18  19
ATOM     19  O   UNL     1       1.046  -2.119   1.715  0.00  0.00    -0.461 OA
BRANCH  19  20
ATOM     20  C   UNL     1       1.777  -1.541   2.710  0.00  0.00    +0.324 C 
ATOM     21  O   UNL     1       2.035  -2.163   3.732  0.00  0.00    -0.249 OA
BRANCH  20  22
ATOM     22  C   UNL     1       2.325  -0.135   2.558  0.00  0.00    +0.163 C 
BRANCH  22  24
ATOM     23  C   UNL     1       0.244   0.915   3.624  0.00  0.00    +0.009 C 
ATOM     24  C   UNL     1       1.208   0.948   2.425  0.00  0.00    +0.010 C 
ATOM     25  C   UNL     1       1.805   2.366   2.328  0.00  0.00    +0.009 C 
ENDBRANCH  22  24
BRANCH  22  26
ATOM     26  N   UNL     1       3.238  -0.122   1.412  0.00  0.00    -0.318 NA
ATOM     27  H   UNL     1       2.702  -0.184   0.515  0.00  0.00    +0.119 HD
ATOM     28  H   UNL     1       3.823   0.744   1.411  0.00  0.00    +0.119 HD
ENDBRANCH  22  26
ENDBRANCH  20  22
ENDBRANCH  19  20
ENDBRANCH  18  19
ENDBRANCH  17  18
ENDBRANCH  16  17
ENDBRANCH   1  16
TORSDOF 9
REMARK  Name = 
REMARK  11 active torsions:
REMARK  status: ('A' for Active; 'I' for Inactive)
REMARK    1  A    between atoms: C_1  and  C_2
REMARK    2  A    between atoms: C_2  and  C_3
REMARK    3  A    between atoms: C_2  and  C_4
REMARK    4  A    between atoms: C_4  and  C_6
REMARK    5  A    between atoms: C_4  and  N_24
REMARK    6  A    between atoms: C_6  and  O_8
REMARK    7  A    between atoms: O_8  and  C_9
REMARK    8  A    between atoms: C_9  and  C_10
REMARK    9  A    between atoms: C_10  and  O_11
REMARK   10  A    between atoms: O_11  and  C_12
REMARK   11  A    between atoms: C_12  and  N_13
REMARK                            x       y       z     vdW  Elec       q    Type
REMARK                         _______ _______ _______ _____ _____    ______ ____
ROOT
ATOM      1 CL   UNL     1       0.890  -2.557  -1.838  0.00  0.00    -0.145 Cl
ATOM      2  H   UNL     1       1.899  -2.318  -0.933  0.00  0.00    +0.145 HD
ENDROOT
TORSDOF 0
