REMARK  Name = 
REMARK  7 active torsions:
REMARK  status: ('A' for Active; 'I' for Inactive)
REMARK    1  A    between atoms: N_5  and  C_6
REMARK    2  A    between atoms: C_6  and  O_7
REMARK    3  A    between atoms: O_7  and  C_8
REMARK    4  A    between atoms: C_8  and  C_9
REMARK    5  A    between atoms: C_8  and  C_11
REMARK    6  A    between atoms: C_9  and  O_10
REMARK    7  A    between atoms: C_11  and  O_12
REMARK                            x       y       z     vdW  Elec       q    Type
REMARK                         _______ _______ _______ _____ _____    ______ ____
ROOT
ATOM      1  C   UNL     1       1.642  -0.038  -0.868  0.00  0.00    +0.203 A 
ATOM      2  N   UNL     1       1.495  -1.027   0.072  0.00  0.00    -0.291 N 
ATOM      3  C   UNL     1       0.742  -0.512   1.086  0.00  0.00    +0.171 A 
ATOM      4  N   UNL     1       0.377  -1.146   2.225  0.00  0.00    -0.196 NA
ATOM      5  C   UNL     1      -0.319  -0.397   3.037  0.00  0.00    +0.195 A 
ATOM      6  N   UNL     1      -0.728  -0.893   4.231  0.00  0.00    -0.329 N 
ATOM      7  H   UNL     1      -1.576  -0.524   4.640  0.00  0.00    +0.145 HD
ATOM      8  H   UNL     1      -0.646  -1.902   4.298  0.00  0.00    +0.145 HD
ATOM      9  N   UNL     1      -0.679   0.906   2.758  0.00  0.00    -0.293 N 
ATOM     10  H   UNL     1      -1.196   1.446   3.430  0.00  0.00    +0.172 HD
ATOM     11  C   UNL     1      -0.326   1.594   1.603  0.00  0.00    +0.280 A 
ATOM     12  O   UNL     1      -0.665   2.756   1.413  0.00  0.00    -0.265 OA
ATOM     13  C   UNL     1       0.461   0.780   0.703  0.00  0.00    +0.172 A 
ATOM     14  N   UNL     1       1.021   1.072  -0.515  0.00  0.00    -0.229 NA
ENDROOT
BRANCH   2  15
ATOM     15  C   UNL     1       1.988  -2.382  -0.031  0.00  0.00    +0.287 C 
BRANCH  15  16
ATOM     16  O   UNL     1       3.419  -2.442  -0.021  0.00  0.00    -0.351 OA
BRANCH  16  17
ATOM     17  C   UNL     1       4.070  -1.898   1.151  0.00  0.00    +0.171 C 
BRANCH  17  18
ATOM     18  C   UNL     1       5.585  -2.035   0.922  0.00  0.00    +0.189 C 
BRANCH  18  19
ATOM     19  O   UNL     1       5.976  -1.321  -0.251  0.00  0.00    -0.392 OA
ATOM     20  H   UNL     1       5.462  -1.710  -0.982  0.00  0.00    +0.210 HD
ENDBRANCH  18  19
ENDBRANCH  17  18
BRANCH  17  21
ATOM     21  C   UNL     1       3.675  -2.618   2.450  0.00  0.00    +0.189 C 
BRANCH  21  22
ATOM     22  O   UNL     1       3.984  -4.009   2.389  0.00  0.00    -0.392 OA
ATOM     23  H   UNL     1       3.616  -4.350   1.554  0.00  0.00    +0.210 HD
ENDBRANCH  21  22
ENDBRANCH  17  21
ENDBRANCH  16  17
ENDBRANCH  15  16
ENDBRANCH   2  15
TORSDOF 7
