REMARK  Name = 
REMARK  9 active torsions:
REMARK  status: ('A' for Active; 'I' for Inactive)
REMARK    1  A    between atoms: C_1  and  C_2
REMARK    2  A    between atoms: C_2  and  O_4
REMARK    3  A    between atoms: O_4  and  C_5
REMARK    4  A    between atoms: C_5  and  C_6
REMARK    5  A    between atoms: C_6  and  C_7
REMARK    6  A    between atoms: C_6  and  O_9
REMARK    7  A    between atoms: C_7  and  O_8
REMARK    8  A    between atoms: O_9  and  C_10
REMARK    9  A    between atoms: C_10  and  N_11
REMARK                            x       y       z     vdW  Elec       q    Type
REMARK                         _______ _______ _______ _____ _____    ______ ____
ROOT
ATOM      1  N   UNL     1       8.499   1.442   3.612  0.00  0.00    -0.291 N 
ATOM      2  C   UNL     1       9.379   2.471   3.793  0.00  0.00    +0.171 A 
ATOM      3  N   UNL     1       9.075   3.768   4.030  0.00  0.00    -0.196 NA
ATOM      4  C   UNL     1      10.131   4.520   4.197  0.00  0.00    +0.195 A 
ATOM      5  N   UNL     1       9.987   5.846   4.455  0.00  0.00    -0.329 N 
ATOM      6  H   UNL     1      10.717   6.467   4.134  0.00  0.00    +0.145 HD
ATOM      7  H   UNL     1       9.052   6.187   4.251  0.00  0.00    +0.145 HD
ATOM      8  N   UNL     1      11.429   4.054   4.132  0.00  0.00    -0.293 N 
ATOM      9  H   UNL     1      12.201   4.673   4.310  0.00  0.00    +0.172 HD
ATOM     10  C   UNL     1      11.781   2.731   3.905  0.00  0.00    +0.280 A 
ATOM     11  O   UNL     1      12.952   2.366   3.885  0.00  0.00    -0.265 OA
ATOM     12  C   UNL     1      10.624   1.883   3.721  0.00  0.00    +0.172 A 
ATOM     13  N   UNL     1      10.533   0.529   3.517  0.00  0.00    -0.229 NA
ATOM     14  C   UNL     1       9.237   0.295   3.461  0.00  0.00    +0.203 A 
ENDROOT
BRANCH   1  15
ATOM     15  C   UNL     1       7.056   1.509   3.715  0.00  0.00    +0.288 C 
BRANCH  15  16
ATOM     16  O   UNL     1       6.482   0.798   2.619  0.00  0.00    -0.350 OA
BRANCH  16  17
ATOM     17  C   UNL     1       5.047   0.891   2.562  0.00  0.00    +0.183 C 
BRANCH  17  18
ATOM     18  C   UNL     1       4.578   0.261   1.235  0.00  0.00    +0.266 C 
BRANCH  18  19
ATOM     19  O   UNL     1       5.104   0.969   0.095  0.00  0.00    -0.462 OA
BRANCH  19  21
ATOM     20  C   UNL     1       5.098   2.747  -1.431  0.00  0.00    +0.136 C 
ATOM     21  C   UNL     1       4.458   2.120  -0.230  0.00  0.00    +0.304 C 
ATOM     22  O   UNL     1       3.512   2.597   0.382  0.00  0.00    -0.251 OA
ENDBRANCH  19  21
ENDBRANCH  18  19
ENDBRANCH  17  18
BRANCH  17  23
ATOM     23  C   UNL     1       4.394   0.161   3.747  0.00  0.00    +0.190 C 
BRANCH  23  24
ATOM     24  O   UNL     1       2.976   0.159   3.673  0.00  0.00    -0.392 OA
ATOM     25  H   UNL     1       2.669   1.084   3.661  0.00  0.00    +0.210 HD
ENDBRANCH  23  24
ENDBRANCH  17  23
ENDBRANCH  16  17
ENDBRANCH  15  16
ENDBRANCH   1  15
TORSDOF 8
