REMARK  Name = 
REMARK  11 active torsions:
REMARK  status: ('A' for Active; 'I' for Inactive)
REMARK    1  A    between atoms: C_1  and  C_2
REMARK    2  A    between atoms: C_2  and  C_3
REMARK    3  A    between atoms: C_2  and  C_4
REMARK    4  A    between atoms: C_4  and  C_5
REMARK    5  A    between atoms: C_4  and  N_23
REMARK    6  A    between atoms: C_5  and  O_7
REMARK    7  A    between atoms: O_7  and  C_8
REMARK    8  A    between atoms: C_8  and  C_9
REMARK    9  A    between atoms: C_9  and  O_10
REMARK   10  A    between atoms: O_10  and  C_11
REMARK   11  A    between atoms: C_11  and  N_12
REMARK                            x       y       z     vdW  Elec       q    Type
REMARK                         _______ _______ _______ _____ _____    ______ ____
ROOT
ATOM      1  C   UNL     1      -2.717   4.026   3.475  0.00  0.00    +0.287 C 
ENDROOT
BRANCH   1   2
ATOM      2  N   UNL     1      -3.091   4.814   4.631  0.00  0.00    -0.291 N 
ATOM      3  C   UNL     1      -4.220   4.675   5.387  0.00  0.00    +0.171 A 
ATOM      4  N   UNL     1      -5.230   3.790   5.197  0.00  0.00    -0.196 NA
ATOM      5  C   UNL     1      -6.180   3.895   6.090  0.00  0.00    +0.195 A 
ATOM      6  N   UNL     1      -7.270   3.091   6.025  0.00  0.00    -0.329 N 
ATOM      7  H   UNL     1      -7.742   2.858   6.887  0.00  0.00    +0.145 HD
ATOM      8  H   UNL     1      -7.149   2.301   5.399  0.00  0.00    +0.145 HD
ATOM      9  N   UNL     1      -6.158   4.794   7.138  0.00  0.00    -0.293 N 
ATOM     10  H   UNL     1      -6.928   4.845   7.782  0.00  0.00    +0.172 HD
ATOM     11  C   UNL     1      -5.153   5.724   7.357  0.00  0.00    +0.280 A 
ATOM     12  O   UNL     1      -5.195   6.512   8.299  0.00  0.00    -0.265 OA
ATOM     13  C   UNL     1      -4.103   5.634   6.370  0.00  0.00    +0.172 A 
ATOM     14  N   UNL     1      -2.963   6.379   6.221  0.00  0.00    -0.229 NA
ATOM     15  C   UNL     1      -2.377   5.861   5.162  0.00  0.00    +0.203 A 
ENDBRANCH   1   2
BRANCH   1  16
ATOM     16  O   UNL     1      -1.291   3.979   3.409  0.00  0.00    -0.356 OA
BRANCH  16  17
ATOM     17  C   UNL     1      -0.820   3.281   2.257  0.00  0.00    +0.203 C 
BRANCH  17  18
ATOM     18  C   UNL     1       0.708   3.367   2.235  0.00  0.00    +0.260 C 
BRANCH  18  19
ATOM     19  O   UNL     1       1.159   4.730   2.105  0.00  0.00    -0.461 OA
BRANCH  19  20
ATOM     20  C   UNL     1       1.088   5.256   0.852  0.00  0.00    +0.324 C 
ATOM     21  O   UNL     1       0.664   4.661  -0.133  0.00  0.00    -0.249 OA
BRANCH  20  22
ATOM     22  C   UNL     1       1.629   6.700   0.830  0.00  0.00    +0.163 C 
BRANCH  22  24
ATOM     23  C   UNL     1      -0.245   7.556   2.339  0.00  0.00    +0.009 C 
ATOM     24  C   UNL     1       0.491   7.734   1.007  0.00  0.00    +0.010 C 
ATOM     25  C   UNL     1       1.013   9.175   0.925  0.00  0.00    +0.009 C 
ENDBRANCH  22  24
BRANCH  22  26
ATOM     26  N   UNL     1       2.323   6.918  -0.465  0.00  0.00    -0.318 NA
ATOM     27  H   UNL     1       3.041   6.202  -0.578  0.00  0.00    +0.119 HD
ATOM     28  H   UNL     1       1.650   6.727  -1.214  0.00  0.00    +0.119 HD
ENDBRANCH  22  26
ENDBRANCH  20  22
ENDBRANCH  19  20
ENDBRANCH  18  19
ENDBRANCH  17  18
ENDBRANCH  16  17
ENDBRANCH   1  16
TORSDOF 9
