REMARK  Name = 
REMARK  3 active torsions:
REMARK  status: ('A' for Active; 'I' for Inactive)
REMARK    1  A    between atoms: C_3  and  N_8
REMARK    2  A    between atoms: C_5  and  C_6
REMARK    3  A    between atoms: C_6  and  O_7
REMARK                            x       y       z     vdW  Elec       q    Type
REMARK                         _______ _______ _______ _____ _____    ______ ____
ROOT
ATOM      1  N   UNL     1      -0.132   1.462  -1.745  0.00  0.00    -0.288 N 
ATOM      2  C   UNL     1      -1.121   2.192  -2.350  0.00  0.00    +0.169 A 
ATOM      3  N   UNL     1      -2.203   2.751  -1.752  0.00  0.00    -0.218 NA
ATOM      4  C   UNL     1      -2.977   3.360  -2.600  0.00  0.00    +0.201 A 
ATOM      5  N   UNL     1      -2.760   3.450  -3.964  0.00  0.00    -0.312 N 
ATOM      6  H   UNL     1      -3.411   3.935  -4.562  0.00  0.00    +0.170 HD
ATOM      7  C   UNL     1      -1.661   2.900  -4.607  0.00  0.00    +0.279 A 
ATOM      8  O   UNL     1      -1.501   3.001  -5.819  0.00  0.00    -0.265 OA
ATOM      9  C   UNL     1      -0.777   2.219  -3.686  0.00  0.00    +0.172 A 
ATOM     10  N   UNL     1       0.407   1.572  -3.915  0.00  0.00    -0.229 NA
ATOM     11  C   UNL     1       0.785   1.159  -2.724  0.00  0.00    +0.203 A 
ENDROOT
BRANCH   1  15
ATOM     12  C   UNL     1      -0.774  -1.084   0.011  0.00  0.00    +0.038 C 
ATOM     13  C   UNL     1       0.737  -1.029   0.145  0.00  0.00    +0.146 C 
ATOM     14  O   UNL     1       1.147   0.332  -0.120  0.00  0.00    -0.351 OA
ATOM     15  C   UNL     1      -0.029   1.147  -0.329  0.00  0.00    +0.222 C 
ATOM     16  C   UNL     1      -1.190   0.347   0.246  0.00  0.00    +0.057 C 
BRANCH  13  17
ATOM     17  C   UNL     1       1.444  -1.974  -0.830  0.00  0.00    +0.187 C 
BRANCH  17  18
ATOM     18  O   UNL     1       2.856  -1.891  -0.661  0.00  0.00    -0.392 OA
ATOM     19  H   UNL     1       3.085  -0.945  -0.737  0.00  0.00    +0.210 HD
ENDBRANCH  17  18
ENDBRANCH  13  17
ENDBRANCH   1  15
TORSDOF 3
