REMARK  Name = 
REMARK  3 active torsions:
REMARK  status: ('A' for Active; 'I' for Inactive)
REMARK    1  A    between atoms: C_3  and  N_10
REMARK    2  A    between atoms: C_6  and  C_8
REMARK    3  A    between atoms: C_8  and  O_9
REMARK                            x       y       z     vdW  Elec       q    Type
REMARK                         _______ _______ _______ _____ _____    ______ ____
ROOT
ATOM      1  N   UNL     1       0.220   2.452   0.591  0.00  0.00    -0.288 N 
ATOM      2  C   UNL     1      -0.219   3.686   0.198  0.00  0.00    +0.169 A 
ATOM      3  N   UNL     1      -0.898   3.985  -0.938  0.00  0.00    -0.218 NA
ATOM      4  C   UNL     1      -1.147   5.256  -1.044  0.00  0.00    +0.201 A 
ATOM      5  N   UNL     1      -0.787   6.224  -0.124  0.00  0.00    -0.312 N 
ATOM      6  H   UNL     1      -1.015   7.196  -0.275  0.00  0.00    +0.170 HD
ATOM      7  C   UNL     1      -0.104   5.952   1.053  0.00  0.00    +0.279 A 
ATOM      8  O   UNL     1       0.194   6.838   1.848  0.00  0.00    -0.265 OA
ATOM      9  C   UNL     1       0.193   4.542   1.198  0.00  0.00    +0.172 A 
ATOM     10  N   UNL     1       0.847   3.870   2.200  0.00  0.00    -0.229 NA
ATOM     11  C   UNL     1       0.852   2.613   1.799  0.00  0.00    +0.203 A 
ENDROOT
BRANCH   1  15
ATOM     12  C   UNL     1      -0.813  -0.963  -0.210  0.00  0.00    +0.038 C 
ATOM     13  C   UNL     1       0.676  -1.031   0.100  0.00  0.00    +0.146 C 
ATOM     14  O   UNL     1       1.163   0.331   0.138  0.00  0.00    -0.351 OA
ATOM     15  C   UNL     1       0.054   1.214  -0.139  0.00  0.00    +0.222 C 
ATOM     16  C   UNL     1      -1.190   0.430   0.237  0.00  0.00    +0.057 C 
BRANCH  13  17
ATOM     17  C   UNL     1       0.971  -1.691   1.450  0.00  0.00    +0.187 C 
BRANCH  17  18
ATOM     18  O   UNL     1       2.375  -1.692   1.697  0.00  0.00    -0.392 OA
ATOM     19  H   UNL     1       2.679  -0.776   1.546  0.00  0.00    +0.210 HD
ENDBRANCH  17  18
ENDBRANCH  13  17
ENDBRANCH   1  15
TORSDOF 3
