REMARK  Name = 
REMARK  13 active torsions:
REMARK  status: ('A' for Active; 'I' for Inactive)
REMARK    1  A    between atoms: C_1  and  C_2
REMARK    2  A    between atoms: C_2  and  C_3
REMARK    3  A    between atoms: C_2  and  C_4
REMARK    4  A    between atoms: C_4  and  C_6
REMARK    5  A    between atoms: C_4  and  N_27
REMARK    6  A    between atoms: C_6  and  O_8
REMARK    7  A    between atoms: O_8  and  C_9
REMARK    8  A    between atoms: C_9  and  C_10
REMARK    9  A    between atoms: C_10  and  C_12
REMARK   10  A    between atoms: C_10  and  O_14
REMARK   11  A    between atoms: C_12  and  O_13
REMARK   12  A    between atoms: O_14  and  C_15
REMARK   13  A    between atoms: C_15  and  N_16
REMARK                            x       y       z     vdW  Elec       q    Type
REMARK                         _______ _______ _______ _____ _____    ______ ____
ROOT
ATOM      1  O   UNL     1      -1.223   1.148   5.117  0.00  0.00    -0.350 OA
ENDROOT
BRANCH   1   2
ATOM      2  C   UNL     1      -0.715   1.191   3.765  0.00  0.00    +0.183 C 
BRANCH   2   3
ATOM      3  C   UNL     1       0.822   1.210   3.716  0.00  0.00    +0.266 C 
BRANCH   3   4
ATOM      4  O   UNL     1       1.349   0.087   4.450  0.00  0.00    -0.461 OA
BRANCH   4   5
ATOM      5  C   UNL     1       2.151  -0.775   3.759  0.00  0.00    +0.324 C 
ATOM      6  O   UNL     1       2.489  -0.627   2.593  0.00  0.00    -0.249 OA
BRANCH   5   7
ATOM      7  C   UNL     1       2.583  -1.968   4.636  0.00  0.00    +0.163 C 
BRANCH   7   9
ATOM      8  C   UNL     1       5.042  -1.302   4.474  0.00  0.00    +0.009 C 
ATOM      9  C   UNL     1       3.886  -1.667   5.413  0.00  0.00    +0.010 C 
ATOM     10  C   UNL     1       4.317  -2.863   6.274  0.00  0.00    +0.009 C 
ENDBRANCH   7   9
BRANCH   7  11
ATOM     11  N   UNL     1       1.491  -2.345   5.568  0.00  0.00    -0.318 NA
ATOM     12  H   UNL     1       1.269  -1.535   6.150  0.00  0.00    +0.119 HD
ATOM     13  H   UNL     1       0.645  -2.540   5.034  0.00  0.00    +0.119 HD
ENDBRANCH   7  11
ENDBRANCH   5   7
ENDBRANCH   4   5
ENDBRANCH   3   4
ENDBRANCH   2   3
BRANCH   2  14
ATOM     14  C   UNL     1      -1.249  -0.050   3.031  0.00  0.00    +0.190 C 
BRANCH  14  15
ATOM     15  O   UNL     1      -2.673  -0.008   2.959  0.00  0.00    -0.392 OA
ATOM     16  H   UNL     1      -2.991   0.008   3.881  0.00  0.00    +0.210 HD
ENDBRANCH  14  15
ENDBRANCH   2  14
ENDBRANCH   1   2
BRANCH   1  17
ATOM     17  C   UNL     1      -0.950   2.344   5.855  0.00  0.00    +0.288 C 
BRANCH  17  18
ATOM     18  N   UNL     1      -1.502   2.237   7.192  0.00  0.00    -0.291 N 
ATOM     19  C   UNL     1      -1.724   3.283   8.047  0.00  0.00    +0.171 A 
ATOM     20  N   UNL     1      -1.531   4.600   7.791  0.00  0.00    -0.196 NA
ATOM     21  C   UNL     1      -1.790   5.366   8.817  0.00  0.00    +0.195 A 
ATOM     22  N   UNL     1      -1.634   6.711   8.722  0.00  0.00    -0.329 N 
ATOM     23  H   UNL     1      -2.233   7.295   9.290  0.00  0.00    +0.145 HD
ATOM     24  H   UNL     1      -1.544   7.036   7.765  0.00  0.00    +0.145 HD
ATOM     25  N   UNL     1      -2.230   4.895  10.039  0.00  0.00    -0.293 N 
ATOM     26  H   UNL     1      -2.377   5.529  10.805  0.00  0.00    +0.172 HD
ATOM     27  C   UNL     1      -2.433   3.555  10.342  0.00  0.00    +0.280 A 
ATOM     28  O   UNL     1      -2.804   3.194  11.455  0.00  0.00    -0.265 OA
ATOM     29  C   UNL     1      -2.142   2.692   9.220  0.00  0.00    +0.172 A 
ATOM     30  N   UNL     1      -2.171   1.325   9.116  0.00  0.00    -0.229 NA
ATOM     31  C   UNL     1      -1.767   1.084   7.885  0.00  0.00    +0.203 A 
ENDBRANCH  17  18
ENDBRANCH   1  17
TORSDOF 11
