REMARK  Name = 
REMARK  11 active torsions:
REMARK  status: ('A' for Active; 'I' for Inactive)
REMARK    1  A    between atoms: C_1  and  C_2
REMARK    2  A    between atoms: C_2  and  C_3
REMARK    3  A    between atoms: C_2  and  C_4
REMARK    4  A    between atoms: C_4  and  C_6
REMARK    5  A    between atoms: C_4  and  N_24
REMARK    6  A    between atoms: C_6  and  O_8
REMARK    7  A    between atoms: O_8  and  C_9
REMARK    8  A    between atoms: C_9  and  C_10
REMARK    9  A    between atoms: C_10  and  O_11
REMARK   10  A    between atoms: O_11  and  C_12
REMARK   11  A    between atoms: C_12  and  N_13
REMARK                            x       y       z     vdW  Elec       q    Type
REMARK                         _______ _______ _______ _____ _____    ______ ____
ROOT
ATOM      1  C   UNL     1      -2.852   5.128  -0.591  0.00  0.00    +0.287 C 
ENDROOT
BRANCH   1   2
ATOM      2  N   UNL     1      -3.293   6.502  -0.455  0.00  0.00    -0.291 N 
ATOM      3  C   UNL     1      -4.486   6.924   0.062  0.00  0.00    +0.171 A 
ATOM      4  N   UNL     1      -5.486   6.149   0.550  0.00  0.00    -0.196 NA
ATOM      5  C   UNL     1      -6.520   6.838   0.959  0.00  0.00    +0.195 A 
ATOM      6  N   UNL     1      -7.610   6.204   1.456  0.00  0.00    -0.329 N 
ATOM      7  H   UNL     1      -8.178   6.691   2.135  0.00  0.00    +0.145 HD
ATOM      8  H   UNL     1      -7.439   5.231   1.687  0.00  0.00    +0.145 HD
ATOM      9  N   UNL     1      -6.586   8.217   0.927  0.00  0.00    -0.293 N 
ATOM     10  H   UNL     1      -7.418   8.694   1.232  0.00  0.00    +0.172 HD
ATOM     11  C   UNL     1      -5.591   9.045   0.429  0.00  0.00    +0.280 A 
ATOM     12  O   UNL     1      -5.715  10.266   0.407  0.00  0.00    -0.265 OA
ATOM     13  C   UNL     1      -4.448   8.298  -0.045  0.00  0.00    +0.172 A 
ATOM     14  N   UNL     1      -3.286   8.729  -0.632  0.00  0.00    -0.229 NA
ATOM     15  C   UNL     1      -2.615   7.620  -0.875  0.00  0.00    +0.203 A 
ENDBRANCH   1   2
BRANCH   1  16
ATOM     16  O   UNL     1      -1.424   5.094  -0.559  0.00  0.00    -0.356 OA
BRANCH  16  17
ATOM     17  C   UNL     1      -0.916   3.769  -0.739  0.00  0.00    +0.203 C 
BRANCH  17  18
ATOM     18  C   UNL     1       0.614   3.816  -0.717  0.00  0.00    +0.260 C 
BRANCH  18  19
ATOM     19  O   UNL     1       1.129   4.605  -1.806  0.00  0.00    -0.461 OA
BRANCH  19  20
ATOM     20  C   UNL     1       1.175   3.984  -3.015  0.00  0.00    +0.324 C 
ATOM     21  O   UNL     1       0.841   2.821  -3.216  0.00  0.00    -0.249 OA
BRANCH  20  22
ATOM     22  C   UNL     1       1.654   4.955  -4.114  0.00  0.00    +0.163 C 
BRANCH  22  24
ATOM     23  C   UNL     1       3.941   5.300  -3.025  0.00  0.00    +0.009 C 
ATOM     24  C   UNL     1       3.189   4.910  -4.303  0.00  0.00    +0.010 C 
ATOM     25  C   UNL     1       3.645   5.837  -5.439  0.00  0.00    +0.009 C 
ENDBRANCH  22  24
BRANCH  22  26
ATOM     26  N   UNL     1       0.972   4.593  -5.385  0.00  0.00    -0.318 NA
ATOM     27  H   UNL     1       1.197   3.616  -5.591  0.00  0.00    +0.119 HD
ATOM     28  H   UNL     1      -0.036   4.596  -5.227  0.00  0.00    +0.119 HD
ENDBRANCH  22  26
ENDBRANCH  20  22
ENDBRANCH  19  20
ENDBRANCH  18  19
ENDBRANCH  17  18
ENDBRANCH  16  17
ENDBRANCH   1  16
TORSDOF 9
