REMARK  Name = 
REMARK  35 active torsions:
REMARK  status: ('A' for Active; 'I' for Inactive)
REMARK    1  A    between atoms: C_1  and  C_2
REMARK    2  A    between atoms: C_2  and  C_3
REMARK    3  A    between atoms: C_2  and  O_7
REMARK    4  A    between atoms: C_3  and  N_4
REMARK    5  A    between atoms: N_4  and  C_5
REMARK    6  A    between atoms: N_4  and  C_6
REMARK    7  A    between atoms: C_8  and  C_9
REMARK    8  A    between atoms: C_9  and  C_10
REMARK    9  A    between atoms: C_9  and  O_14
REMARK   10  A    between atoms: C_10  and  N_11
REMARK   11  A    between atoms: N_11  and  C_12
REMARK   12  A    between atoms: N_11  and  C_13
REMARK   13  A    between atoms: C_15  and  C_16
REMARK   14  A    between atoms: C_16  and  C_17
REMARK   15  A    between atoms: C_16  and  O_21
REMARK   16  A    between atoms: C_17  and  N_18
REMARK   17  A    between atoms: N_18  and  C_19
REMARK   18  A    between atoms: N_18  and  C_20
REMARK   19  A    between atoms: C_22  and  C_23
REMARK   20  A    between atoms: N_25  and  C_26
REMARK   21  A    between atoms: C_29  and  C_32
REMARK   22  A    between atoms: C_32  and  O_34
REMARK   23  A    between atoms: C_35  and  C_36
REMARK   24  A    between atoms: N_38  and  C_39
REMARK   25  A    between atoms: C_42  and  C_45
REMARK   26  A    between atoms: C_45  and  O_47
REMARK   27  A    between atoms: C_48  and  C_49
REMARK   28  A    between atoms: N_51  and  C_52
REMARK   29  A    between atoms: C_55  and  C_58
REMARK   30  A    between atoms: C_58  and  O_60
REMARK   31  A    between atoms: N9_70  and  C1*_71
REMARK   32  A    between atoms: C2*_73  and  O2*_83
REMARK   33  A    between atoms: C3*_75  and  O3*_82
REMARK   34  A    between atoms: C4*_77  and  C5*_80
REMARK   35  A    between atoms: C5*_80  and  O5*_81
REMARK                            x       y       z     vdW  Elec       q    Type
REMARK                         _______ _______ _______ _____ _____    ______ ____
ROOT
ATOM      1  C   UNL     1       1.606  -0.909   0.317  0.00  0.00    +0.039 C 
ATOM      2  C   UNL     1       2.858  -1.046  -0.632  0.00  0.00    +0.125 C 
ENDROOT
BRANCH   2   3
ATOM      3  O   UNL     1       4.029  -0.498   0.179  0.00  0.00    -0.391 OA
ATOM      4  H   UNL     1       4.441   0.388   0.129  0.00  0.00    +0.210 HD
ENDBRANCH   2   3
BRANCH   2   5
ATOM      5  C   UNL     1       2.797  -2.111  -2.340  0.00  0.00    +0.114 C 
BRANCH   5   6
ATOM      6  N   UNL     1       3.108  -1.674  -4.112  0.00  0.00    -0.306 NA
ATOM      7  C   UNL     1       2.154  -0.930  -5.078  0.00  0.00    +0.104 C 
ATOM      8  C   UNL     1       3.960  -2.718  -4.512  0.00  0.00    +0.104 C 
ENDBRANCH   5   6
ENDBRANCH   2   5
TORSDOF 3
REMARK  Name = 
REMARK  35 active torsions:
REMARK  status: ('A' for Active; 'I' for Inactive)
REMARK    1  A    between atoms: C_1  and  C_2
REMARK    2  A    between atoms: C_2  and  C_3
REMARK    3  A    between atoms: C_2  and  O_7
REMARK    4  A    between atoms: C_3  and  N_4
REMARK    5  A    between atoms: N_4  and  C_5
REMARK    6  A    between atoms: N_4  and  C_6
REMARK    7  A    between atoms: C_8  and  C_9
REMARK    8  A    between atoms: C_9  and  C_10
REMARK    9  A    between atoms: C_9  and  O_14
REMARK   10  A    between atoms: C_10  and  N_11
REMARK   11  A    between atoms: N_11  and  C_12
REMARK   12  A    between atoms: N_11  and  C_13
REMARK   13  A    between atoms: C_15  and  C_16
REMARK   14  A    between atoms: C_16  and  C_17
REMARK   15  A    between atoms: C_16  and  O_21
REMARK   16  A    between atoms: C_17  and  N_18
REMARK   17  A    between atoms: N_18  and  C_19
REMARK   18  A    between atoms: N_18  and  C_20
REMARK   19  A    between atoms: C_22  and  C_23
REMARK   20  A    between atoms: N_25  and  C_26
REMARK   21  A    between atoms: C_29  and  C_32
REMARK   22  A    between atoms: C_32  and  O_34
REMARK   23  A    between atoms: C_35  and  C_36
REMARK   24  A    between atoms: N_38  and  C_39
REMARK   25  A    between atoms: C_42  and  C_45
REMARK   26  A    between atoms: C_45  and  O_47
REMARK   27  A    between atoms: C_48  and  C_49
REMARK   28  A    between atoms: N_51  and  C_52
REMARK   29  A    between atoms: C_55  and  C_58
REMARK   30  A    between atoms: C_58  and  O_60
REMARK   31  A    between atoms: N9_70  and  C1*_71
REMARK   32  A    between atoms: C2*_73  and  O2*_83
REMARK   33  A    between atoms: C3*_75  and  O3*_82
REMARK   34  A    between atoms: C4*_77  and  C5*_80
REMARK   35  A    between atoms: C5*_80  and  O5*_81
REMARK                            x       y       z     vdW  Elec       q    Type
REMARK                         _______ _______ _______ _____ _____    ______ ____
ROOT
ATOM      1  C   UNL     1       0.446   1.752  -1.108  0.00  0.00    +0.039 C 
ATOM      2  C   UNL     1       2.072   1.142  -0.198  0.00  0.00    +0.125 C 
ENDROOT
BRANCH   2   3
ATOM      3  O   UNL     1       1.273   0.104  -1.370  0.00  0.00    -0.391 OA
ATOM      4  H   UNL     1       1.344  -0.865  -1.523  0.00  0.00    +0.210 HD
ENDBRANCH   2   3
BRANCH   2   5
ATOM      5  C   UNL     1       3.067   1.336   1.648  0.00  0.00    +0.114 C 
BRANCH   5   6
ATOM      6  N   UNL     1       2.975   2.633   3.218  0.00  0.00    -0.306 NA
ATOM      7  C   UNL     1       3.952   3.577   3.782  0.00  0.00    +0.104 C 
ATOM      8  C   UNL     1       1.527   3.847   3.288  0.00  0.00    +0.104 C 
ENDBRANCH   5   6
ENDBRANCH   2   5
TORSDOF 3
REMARK  Name = 
REMARK  35 active torsions:
REMARK  status: ('A' for Active; 'I' for Inactive)
REMARK    1  A    between atoms: C_1  and  C_2
REMARK    2  A    between atoms: C_2  and  C_3
REMARK    3  A    between atoms: C_2  and  O_7
REMARK    4  A    between atoms: C_3  and  N_4
REMARK    5  A    between atoms: N_4  and  C_5
REMARK    6  A    between atoms: N_4  and  C_6
REMARK    7  A    between atoms: C_8  and  C_9
REMARK    8  A    between atoms: C_9  and  C_10
REMARK    9  A    between atoms: C_9  and  O_14
REMARK   10  A    between atoms: C_10  and  N_11
REMARK   11  A    between atoms: N_11  and  C_12
REMARK   12  A    between atoms: N_11  and  C_13
REMARK   13  A    between atoms: C_15  and  C_16
REMARK   14  A    between atoms: C_16  and  C_17
REMARK   15  A    between atoms: C_16  and  O_21
REMARK   16  A    between atoms: C_17  and  N_18
REMARK   17  A    between atoms: N_18  and  C_19
REMARK   18  A    between atoms: N_18  and  C_20
REMARK   19  A    between atoms: C_22  and  C_23
REMARK   20  A    between atoms: N_25  and  C_26
REMARK   21  A    between atoms: C_29  and  C_32
REMARK   22  A    between atoms: C_32  and  O_34
REMARK   23  A    between atoms: C_35  and  C_36
REMARK   24  A    between atoms: N_38  and  C_39
REMARK   25  A    between atoms: C_42  and  C_45
REMARK   26  A    between atoms: C_45  and  O_47
REMARK   27  A    between atoms: C_48  and  C_49
REMARK   28  A    between atoms: N_51  and  C_52
REMARK   29  A    between atoms: C_55  and  C_58
REMARK   30  A    between atoms: C_58  and  O_60
REMARK   31  A    between atoms: N9_70  and  C1*_71
REMARK   32  A    between atoms: C2*_73  and  O2*_83
REMARK   33  A    between atoms: C3*_75  and  O3*_82
REMARK   34  A    between atoms: C4*_77  and  C5*_80
REMARK   35  A    between atoms: C5*_80  and  O5*_81
REMARK                            x       y       z     vdW  Elec       q    Type
REMARK                         _______ _______ _______ _____ _____    ______ ____
ROOT
ATOM      1  C   UNL     1       2.760   0.423  -2.961  0.00  0.00    +0.039 C 
ATOM      2  C   UNL     1       4.458  -0.304  -2.136  0.00  0.00    +0.125 C 
ENDROOT
BRANCH   2   3
ATOM      3  O   UNL     1       5.304  -0.078  -3.233  0.00  0.00    -0.391 OA
ATOM      4  H   UNL     1       4.643   0.350  -3.818  0.00  0.00    +0.210 HD
ENDBRANCH   2   3
BRANCH   2   5
ATOM      5  C   UNL     1       4.964  -2.070  -1.300  0.00  0.00    +0.114 C 
BRANCH   5   6
ATOM      6  N   UNL     1       6.191  -2.737  -0.489  0.00  0.00    -0.306 NA
ATOM      7  C   UNL     1       7.118  -2.507  -1.505  0.00  0.00    +0.104 C 
ATOM      8  C   UNL     1       6.356  -4.093   0.290  0.00  0.00    +0.104 C 
ENDBRANCH   5   6
ENDBRANCH   2   5
TORSDOF 3
REMARK  Name = 
REMARK  35 active torsions:
REMARK  status: ('A' for Active; 'I' for Inactive)
REMARK    1  A    between atoms: C_1  and  C_2
REMARK    2  A    between atoms: C_2  and  C_3
REMARK    3  A    between atoms: C_2  and  O_7
REMARK    4  A    between atoms: C_3  and  N_4
REMARK    5  A    between atoms: N_4  and  C_5
REMARK    6  A    between atoms: N_4  and  C_6
REMARK    7  A    between atoms: C_8  and  C_9
REMARK    8  A    between atoms: C_9  and  C_10
REMARK    9  A    between atoms: C_9  and  O_14
REMARK   10  A    between atoms: C_10  and  N_11
REMARK   11  A    between atoms: N_11  and  C_12
REMARK   12  A    between atoms: N_11  and  C_13
REMARK   13  A    between atoms: C_15  and  C_16
REMARK   14  A    between atoms: C_16  and  C_17
REMARK   15  A    between atoms: C_16  and  O_21
REMARK   16  A    between atoms: C_17  and  N_18
REMARK   17  A    between atoms: N_18  and  C_19
REMARK   18  A    between atoms: N_18  and  C_20
REMARK   19  A    between atoms: C_22  and  C_23
REMARK   20  A    between atoms: N_25  and  C_26
REMARK   21  A    between atoms: C_29  and  C_32
REMARK   22  A    between atoms: C_32  and  O_34
REMARK   23  A    between atoms: C_35  and  C_36
REMARK   24  A    between atoms: N_38  and  C_39
REMARK   25  A    between atoms: C_42  and  C_45
REMARK   26  A    between atoms: C_45  and  O_47
REMARK   27  A    between atoms: C_48  and  C_49
REMARK   28  A    between atoms: N_51  and  C_52
REMARK   29  A    between atoms: C_55  and  C_58
REMARK   30  A    between atoms: C_58  and  O_60
REMARK   31  A    between atoms: N9_70  and  C1*_71
REMARK   32  A    between atoms: C2*_73  and  O2*_83
REMARK   33  A    between atoms: C3*_75  and  O3*_82
REMARK   34  A    between atoms: C4*_77  and  C5*_80
REMARK   35  A    between atoms: C5*_80  and  O5*_81
REMARK                            x       y       z     vdW  Elec       q    Type
REMARK                         _______ _______ _______ _____ _____    ______ ____
ROOT
ATOM      1  C   UNL     1       4.158   3.587   1.357  0.00  0.00    +0.033 A 
ATOM      2  C   UNL     1       4.495   4.869   0.819  0.00  0.00    +0.024 A 
ATOM      3  C   UNL     1       5.859   5.344   0.414  0.00  0.00    +0.017 A 
ATOM      4  C   UNL     1       7.071   4.651   0.593  0.00  0.00    +0.059 A 
ATOM      5  C   UNL     1       6.931   3.411   1.187  0.00  0.00    +0.017 A 
ATOM      6  C   UNL     1       5.580   2.901   1.539  0.00  0.00    +0.024 A 
ENDROOT
BRANCH   1   9
ATOM      7  C   UNL     1      -0.313   1.587   3.334  0.00  0.00    +0.109 C 
ATOM      8  C   UNL     1       1.277   1.814   2.446  0.00  0.00    +0.214 C 
ATOM      9  N   UNL     1       2.384   3.106   1.539  0.00  0.00    -0.286 N 
ATOM     10  H   UNL     1       2.073   4.129   1.548  0.00  0.00    +0.155 HD
ATOM     11  O   UNL     1       1.787   0.929   3.407  0.00  0.00    -0.276 OA
ENDBRANCH   1   9
BRANCH   4  12
ATOM     12  C   UNL     1       8.447   5.241   0.290  0.00  0.00    +0.337 C 
ATOM     13  O   UNL     1       9.425   4.617  -0.083  0.00  0.00    -0.245 OA
BRANCH  12  14
ATOM     14  O   UNL     1       8.519   6.569   0.556  0.00  0.00    -0.477 OA
ATOM     15  H   UNL     1       7.780   6.934   1.072  0.00  0.00    +0.295 HD
ENDBRANCH  12  14
ENDBRANCH   4  12
TORSDOF 3
REMARK  Name = 
REMARK  35 active torsions:
REMARK  status: ('A' for Active; 'I' for Inactive)
REMARK    1  A    between atoms: C_1  and  C_2
REMARK    2  A    between atoms: C_2  and  C_3
REMARK    3  A    between atoms: C_2  and  O_7
REMARK    4  A    between atoms: C_3  and  N_4
REMARK    5  A    between atoms: N_4  and  C_5
REMARK    6  A    between atoms: N_4  and  C_6
REMARK    7  A    between atoms: C_8  and  C_9
REMARK    8  A    between atoms: C_9  and  C_10
REMARK    9  A    between atoms: C_9  and  O_14
REMARK   10  A    between atoms: C_10  and  N_11
REMARK   11  A    between atoms: N_11  and  C_12
REMARK   12  A    between atoms: N_11  and  C_13
REMARK   13  A    between atoms: C_15  and  C_16
REMARK   14  A    between atoms: C_16  and  C_17
REMARK   15  A    between atoms: C_16  and  O_21
REMARK   16  A    between atoms: C_17  and  N_18
REMARK   17  A    between atoms: N_18  and  C_19
REMARK   18  A    between atoms: N_18  and  C_20
REMARK   19  A    between atoms: C_22  and  C_23
REMARK   20  A    between atoms: N_25  and  C_26
REMARK   21  A    between atoms: C_29  and  C_32
REMARK   22  A    between atoms: C_32  and  O_34
REMARK   23  A    between atoms: C_35  and  C_36
REMARK   24  A    between atoms: N_38  and  C_39
REMARK   25  A    between atoms: C_42  and  C_45
REMARK   26  A    between atoms: C_45  and  O_47
REMARK   27  A    between atoms: C_48  and  C_49
REMARK   28  A    between atoms: N_51  and  C_52
REMARK   29  A    between atoms: C_55  and  C_58
REMARK   30  A    between atoms: C_58  and  O_60
REMARK   31  A    between atoms: N9_70  and  C1*_71
REMARK   32  A    between atoms: C2*_73  and  O2*_83
REMARK   33  A    between atoms: C3*_75  and  O3*_82
REMARK   34  A    between atoms: C4*_77  and  C5*_80
REMARK   35  A    between atoms: C5*_80  and  O5*_81
REMARK                            x       y       z     vdW  Elec       q    Type
REMARK                         _______ _______ _______ _____ _____    ______ ____
ROOT
ATOM      1  C   UNL     1       4.756  -2.201   2.060  0.00  0.00    +0.033 A 
ATOM      2  C   UNL     1       4.730  -2.260   3.432  0.00  0.00    +0.024 A 
ATOM      3  C   UNL     1       5.896  -2.578   4.148  0.00  0.00    +0.017 A 
ATOM      4  C   UNL     1       7.168  -2.560   3.573  0.00  0.00    +0.059 A 
ATOM      5  C   UNL     1       7.279  -1.836   2.408  0.00  0.00    +0.017 A 
ATOM      6  C   UNL     1       6.041  -1.555   1.709  0.00  0.00    +0.024 A 
ENDROOT
BRANCH   1   9
ATOM      7  C   UNL     1       0.692  -2.903  -0.902  0.00  0.00    +0.109 C 
ATOM      8  C   UNL     1       2.452  -3.380  -0.060  0.00  0.00    +0.214 C 
ATOM      9  N   UNL     1       3.248  -2.777   1.423  0.00  0.00    -0.286 N 
ATOM     10  H   UNL     1       2.757  -2.023   1.899  0.00  0.00    +0.155 HD
ATOM     11  O   UNL     1       3.125  -4.125  -0.793  0.00  0.00    -0.276 OA
ENDBRANCH   1   9
BRANCH   4  12
ATOM     12  C   UNL     1       8.257  -3.492   4.010  0.00  0.00    +0.337 C 
ATOM     13  O   UNL     1       9.307  -3.647   3.410  0.00  0.00    -0.245 OA
BRANCH  12  14
ATOM     14  O   UNL     1       7.924  -4.284   5.055  0.00  0.00    -0.477 OA
ATOM     15  H   UNL     1       7.125  -4.045   5.549  0.00  0.00    +0.295 HD
ENDBRANCH  12  14
ENDBRANCH   4  12
TORSDOF 3
REMARK  Name = 
REMARK  35 active torsions:
REMARK  status: ('A' for Active; 'I' for Inactive)
REMARK    1  A    between atoms: C_1  and  C_2
REMARK    2  A    between atoms: C_2  and  C_3
REMARK    3  A    between atoms: C_2  and  O_7
REMARK    4  A    between atoms: C_3  and  N_4
REMARK    5  A    between atoms: N_4  and  C_5
REMARK    6  A    between atoms: N_4  and  C_6
REMARK    7  A    between atoms: C_8  and  C_9
REMARK    8  A    between atoms: C_9  and  C_10
REMARK    9  A    between atoms: C_9  and  O_14
REMARK   10  A    between atoms: C_10  and  N_11
REMARK   11  A    between atoms: N_11  and  C_12
REMARK   12  A    between atoms: N_11  and  C_13
REMARK   13  A    between atoms: C_15  and  C_16
REMARK   14  A    between atoms: C_16  and  C_17
REMARK   15  A    between atoms: C_16  and  O_21
REMARK   16  A    between atoms: C_17  and  N_18
REMARK   17  A    between atoms: N_18  and  C_19
REMARK   18  A    between atoms: N_18  and  C_20
REMARK   19  A    between atoms: C_22  and  C_23
REMARK   20  A    between atoms: N_25  and  C_26
REMARK   21  A    between atoms: C_29  and  C_32
REMARK   22  A    between atoms: C_32  and  O_34
REMARK   23  A    between atoms: C_35  and  C_36
REMARK   24  A    between atoms: N_38  and  C_39
REMARK   25  A    between atoms: C_42  and  C_45
REMARK   26  A    between atoms: C_45  and  O_47
REMARK   27  A    between atoms: C_48  and  C_49
REMARK   28  A    between atoms: N_51  and  C_52
REMARK   29  A    between atoms: C_55  and  C_58
REMARK   30  A    between atoms: C_58  and  O_60
REMARK   31  A    between atoms: N9_70  and  C1*_71
REMARK   32  A    between atoms: C2*_73  and  O2*_83
REMARK   33  A    between atoms: C3*_75  and  O3*_82
REMARK   34  A    between atoms: C4*_77  and  C5*_80
REMARK   35  A    between atoms: C5*_80  and  O5*_81
REMARK                            x       y       z     vdW  Elec       q    Type
REMARK                         _______ _______ _______ _____ _____    ______ ____
ROOT
ATOM      1  C   UNL     1       4.358   3.033  -2.991  0.00  0.00    +0.033 A 
ATOM      2  C   UNL     1       5.478   2.790  -3.808  0.00  0.00    +0.024 A 
ATOM      3  C   UNL     1       5.932   3.881  -4.476  0.00  0.00    +0.017 A 
ATOM      4  C   UNL     1       5.314   5.096  -4.170  0.00  0.00    +0.059 A 
ATOM      5  C   UNL     1       4.267   5.238  -3.279  0.00  0.00    +0.017 A 
ATOM      6  C   UNL     1       3.576   4.143  -2.994  0.00  0.00    +0.024 A 
ENDROOT
BRANCH   1   9
ATOM      7  C   UNL     1       2.012   3.578  -0.646  0.00  0.00    +0.109 C 
ATOM      8  C   UNL     1       3.656   2.702  -0.817  0.00  0.00    +0.214 C 
ATOM      9  N   UNL     1       4.505   2.640  -1.731  0.00  0.00    -0.286 N 
ATOM     10  H   UNL     1       5.318   2.056  -1.459  0.00  0.00    +0.155 HD
ATOM     11  O   UNL     1       4.228   1.902  -0.171  0.00  0.00    -0.276 OA
ENDBRANCH   1   9
BRANCH   4  12
ATOM     12  C   UNL     1       5.634   6.279  -4.792  0.00  0.00    +0.337 C 
ATOM     13  O   UNL     1       6.821   6.677  -5.058  0.00  0.00    -0.245 OA
BRANCH  12  14
ATOM     14  O   UNL     1       4.537   7.012  -5.088  0.00  0.00    -0.477 OA
ATOM     15  H   UNL     1       3.736   6.438  -5.088  0.00  0.00    +0.295 HD
ENDBRANCH  12  14
ENDBRANCH   4  12
TORSDOF 3
REMARK  Name = 
REMARK  35 active torsions:
REMARK  status: ('A' for Active; 'I' for Inactive)
REMARK    1  A    between atoms: C_1  and  C_2
REMARK    2  A    between atoms: C_2  and  C_3
REMARK    3  A    between atoms: C_2  and  O_7
REMARK    4  A    between atoms: C_3  and  N_4
REMARK    5  A    between atoms: N_4  and  C_5
REMARK    6  A    between atoms: N_4  and  C_6
REMARK    7  A    between atoms: C_8  and  C_9
REMARK    8  A    between atoms: C_9  and  C_10
REMARK    9  A    between atoms: C_9  and  O_14
REMARK   10  A    between atoms: C_10  and  N_11
REMARK   11  A    between atoms: N_11  and  C_12
REMARK   12  A    between atoms: N_11  and  C_13
REMARK   13  A    between atoms: C_15  and  C_16
REMARK   14  A    between atoms: C_16  and  C_17
REMARK   15  A    between atoms: C_16  and  O_21
REMARK   16  A    between atoms: C_17  and  N_18
REMARK   17  A    between atoms: N_18  and  C_19
REMARK   18  A    between atoms: N_18  and  C_20
REMARK   19  A    between atoms: C_22  and  C_23
REMARK   20  A    between atoms: N_25  and  C_26
REMARK   21  A    between atoms: C_29  and  C_32
REMARK   22  A    between atoms: C_32  and  O_34
REMARK   23  A    between atoms: C_35  and  C_36
REMARK   24  A    between atoms: N_38  and  C_39
REMARK   25  A    between atoms: C_42  and  C_45
REMARK   26  A    between atoms: C_45  and  O_47
REMARK   27  A    between atoms: C_48  and  C_49
REMARK   28  A    between atoms: N_51  and  C_52
REMARK   29  A    between atoms: C_55  and  C_58
REMARK   30  A    between atoms: C_58  and  O_60
REMARK   31  A    between atoms: N9_70  and  C1*_71
REMARK   32  A    between atoms: C2*_73  and  O2*_83
REMARK   33  A    between atoms: C3*_75  and  O3*_82
REMARK   34  A    between atoms: C4*_77  and  C5*_80
REMARK   35  A    between atoms: C5*_80  and  O5*_81
REMARK                            x       y       z     vdW  Elec       q    Type
REMARK                         _______ _______ _______ _____ _____    ______ ____
ROOT
ATOM      1  C1*   I A   1       0.398  -3.479   1.766  0.00  0.00    +0.253 C 
ATOM      2  O4*   I A   1       0.533  -4.241   0.590  0.00  0.00    -0.346 OA
ATOM      3  C4*   I A   1       0.968  -5.582   0.421  0.00  0.00    +0.177 C 
ATOM      4  C3*   I A   1       1.313  -5.796   1.872  0.00  0.00    +0.178 C 
ATOM      5  C2*   I A   1       0.596  -4.590   2.716  0.00  0.00    +0.195 C 
ENDROOT
BRANCH   1  14
ATOM      6  C2    I A   1      -3.471  -0.983   0.154  0.00  0.00    +0.201 A 
ATOM      7  N1    I A   1      -3.350   0.320   0.081  0.00  0.00    -0.312 N 
ATOM      8  H1    I A   1      -4.065   1.009  -0.289  0.00  0.00    +0.170 HD
ATOM      9  C6    I A   1      -2.258   0.981   0.565  0.00  0.00    +0.279 A 
ATOM     10  O6    I A   1      -1.917   2.252   0.496  0.00  0.00    -0.265 OA
ATOM     11  C5    I A   1      -1.301  -0.036   1.086  0.00  0.00    +0.172 A 
ATOM     12  N7    I A   1      -0.133   0.188   1.668  0.00  0.00    -0.229 NA
ATOM     13  C8    I A   1       0.298  -0.928   2.283  0.00  0.00    +0.203 A 
ATOM     14  N9    I A   1      -0.411  -2.078   1.859  0.00  0.00    -0.285 N 
ATOM     15  C4    I A   1      -1.511  -1.393   1.147  0.00  0.00    +0.169 A 
ATOM     16  N3    I A   1      -2.640  -1.895   0.611  0.00  0.00    -0.218 NA
ENDBRANCH   1  14
BRANCH   4  17
ATOM     17  O3*   I A   1       2.755  -5.785   1.924  0.00  0.00    -0.386 OA
ATOM     18  H3*   I A   1       3.064  -5.679   2.836  0.00  0.00    +0.210 HD
ENDBRANCH   4  17
BRANCH   5  19
ATOM     19  O2*   I A   1       1.372  -4.127   3.816  0.00  0.00    -0.385 OA
ATOM     20  H2*   I A   1       1.963  -3.400   3.520  0.00  0.00    +0.210 HD
ENDBRANCH   5  19
BRANCH   3  21
ATOM     21  C5*   I A   1      -0.280  -6.024  -0.337  0.00  0.00    +0.190 C 
BRANCH  21  22
ATOM     22  O5*   I A   1      -0.370  -5.582  -1.719  0.00  0.00    -0.392 OA
ATOM     23  H5*   I A   1       0.484  -5.613  -2.185  0.00  0.00    +0.210 HD
ENDBRANCH  21  22
ENDBRANCH   3  21
TORSDOF 5
