REMARK  Name = 
REMARK  13 active torsions:
REMARK  status: ('A' for Active; 'I' for Inactive)
REMARK    1  A    between atoms: C_1  and  C_2
REMARK    2  A    between atoms: C_2  and  C_3
REMARK    3  A    between atoms: C_2  and  C_4
REMARK    4  A    between atoms: C_4  and  C_6
REMARK    5  A    between atoms: C_4  and  N_26
REMARK    6  A    between atoms: C_6  and  O_8
REMARK    7  A    between atoms: O_8  and  C_9
REMARK    8  A    between atoms: C_9  and  C_10
REMARK    9  A    between atoms: C_10  and  C_11
REMARK   10  A    between atoms: C_10  and  O_13
REMARK   11  A    between atoms: C_11  and  O_12
REMARK   12  A    between atoms: O_13  and  C_14
REMARK   13  A    between atoms: C_14  and  N_15
REMARK                            x       y       z     vdW  Elec       q    Type
REMARK                         _______ _______ _______ _____ _____    ______ ____
ROOT
ATOM      1  O   UNL     1      -1.157  -0.200   5.168  0.00  0.00    -0.350 OA
ENDROOT
BRANCH   1   2
ATOM      2  C   UNL     1      -0.742   0.265   3.888  0.00  0.00    +0.183 C 
BRANCH   2   3
ATOM      3  C   UNL     1       0.803   0.361   3.754  0.00  0.00    +0.266 C 
BRANCH   3   4
ATOM      4  O   UNL     1       1.415  -0.839   4.084  0.00  0.00    -0.461 OA
BRANCH   4   5
ATOM      5  C   UNL     1       2.267  -1.533   3.282  0.00  0.00    +0.324 C 
ATOM      6  O   UNL     1       2.594  -1.076   2.195  0.00  0.00    -0.249 OA
BRANCH   5   7
ATOM      7  C   UNL     1       2.874  -2.858   3.714  0.00  0.00    +0.163 C 
BRANCH   7   9
ATOM      8  C   UNL     1       0.856  -3.637   5.112  0.00  0.00    +0.009 C 
ATOM      9  C   UNL     1       2.376  -3.379   5.104  0.00  0.00    +0.010 C 
ATOM     10  C   UNL     1       3.064  -4.698   5.510  0.00  0.00    +0.009 C 
ENDBRANCH   7   9
BRANCH   7  11
ATOM     11  N   UNL     1       4.331  -2.693   3.688  0.00  0.00    -0.318 NA
ATOM     12  H   UNL     1       4.647  -2.069   4.466  0.00  0.00    +0.119 HD
ATOM     13  H   UNL     1       4.824  -3.613   3.733  0.00  0.00    +0.119 HD
ENDBRANCH   7  11
ENDBRANCH   5   7
ENDBRANCH   4   5
ENDBRANCH   3   4
ENDBRANCH   2   3
BRANCH   2  14
ATOM     14  C   UNL     1      -1.321  -0.684   2.821  0.00  0.00    +0.190 C 
BRANCH  14  15
ATOM     15  O   UNL     1      -0.946  -0.291   1.526  0.00  0.00    -0.392 OA
ATOM     16  H   UNL     1      -1.402   0.570   1.339  0.00  0.00    +0.210 HD
ENDBRANCH  14  15
ENDBRANCH   2  14
ENDBRANCH   1   2
BRANCH   1  17
ATOM     17  C   UNL     1      -0.860   0.743   6.180  0.00  0.00    +0.288 C 
BRANCH  17  18
ATOM     18  N   UNL     1      -1.340   0.259   7.473  0.00  0.00    -0.291 N 
ATOM     19  C   UNL     1      -2.597   0.086   7.903  0.00  0.00    +0.171 A 
ATOM     20  N   UNL     1      -3.752   0.322   7.234  0.00  0.00    -0.196 NA
ATOM     21  C   UNL     1      -4.935   0.099   7.891  0.00  0.00    +0.195 A 
ATOM     22  N   UNL     1      -6.159   0.341   7.224  0.00  0.00    -0.329 N 
ATOM     23  H   UNL     1      -7.057   0.190   7.705  0.00  0.00    +0.145 HD
ATOM     24  H   UNL     1      -6.164   0.680   6.250  0.00  0.00    +0.145 HD
ATOM     25  N   UNL     1      -4.937  -0.348   9.191  0.00  0.00    -0.293 N 
ATOM     26  H   UNL     1      -5.846  -0.508   9.683  0.00  0.00    +0.172 HD
ATOM     27  C   UNL     1      -3.755  -0.582   9.864  0.00  0.00    +0.280 A 
ATOM     28  O   UNL     1      -3.760  -0.974  11.019  0.00  0.00    -0.265 OA
ATOM     29  C   UNL     1      -2.572  -0.349   9.185  0.00  0.00    +0.172 A 
ATOM     30  N   UNL     1      -1.301  -0.481   9.608  0.00  0.00    -0.229 NA
ATOM     31  C   UNL     1      -0.567  -0.088   8.534  0.00  0.00    +0.203 A 
ENDBRANCH  17  18
ENDBRANCH   1  17
TORSDOF 11
REMARK  Name = 
REMARK  13 active torsions:
REMARK  status: ('A' for Active; 'I' for Inactive)
REMARK    1  A    between atoms: C_1  and  C_2
REMARK    2  A    between atoms: C_2  and  C_3
REMARK    3  A    between atoms: C_2  and  C_4
REMARK    4  A    between atoms: C_4  and  C_6
REMARK    5  A    between atoms: C_4  and  N_26
REMARK    6  A    between atoms: C_6  and  O_8
REMARK    7  A    between atoms: O_8  and  C_9
REMARK    8  A    between atoms: C_9  and  C_10
REMARK    9  A    between atoms: C_10  and  C_11
REMARK   10  A    between atoms: C_10  and  O_13
REMARK   11  A    between atoms: C_11  and  O_12
REMARK   12  A    between atoms: O_13  and  C_14
REMARK   13  A    between atoms: C_14  and  N_15
REMARK                            x       y       z     vdW  Elec       q    Type
REMARK                         _______ _______ _______ _____ _____    ______ ____
ROOT
ATOM      1 CL   UNL     1       1.096  -3.211   0.440  0.00  0.00    -0.145 Cl
ATOM      2  H   UNL     1       0.675  -1.904   0.375  0.00  0.00    +0.145 HD
ENDROOT
TORSDOF 0
