REMARK  Name = 
REMARK  35 active torsions:
REMARK  status: ('A' for Active; 'I' for Inactive)
REMARK    1  A    between atoms: C_1  and  C_2
REMARK    2  A    between atoms: C_2  and  C_3
REMARK    3  A    between atoms: C_2  and  O_7
REMARK    4  A    between atoms: C_3  and  N_4
REMARK    5  A    between atoms: N_4  and  C_5
REMARK    6  A    between atoms: N_4  and  C_6
REMARK    7  A    between atoms: C_8  and  C_9
REMARK    8  A    between atoms: C_9  and  C_10
REMARK    9  A    between atoms: C_9  and  O_14
REMARK   10  A    between atoms: C_10  and  N_11
REMARK   11  A    between atoms: N_11  and  C_12
REMARK   12  A    between atoms: N_11  and  C_13
REMARK   13  A    between atoms: C_15  and  C_16
REMARK   14  A    between atoms: C_16  and  C_17
REMARK   15  A    between atoms: C_16  and  O_21
REMARK   16  A    between atoms: C_17  and  N_18
REMARK   17  A    between atoms: N_18  and  C_19
REMARK   18  A    between atoms: N_18  and  C_20
REMARK   19  A    between atoms: C_22  and  C_23
REMARK   20  A    between atoms: N_25  and  C_26
REMARK   21  A    between atoms: C_29  and  C_32
REMARK   22  A    between atoms: C_32  and  O_34
REMARK   23  A    between atoms: C_35  and  C_36
REMARK   24  A    between atoms: N_38  and  C_39
REMARK   25  A    between atoms: C_42  and  C_45
REMARK   26  A    between atoms: C_45  and  O_47
REMARK   27  A    between atoms: C_48  and  C_49
REMARK   28  A    between atoms: N_51  and  C_52
REMARK   29  A    between atoms: C_55  and  C_58
REMARK   30  A    between atoms: C_58  and  O_60
REMARK   31  A    between atoms: N9_70  and  C1*_71
REMARK   32  A    between atoms: C2*_73  and  O2*_83
REMARK   33  A    between atoms: C3*_75  and  O3*_82
REMARK   34  A    between atoms: C4*_77  and  C5*_80
REMARK   35  A    between atoms: C5*_80  and  O5*_81
REMARK                            x       y       z     vdW  Elec       q    Type
REMARK                         _______ _______ _______ _____ _____    ______ ____
ROOT
ATOM      1  C   UNL     1      -0.679   3.303   1.551  0.00  0.00    +0.039 C 
ATOM      2  C   UNL     1       0.793   3.512   1.838  0.00  0.00    +0.125 C 
ENDROOT
BRANCH   2   3
ATOM      3  O   UNL     1       1.031   3.381   3.262  0.00  0.00    -0.391 OA
ATOM      4  H   UNL     1       1.383   2.489   3.490  0.00  0.00    +0.210 HD
ENDBRANCH   2   3
BRANCH   2   5
ATOM      5  C   UNL     1       1.943   4.368   1.238  0.00  0.00    +0.114 C 
BRANCH   5   6
ATOM      6  N   UNL     1       1.941   4.676  -0.163  0.00  0.00    -0.306 NA
ATOM      7  C   UNL     1       2.940   5.683  -0.454  0.00  0.00    +0.104 C 
ATOM      8  C   UNL     1       0.602   4.988  -0.589  0.00  0.00    +0.104 C 
ENDBRANCH   5   6
ENDBRANCH   2   5
TORSDOF 3
REMARK  Name = 
REMARK  35 active torsions:
REMARK  status: ('A' for Active; 'I' for Inactive)
REMARK    1  A    between atoms: C_1  and  C_2
REMARK    2  A    between atoms: C_2  and  C_3
REMARK    3  A    between atoms: C_2  and  O_7
REMARK    4  A    between atoms: C_3  and  N_4
REMARK    5  A    between atoms: N_4  and  C_5
REMARK    6  A    between atoms: N_4  and  C_6
REMARK    7  A    between atoms: C_8  and  C_9
REMARK    8  A    between atoms: C_9  and  C_10
REMARK    9  A    between atoms: C_9  and  O_14
REMARK   10  A    between atoms: C_10  and  N_11
REMARK   11  A    between atoms: N_11  and  C_12
REMARK   12  A    between atoms: N_11  and  C_13
REMARK   13  A    between atoms: C_15  and  C_16
REMARK   14  A    between atoms: C_16  and  C_17
REMARK   15  A    between atoms: C_16  and  O_21
REMARK   16  A    between atoms: C_17  and  N_18
REMARK   17  A    between atoms: N_18  and  C_19
REMARK   18  A    between atoms: N_18  and  C_20
REMARK   19  A    between atoms: C_22  and  C_23
REMARK   20  A    between atoms: N_25  and  C_26
REMARK   21  A    between atoms: C_29  and  C_32
REMARK   22  A    between atoms: C_32  and  O_34
REMARK   23  A    between atoms: C_35  and  C_36
REMARK   24  A    between atoms: N_38  and  C_39
REMARK   25  A    between atoms: C_42  and  C_45
REMARK   26  A    between atoms: C_45  and  O_47
REMARK   27  A    between atoms: C_48  and  C_49
REMARK   28  A    between atoms: N_51  and  C_52
REMARK   29  A    between atoms: C_55  and  C_58
REMARK   30  A    between atoms: C_58  and  O_60
REMARK   31  A    between atoms: N9_70  and  C1*_71
REMARK   32  A    between atoms: C2*_73  and  O2*_83
REMARK   33  A    between atoms: C3*_75  and  O3*_82
REMARK   34  A    between atoms: C4*_77  and  C5*_80
REMARK   35  A    between atoms: C5*_80  and  O5*_81
REMARK                            x       y       z     vdW  Elec       q    Type
REMARK                         _______ _______ _______ _____ _____    ______ ____
ROOT
ATOM      1  C   UNL     1       0.967   0.743   1.912  0.00  0.00    +0.039 C 
ATOM      2  C   UNL     1       2.404   1.448   0.969  0.00  0.00    +0.125 C 
ENDROOT
BRANCH   2   3
ATOM      3  O   UNL     1       2.806   2.040   2.559  0.00  0.00    -0.391 OA
ATOM      4  H   UNL     1       2.825   3.004   2.671  0.00  0.00    +0.210 HD
ENDBRANCH   2   3
BRANCH   2   5
ATOM      5  C   UNL     1       3.585   0.687  -0.601  0.00  0.00    +0.114 C 
BRANCH   5   6
ATOM      6  N   UNL     1       4.495   0.707  -2.282  0.00  0.00    -0.306 NA
ATOM      7  C   UNL     1       5.444   1.852  -2.918  0.00  0.00    +0.104 C 
ATOM      8  C   UNL     1       5.370  -0.476  -2.839  0.00  0.00    +0.104 C 
ENDBRANCH   5   6
ENDBRANCH   2   5
TORSDOF 3
REMARK  Name = 
REMARK  35 active torsions:
REMARK  status: ('A' for Active; 'I' for Inactive)
REMARK    1  A    between atoms: C_1  and  C_2
REMARK    2  A    between atoms: C_2  and  C_3
REMARK    3  A    between atoms: C_2  and  O_7
REMARK    4  A    between atoms: C_3  and  N_4
REMARK    5  A    between atoms: N_4  and  C_5
REMARK    6  A    between atoms: N_4  and  C_6
REMARK    7  A    between atoms: C_8  and  C_9
REMARK    8  A    between atoms: C_9  and  C_10
REMARK    9  A    between atoms: C_9  and  O_14
REMARK   10  A    between atoms: C_10  and  N_11
REMARK   11  A    between atoms: N_11  and  C_12
REMARK   12  A    between atoms: N_11  and  C_13
REMARK   13  A    between atoms: C_15  and  C_16
REMARK   14  A    between atoms: C_16  and  C_17
REMARK   15  A    between atoms: C_16  and  O_21
REMARK   16  A    between atoms: C_17  and  N_18
REMARK   17  A    between atoms: N_18  and  C_19
REMARK   18  A    between atoms: N_18  and  C_20
REMARK   19  A    between atoms: C_22  and  C_23
REMARK   20  A    between atoms: N_25  and  C_26
REMARK   21  A    between atoms: C_29  and  C_32
REMARK   22  A    between atoms: C_32  and  O_34
REMARK   23  A    between atoms: C_35  and  C_36
REMARK   24  A    between atoms: N_38  and  C_39
REMARK   25  A    between atoms: C_42  and  C_45
REMARK   26  A    between atoms: C_45  and  O_47
REMARK   27  A    between atoms: C_48  and  C_49
REMARK   28  A    between atoms: N_51  and  C_52
REMARK   29  A    between atoms: C_55  and  C_58
REMARK   30  A    between atoms: C_58  and  O_60
REMARK   31  A    between atoms: N9_70  and  C1*_71
REMARK   32  A    between atoms: C2*_73  and  O2*_83
REMARK   33  A    between atoms: C3*_75  and  O3*_82
REMARK   34  A    between atoms: C4*_77  and  C5*_80
REMARK   35  A    between atoms: C5*_80  and  O5*_81
REMARK                            x       y       z     vdW  Elec       q    Type
REMARK                         _______ _______ _______ _____ _____    ______ ____
ROOT
ATOM      1  C   UNL     1       0.177  -1.034  -3.302  0.00  0.00    +0.039 C 
ATOM      2  C   UNL     1       1.443  -0.704  -2.661  0.00  0.00    +0.125 C 
ENDROOT
BRANCH   2   3
ATOM      3  O   UNL     1       1.044   0.450  -2.033  0.00  0.00    -0.391 OA
ATOM      4  H   UNL     1       1.018   0.392  -1.061  0.00  0.00    +0.210 HD
ENDBRANCH   2   3
BRANCH   2   5
ATOM      5  C   UNL     1       2.704  -1.164  -3.341  0.00  0.00    +0.114 C 
BRANCH   5   6
ATOM      6  N   UNL     1       2.959  -2.622  -3.391  0.00  0.00    -0.306 NA
ATOM      7  C   UNL     1       3.847  -2.968  -4.466  0.00  0.00    +0.104 C 
ATOM      8  C   UNL     1       1.844  -3.519  -3.298  0.00  0.00    +0.104 C 
ENDBRANCH   5   6
ENDBRANCH   2   5
TORSDOF 3
REMARK  Name = 
REMARK  35 active torsions:
REMARK  status: ('A' for Active; 'I' for Inactive)
REMARK    1  A    between atoms: C_1  and  C_2
REMARK    2  A    between atoms: C_2  and  C_3
REMARK    3  A    between atoms: C_2  and  O_7
REMARK    4  A    between atoms: C_3  and  N_4
REMARK    5  A    between atoms: N_4  and  C_5
REMARK    6  A    between atoms: N_4  and  C_6
REMARK    7  A    between atoms: C_8  and  C_9
REMARK    8  A    between atoms: C_9  and  C_10
REMARK    9  A    between atoms: C_9  and  O_14
REMARK   10  A    between atoms: C_10  and  N_11
REMARK   11  A    between atoms: N_11  and  C_12
REMARK   12  A    between atoms: N_11  and  C_13
REMARK   13  A    between atoms: C_15  and  C_16
REMARK   14  A    between atoms: C_16  and  C_17
REMARK   15  A    between atoms: C_16  and  O_21
REMARK   16  A    between atoms: C_17  and  N_18
REMARK   17  A    between atoms: N_18  and  C_19
REMARK   18  A    between atoms: N_18  and  C_20
REMARK   19  A    between atoms: C_22  and  C_23
REMARK   20  A    between atoms: N_25  and  C_26
REMARK   21  A    between atoms: C_29  and  C_32
REMARK   22  A    between atoms: C_32  and  O_34
REMARK   23  A    between atoms: C_35  and  C_36
REMARK   24  A    between atoms: N_38  and  C_39
REMARK   25  A    between atoms: C_42  and  C_45
REMARK   26  A    between atoms: C_45  and  O_47
REMARK   27  A    between atoms: C_48  and  C_49
REMARK   28  A    between atoms: N_51  and  C_52
REMARK   29  A    between atoms: C_55  and  C_58
REMARK   30  A    between atoms: C_58  and  O_60
REMARK   31  A    between atoms: N9_70  and  C1*_71
REMARK   32  A    between atoms: C2*_73  and  O2*_83
REMARK   33  A    between atoms: C3*_75  and  O3*_82
REMARK   34  A    between atoms: C4*_77  and  C5*_80
REMARK   35  A    between atoms: C5*_80  and  O5*_81
REMARK                            x       y       z     vdW  Elec       q    Type
REMARK                         _______ _______ _______ _____ _____    ______ ____
ROOT
ATOM      1  C   UNL     1       3.036  -1.598   4.633  0.00  0.00    +0.033 A 
ATOM      2  C   UNL     1       2.896  -0.383   5.286  0.00  0.00    +0.024 A 
ATOM      3  C   UNL     1       1.854  -0.352   6.217  0.00  0.00    +0.017 A 
ATOM      4  C   UNL     1       0.899  -1.415   6.248  0.00  0.00    +0.059 A 
ATOM      5  C   UNL     1       1.122  -2.551   5.504  0.00  0.00    +0.017 A 
ATOM      6  C   UNL     1       2.331  -2.731   4.953  0.00  0.00    +0.024 A 
ENDROOT
BRANCH   1   9
ATOM      7  C   UNL     1       1.008  -2.341   2.561  0.00  0.00    +0.109 C 
ATOM      8  C   UNL     1       2.679  -2.386   2.462  0.00  0.00    +0.214 C 
ATOM      9  N   UNL     1       3.444  -1.693   3.345  0.00  0.00    -0.286 N 
ATOM     10  H   UNL     1       4.433  -1.641   3.069  0.00  0.00    +0.155 HD
ATOM     11  O   UNL     1       3.338  -2.809   1.466  0.00  0.00    -0.276 OA
ENDBRANCH   1   9
BRANCH   4  12
ATOM     12  C   UNL     1      -0.340  -1.642   7.032  0.00  0.00    +0.337 C 
ATOM     13  O   UNL     1      -1.078  -2.592   6.833  0.00  0.00    -0.245 OA
BRANCH  12  14
ATOM     14  O   UNL     1      -0.523  -0.791   8.043  0.00  0.00    -0.477 OA
ATOM     15  H   UNL     1       0.095  -0.044   8.045  0.00  0.00    +0.295 HD
ENDBRANCH  12  14
ENDBRANCH   4  12
TORSDOF 3
REMARK  Name = 
REMARK  35 active torsions:
REMARK  status: ('A' for Active; 'I' for Inactive)
REMARK    1  A    between atoms: C_1  and  C_2
REMARK    2  A    between atoms: C_2  and  C_3
REMARK    3  A    between atoms: C_2  and  O_7
REMARK    4  A    between atoms: C_3  and  N_4
REMARK    5  A    between atoms: N_4  and  C_5
REMARK    6  A    between atoms: N_4  and  C_6
REMARK    7  A    between atoms: C_8  and  C_9
REMARK    8  A    between atoms: C_9  and  C_10
REMARK    9  A    between atoms: C_9  and  O_14
REMARK   10  A    between atoms: C_10  and  N_11
REMARK   11  A    between atoms: N_11  and  C_12
REMARK   12  A    between atoms: N_11  and  C_13
REMARK   13  A    between atoms: C_15  and  C_16
REMARK   14  A    between atoms: C_16  and  C_17
REMARK   15  A    between atoms: C_16  and  O_21
REMARK   16  A    between atoms: C_17  and  N_18
REMARK   17  A    between atoms: N_18  and  C_19
REMARK   18  A    between atoms: N_18  and  C_20
REMARK   19  A    between atoms: C_22  and  C_23
REMARK   20  A    between atoms: N_25  and  C_26
REMARK   21  A    between atoms: C_29  and  C_32
REMARK   22  A    between atoms: C_32  and  O_34
REMARK   23  A    between atoms: C_35  and  C_36
REMARK   24  A    between atoms: N_38  and  C_39
REMARK   25  A    between atoms: C_42  and  C_45
REMARK   26  A    between atoms: C_45  and  O_47
REMARK   27  A    between atoms: C_48  and  C_49
REMARK   28  A    between atoms: N_51  and  C_52
REMARK   29  A    between atoms: C_55  and  C_58
REMARK   30  A    between atoms: C_58  and  O_60
REMARK   31  A    between atoms: N9_70  and  C1*_71
REMARK   32  A    between atoms: C2*_73  and  O2*_83
REMARK   33  A    between atoms: C3*_75  and  O3*_82
REMARK   34  A    between atoms: C4*_77  and  C5*_80
REMARK   35  A    between atoms: C5*_80  and  O5*_81
REMARK                            x       y       z     vdW  Elec       q    Type
REMARK                         _______ _______ _______ _____ _____    ______ ____
ROOT
ATOM      1  C   UNL     1       5.904   1.241  -0.311  0.00  0.00    +0.033 A 
ATOM      2  C   UNL     1       6.564   0.785   1.011  0.00  0.00    +0.024 A 
ATOM      3  C   UNL     1       7.358  -0.327   1.703  0.00  0.00    +0.017 A 
ATOM      4  C   UNL     1       7.395  -1.475   1.034  0.00  0.00    +0.059 A 
ATOM      5  C   UNL     1       7.099  -1.179  -0.312  0.00  0.00    +0.017 A 
ATOM      6  C   UNL     1       6.652   0.209  -0.924  0.00  0.00    +0.024 A 
ENDROOT
BRANCH   1   9
ATOM      7  C   UNL     1       1.438   2.673  -2.016  0.00  0.00    +0.109 C 
ATOM      8  C   UNL     1       3.256   2.727  -2.022  0.00  0.00    +0.214 C 
ATOM      9  N   UNL     1       4.511   2.499  -0.781  0.00  0.00    -0.286 N 
ATOM     10  H   UNL     1       4.037   2.723   0.088  0.00  0.00    +0.155 HD
ATOM     11  O   UNL     1       3.435   2.908  -3.256  0.00  0.00    -0.276 OA
ENDBRANCH   1   9
BRANCH   4  12
ATOM     12  C   UNL     1       7.145  -2.825   1.707  0.00  0.00    +0.337 C 
ATOM     13  O   UNL     1       6.838  -3.825   1.072  0.00  0.00    -0.245 OA
BRANCH  12  14
ATOM     14  O   UNL     1       7.181  -2.900   3.067  0.00  0.00    -0.477 OA
ATOM     15  H   UNL     1       7.423  -2.132   3.607  0.00  0.00    +0.295 HD
ENDBRANCH  12  14
ENDBRANCH   4  12
TORSDOF 3
REMARK  Name = 
REMARK  35 active torsions:
REMARK  status: ('A' for Active; 'I' for Inactive)
REMARK    1  A    between atoms: C_1  and  C_2
REMARK    2  A    between atoms: C_2  and  C_3
REMARK    3  A    between atoms: C_2  and  O_7
REMARK    4  A    between atoms: C_3  and  N_4
REMARK    5  A    between atoms: N_4  and  C_5
REMARK    6  A    between atoms: N_4  and  C_6
REMARK    7  A    between atoms: C_8  and  C_9
REMARK    8  A    between atoms: C_9  and  C_10
REMARK    9  A    between atoms: C_9  and  O_14
REMARK   10  A    between atoms: C_10  and  N_11
REMARK   11  A    between atoms: N_11  and  C_12
REMARK   12  A    between atoms: N_11  and  C_13
REMARK   13  A    between atoms: C_15  and  C_16
REMARK   14  A    between atoms: C_16  and  C_17
REMARK   15  A    between atoms: C_16  and  O_21
REMARK   16  A    between atoms: C_17  and  N_18
REMARK   17  A    between atoms: N_18  and  C_19
REMARK   18  A    between atoms: N_18  and  C_20
REMARK   19  A    between atoms: C_22  and  C_23
REMARK   20  A    between atoms: N_25  and  C_26
REMARK   21  A    between atoms: C_29  and  C_32
REMARK   22  A    between atoms: C_32  and  O_34
REMARK   23  A    between atoms: C_35  and  C_36
REMARK   24  A    between atoms: N_38  and  C_39
REMARK   25  A    between atoms: C_42  and  C_45
REMARK   26  A    between atoms: C_45  and  O_47
REMARK   27  A    between atoms: C_48  and  C_49
REMARK   28  A    between atoms: N_51  and  C_52
REMARK   29  A    between atoms: C_55  and  C_58
REMARK   30  A    between atoms: C_58  and  O_60
REMARK   31  A    between atoms: N9_70  and  C1*_71
REMARK   32  A    between atoms: C2*_73  and  O2*_83
REMARK   33  A    between atoms: C3*_75  and  O3*_82
REMARK   34  A    between atoms: C4*_77  and  C5*_80
REMARK   35  A    between atoms: C5*_80  and  O5*_81
REMARK                            x       y       z     vdW  Elec       q    Type
REMARK                         _______ _______ _______ _____ _____    ______ ____
ROOT
ATOM      1  C   UNL     1       5.657   3.017   1.758  0.00  0.00    +0.033 A 
ATOM      2  C   UNL     1       6.621   2.920   2.765  0.00  0.00    +0.024 A 
ATOM      3  C   UNL     1       7.994   2.750   2.331  0.00  0.00    +0.017 A 
ATOM      4  C   UNL     1       8.418   3.018   1.003  0.00  0.00    +0.059 A 
ATOM      5  C   UNL     1       7.479   3.599   0.165  0.00  0.00    +0.017 A 
ATOM      6  C   UNL     1       6.144   3.729   0.612  0.00  0.00    +0.024 A 
ENDROOT
BRANCH   1   9
ATOM      7  C   UNL     1       2.755  -0.805   0.711  0.00  0.00    +0.109 C 
ATOM      8  C   UNL     1       4.323  -0.033   1.469  0.00  0.00    +0.214 C 
ATOM      9  N   UNL     1       4.519   1.725   1.627  0.00  0.00    -0.286 N 
ATOM     10  H   UNL     1       4.233   1.755   2.615  0.00  0.00    +0.155 HD
ATOM     11  O   UNL     1       5.054  -0.854   1.954  0.00  0.00    -0.276 OA
ENDBRANCH   1   9
BRANCH   4  12
ATOM     12  C   UNL     1       9.710   2.602   0.356  0.00  0.00    +0.337 C 
ATOM     13  O   UNL     1       9.987   2.900  -0.794  0.00  0.00    -0.245 OA
BRANCH  12  14
ATOM     14  O   UNL     1      10.546   1.869   1.118  0.00  0.00    -0.477 OA
ATOM     15  H   UNL     1      10.251   1.629   2.008  0.00  0.00    +0.295 HD
ENDBRANCH  12  14
ENDBRANCH   4  12
TORSDOF 3
REMARK  Name = 
REMARK  35 active torsions:
REMARK  status: ('A' for Active; 'I' for Inactive)
REMARK    1  A    between atoms: C_1  and  C_2
REMARK    2  A    between atoms: C_2  and  C_3
REMARK    3  A    between atoms: C_2  and  O_7
REMARK    4  A    between atoms: C_3  and  N_4
REMARK    5  A    between atoms: N_4  and  C_5
REMARK    6  A    between atoms: N_4  and  C_6
REMARK    7  A    between atoms: C_8  and  C_9
REMARK    8  A    between atoms: C_9  and  C_10
REMARK    9  A    between atoms: C_9  and  O_14
REMARK   10  A    between atoms: C_10  and  N_11
REMARK   11  A    between atoms: N_11  and  C_12
REMARK   12  A    between atoms: N_11  and  C_13
REMARK   13  A    between atoms: C_15  and  C_16
REMARK   14  A    between atoms: C_16  and  C_17
REMARK   15  A    between atoms: C_16  and  O_21
REMARK   16  A    between atoms: C_17  and  N_18
REMARK   17  A    between atoms: N_18  and  C_19
REMARK   18  A    between atoms: N_18  and  C_20
REMARK   19  A    between atoms: C_22  and  C_23
REMARK   20  A    between atoms: N_25  and  C_26
REMARK   21  A    between atoms: C_29  and  C_32
REMARK   22  A    between atoms: C_32  and  O_34
REMARK   23  A    between atoms: C_35  and  C_36
REMARK   24  A    between atoms: N_38  and  C_39
REMARK   25  A    between atoms: C_42  and  C_45
REMARK   26  A    between atoms: C_45  and  O_47
REMARK   27  A    between atoms: C_48  and  C_49
REMARK   28  A    between atoms: N_51  and  C_52
REMARK   29  A    between atoms: C_55  and  C_58
REMARK   30  A    between atoms: C_58  and  O_60
REMARK   31  A    between atoms: N9_70  and  C1*_71
REMARK   32  A    between atoms: C2*_73  and  O2*_83
REMARK   33  A    between atoms: C3*_75  and  O3*_82
REMARK   34  A    between atoms: C4*_77  and  C5*_80
REMARK   35  A    between atoms: C5*_80  and  O5*_81
REMARK                            x       y       z     vdW  Elec       q    Type
REMARK                         _______ _______ _______ _____ _____    ______ ____
ROOT
ATOM      1  C1*   I A   1       1.001  -4.098   0.397  0.00  0.00    +0.253 C 
ATOM      2  O4*   I A   1       1.037  -5.108  -0.652  0.00  0.00    -0.346 OA
ATOM      3  C4*   I A   1       1.540  -6.290  -0.012  0.00  0.00    +0.177 C 
ATOM      4  C3*   I A   1       2.592  -5.936   0.996  0.00  0.00    +0.178 C 
ATOM      5  C2*   I A   1       1.900  -4.850   1.749  0.00  0.00    +0.195 C 
ENDROOT
BRANCH   1  14
ATOM      6  C2    I A   1      -3.804  -1.781  -0.130  0.00  0.00    +0.201 A 
ATOM      7  N1    I A   1      -3.556  -0.439  -0.068  0.00  0.00    -0.312 N 
ATOM      8  H1    I A   1      -4.191   0.361  -0.328  0.00  0.00    +0.170 HD
ATOM      9  C6    I A   1      -2.267   0.058   0.070  0.00  0.00    +0.279 A 
ATOM     10  O6    I A   1      -1.991   1.243  -0.083  0.00  0.00    -0.265 OA
ATOM     11  C5    I A   1      -1.347  -1.108   0.218  0.00  0.00    +0.172 A 
ATOM     12  N7    I A   1      -0.124  -0.893  -0.255  0.00  0.00    -0.229 NA
ATOM     13  C8    I A   1       0.300  -2.071  -0.583  0.00  0.00    +0.203 A 
ATOM     14  N9    I A   1      -0.302  -3.167   0.102  0.00  0.00    -0.285 N 
ATOM     15  C4    I A   1      -1.610  -2.436   0.384  0.00  0.00    +0.169 A 
ATOM     16  N3    I A   1      -2.976  -2.772   0.117  0.00  0.00    -0.218 NA
ENDBRANCH   1  14
BRANCH   4  17
ATOM     17  O3*   I A   1       3.812  -5.485   0.356  0.00  0.00    -0.386 OA
ATOM     18  H3*   I A   1       4.486  -5.239   1.036  0.00  0.00    +0.210 HD
ENDBRANCH   4  17
BRANCH   5  19
ATOM     19  O2*   I A   1       3.087  -4.591   2.561  0.00  0.00    -0.385 OA
ATOM     20  H2*   I A   1       3.729  -4.068   1.999  0.00  0.00    +0.210 HD
ENDBRANCH   5  19
BRANCH   3  21
ATOM     21  C5*   I A   1       0.300  -6.866   0.674  0.00  0.00    +0.190 C 
BRANCH  21  22
ATOM     22  O5*   I A   1      -0.448  -5.919   1.465  0.00  0.00    -0.392 OA
ATOM     23  H5*   I A   1      -1.087  -5.461   0.885  0.00  0.00    +0.210 HD
ENDBRANCH  21  22
ENDBRANCH   3  21
TORSDOF 5
