REMARK  Name = 
REMARK  3 active torsions:
REMARK  status: ('A' for Active; 'I' for Inactive)
REMARK    1  A    between atoms: C_3  and  N_8
REMARK    2  A    between atoms: C_5  and  C_6
REMARK    3  A    between atoms: C_6  and  O_7
REMARK                            x       y       z     vdW  Elec       q    Type
REMARK                         _______ _______ _______ _____ _____    ______ ____
ROOT
ATOM      1  N   UNL     1      -0.133   1.466  -1.742  0.00  0.00    -0.288 N 
ATOM      2  C   UNL     1      -1.121   2.200  -2.344  0.00  0.00    +0.169 A 
ATOM      3  N   UNL     1      -2.204   2.755  -1.745  0.00  0.00    -0.218 NA
ATOM      4  C   UNL     1      -2.980   3.362  -2.590  0.00  0.00    +0.201 A 
ATOM      5  N   UNL     1      -2.768   3.455  -3.954  0.00  0.00    -0.312 N 
ATOM      6  H   UNL     1      -3.421   3.936  -4.552  0.00  0.00    +0.170 HD
ATOM      7  C   UNL     1      -1.668   2.909  -4.599  0.00  0.00    +0.279 A 
ATOM      8  O   UNL     1      -1.512   3.011  -5.811  0.00  0.00    -0.265 OA
ATOM      9  C   UNL     1      -0.779   2.228  -3.680  0.00  0.00    +0.172 A 
ATOM     10  N   UNL     1       0.403   1.583  -3.912  0.00  0.00    -0.229 NA
ATOM     11  C   UNL     1       0.783   1.166  -2.723  0.00  0.00    +0.203 A 
ENDROOT
BRANCH   1  15
ATOM     12  C   UNL     1      -0.775  -1.085   0.011  0.00  0.00    +0.038 C 
ATOM     13  C   UNL     1       0.737  -1.031   0.142  0.00  0.00    +0.146 C 
ATOM     14  O   UNL     1       1.146   0.331  -0.121  0.00  0.00    -0.351 OA
ATOM     15  C   UNL     1      -0.030   1.147  -0.327  0.00  0.00    +0.222 C 
ATOM     16  C   UNL     1      -1.191   0.346   0.246  0.00  0.00    +0.057 C 
BRANCH  13  17
ATOM     17  C   UNL     1       1.441  -1.974  -0.836  0.00  0.00    +0.187 C 
BRANCH  17  18
ATOM     18  O   UNL     1       2.854  -1.891  -0.670  0.00  0.00    -0.392 OA
ATOM     19  H   UNL     1       3.082  -0.945  -0.740  0.00  0.00    +0.210 HD
ENDBRANCH  17  18
ENDBRANCH  13  17
ENDBRANCH   1  15
TORSDOF 3
