REMARK  Name = 
REMARK  11 active torsions:
REMARK  status: ('A' for Active; 'I' for Inactive)
REMARK    1  A    between atoms: C_1  and  C_2
REMARK    2  A    between atoms: C_2  and  C_3
REMARK    3  A    between atoms: C_2  and  C_4
REMARK    4  A    between atoms: C_4  and  C_5
REMARK    5  A    between atoms: C_4  and  N_23
REMARK    6  A    between atoms: C_5  and  O_7
REMARK    7  A    between atoms: O_7  and  C_8
REMARK    8  A    between atoms: C_8  and  C_9
REMARK    9  A    between atoms: C_9  and  O_10
REMARK   10  A    between atoms: O_10  and  C_11
REMARK   11  A    between atoms: C_11  and  N_12
REMARK                            x       y       z     vdW  Elec       q    Type
REMARK                         _______ _______ _______ _____ _____    ______ ____
ROOT
ATOM      1  C   UNL     1      -2.787  -4.995   1.616  0.00  0.00    +0.287 C 
ENDROOT
BRANCH   1   2
ATOM      2  N   UNL     1      -3.169  -6.386   1.751  0.00  0.00    -0.291 N 
ATOM      3  C   UNL     1      -4.317  -6.967   1.291  0.00  0.00    +0.171 A 
ATOM      4  N   UNL     1      -5.323  -6.363   0.610  0.00  0.00    -0.196 NA
ATOM      5  C   UNL     1      -6.297  -7.180   0.302  0.00  0.00    +0.195 A 
ATOM      6  N   UNL     1      -7.380  -6.726  -0.376  0.00  0.00    -0.329 N 
ATOM      7  H   UNL     1      -7.852  -7.374  -0.992  0.00  0.00    +0.145 HD
ATOM      8  H   UNL     1      -7.233  -5.812  -0.789  0.00  0.00    +0.145 HD
ATOM      9  N   UNL     1      -6.305  -8.525   0.618  0.00  0.00    -0.293 N 
ATOM     10  H   UNL     1      -7.097  -9.098   0.384  0.00  0.00    +0.172 HD
ATOM     11  C   UNL     1      -5.305  -9.175   1.326  0.00  0.00    +0.280 A 
ATOM     12  O   UNL     1      -5.375 -10.370   1.598  0.00  0.00    -0.265 OA
ATOM     13  C   UNL     1      -4.223  -8.286   1.680  0.00  0.00    +0.172 A 
ATOM     14  N   UNL     1      -3.068  -8.529   2.376  0.00  0.00    -0.229 NA
ATOM     15  C   UNL     1      -2.456  -7.363   2.402  0.00  0.00    +0.203 A 
ENDBRANCH   1   2
BRANCH   1  16
ATOM     16  O   UNL     1      -1.363  -4.915   1.595  0.00  0.00    -0.356 OA
BRANCH  16  17
ATOM     17  C   UNL     1      -0.895  -3.566   1.563  0.00  0.00    +0.203 C 
BRANCH  17  18
ATOM     18  C   UNL     1       0.633  -3.583   1.631  0.00  0.00    +0.260 C 
BRANCH  18  19
ATOM     19  O   UNL     1       1.101  -4.151   2.871  0.00  0.00    -0.461 OA
BRANCH  19  20
ATOM     20  C   UNL     1       1.041  -3.330   3.954  0.00  0.00    +0.324 C 
ATOM     21  O   UNL     1       0.622  -2.178   3.937  0.00  0.00    -0.249 OA
BRANCH  20  22
ATOM     22  C   UNL     1       1.585  -4.038   5.210  0.00  0.00    +0.163 C 
BRANCH  22  24
ATOM     23  C   UNL     1      -0.308  -5.752   5.206  0.00  0.00    +0.009 C 
ATOM     24  C   UNL     1       0.447  -4.699   6.024  0.00  0.00    +0.010 C 
ATOM     25  C   UNL     1       0.973  -5.361   7.305  0.00  0.00    +0.009 C 
ENDBRANCH  22  24
BRANCH  22  26
ATOM     26  N   UNL     1       2.294  -3.034   6.045  0.00  0.00    -0.318 NA
ATOM     27  H   UNL     1       3.014  -2.585   5.476  0.00  0.00    +0.119 HD
ATOM     28  H   UNL     1       1.631  -2.284   6.260  0.00  0.00    +0.119 HD
ENDBRANCH  22  26
ENDBRANCH  20  22
ENDBRANCH  19  20
ENDBRANCH  18  19
ENDBRANCH  17  18
ENDBRANCH  16  17
ENDBRANCH   1  16
TORSDOF 9
