REMARK  Name = 
REMARK  3 active torsions:
REMARK  status: ('A' for Active; 'I' for Inactive)
REMARK    1  A    between atoms: C_3  and  N_10
REMARK    2  A    between atoms: C_6  and  C_8
REMARK    3  A    between atoms: C_8  and  O_9
REMARK                            x       y       z     vdW  Elec       q    Type
REMARK                         _______ _______ _______ _____ _____    ______ ____
ROOT
ATOM      1  N   UNL     1      -0.074   1.454  -1.721  0.00  0.00    -0.288 N 
ATOM      2  C   UNL     1      -0.945   2.296  -2.361  0.00  0.00    +0.169 A 
ATOM      3  N   UNL     1      -2.010   2.933  -1.816  0.00  0.00    -0.218 NA
ATOM      4  C   UNL     1      -2.644   3.669  -2.680  0.00  0.00    +0.201 A 
ATOM      5  N   UNL     1      -2.300   3.818  -4.012  0.00  0.00    -0.312 N 
ATOM      6  H   UNL     1      -2.836   4.417  -4.622  0.00  0.00    +0.170 HD
ATOM      7  C   UNL     1      -1.212   3.192  -4.600  0.00  0.00    +0.279 A 
ATOM      8  O   UNL     1      -0.928   3.363  -5.781  0.00  0.00    -0.265 OA
ATOM      9  C   UNL     1      -0.492   2.355  -3.663  0.00  0.00    +0.172 A 
ATOM     10  N   UNL     1       0.623   1.583  -3.843  0.00  0.00    -0.229 NA
ATOM     11  C   UNL     1       0.860   1.068  -2.653  0.00  0.00    +0.203 A 
ENDROOT
BRANCH   1  15
ATOM     12  C   UNL     1      -0.937  -1.059  -0.028  0.00  0.00    +0.038 C 
ATOM     13  C   UNL     1       0.573  -1.084   0.134  0.00  0.00    +0.146 C 
ATOM     14  O   UNL     1       1.051   0.275  -0.007  0.00  0.00    -0.351 OA
ATOM     15  C   UNL     1      -0.071   1.137  -0.301  0.00  0.00    +0.222 C 
ATOM     16  C   UNL     1      -1.295   0.389   0.205  0.00  0.00    +0.057 C 
BRANCH  13  17
ATOM     17  C   UNL     1       1.040  -1.603   1.494  0.00  0.00    +0.187 C 
BRANCH  17  18
ATOM     18  O   UNL     1       2.467  -1.630   1.526  0.00  0.00    -0.392 OA
ATOM     19  H   UNL     1       2.762  -0.804   1.096  0.00  0.00    +0.210 HD
ENDBRANCH  17  18
ENDBRANCH  13  17
ENDBRANCH   1  15
TORSDOF 3
