REMARK  Name = 
REMARK  3 active torsions:
REMARK  status: ('A' for Active; 'I' for Inactive)
REMARK    1  A    between atoms: C_3  and  N_10
REMARK    2  A    between atoms: C_6  and  C_8
REMARK    3  A    between atoms: C_8  and  O_9
REMARK                            x       y       z     vdW  Elec       q    Type
REMARK                         _______ _______ _______ _____ _____    ______ ____
ROOT
ATOM      1  N   UNL     1       0.035   1.457  -1.681  0.00  0.00    -0.288 N 
ATOM      2  C   UNL     1      -0.781   2.328  -2.353  0.00  0.00    +0.169 A 
ATOM      3  N   UNL     1      -1.835   3.014  -1.844  0.00  0.00    -0.218 NA
ATOM      4  C   UNL     1      -2.402   3.781  -2.729  0.00  0.00    +0.201 A 
ATOM      5  N   UNL     1      -2.006   3.914  -4.048  0.00  0.00    -0.312 N 
ATOM      6  H   UNL     1      -2.491   4.540  -4.675  0.00  0.00    +0.170 HD
ATOM      7  C   UNL     1      -0.934   3.231  -4.603  0.00  0.00    +0.279 A 
ATOM      8  O   UNL     1      -0.607   3.384  -5.774  0.00  0.00    -0.265 OA
ATOM      9  C   UNL     1      -0.286   2.361  -3.641  0.00  0.00    +0.172 A 
ATOM     10  N   UNL     1       0.799   1.541  -3.784  0.00  0.00    -0.229 NA
ATOM     11  C   UNL     1       0.979   1.026  -2.584  0.00  0.00    +0.203 A 
ENDROOT
BRANCH   1  15
ATOM     12  C   UNL     1      -0.894  -1.039  -0.007  0.00  0.00    +0.038 C 
ATOM     13  C   UNL     1       0.619  -1.067   0.147  0.00  0.00    +0.146 C 
ATOM     14  O   UNL     1       1.088   0.302   0.105  0.00  0.00    -0.351 OA
ATOM     15  C   UNL     1      -0.017   1.158  -0.258  0.00  0.00    +0.222 C 
ATOM     16  C   UNL     1      -1.256   0.411   0.207  0.00  0.00    +0.057 C 
BRANCH  13  17
ATOM     17  C   UNL     1       1.087  -1.706   1.455  0.00  0.00    +0.187 C 
BRANCH  17  18
ATOM     18  O   UNL     1       2.512  -1.693   1.518  0.00  0.00    -0.392 OA
ATOM     19  H   UNL     1       2.782  -0.775   1.324  0.00  0.00    +0.210 HD
ENDBRANCH  17  18
ENDBRANCH  13  17
ENDBRANCH   1  15
TORSDOF 3
