REMARK  Name = 
REMARK  13 active torsions:
REMARK  status: ('A' for Active; 'I' for Inactive)
REMARK    1  A    between atoms: C_1  and  C_2
REMARK    2  A    between atoms: C_2  and  C_3
REMARK    3  A    between atoms: C_2  and  C_4
REMARK    4  A    between atoms: C_4  and  C_6
REMARK    5  A    between atoms: C_4  and  N_27
REMARK    6  A    between atoms: C_6  and  O_8
REMARK    7  A    between atoms: O_8  and  C_9
REMARK    8  A    between atoms: C_9  and  C_10
REMARK    9  A    between atoms: C_10  and  C_12
REMARK   10  A    between atoms: C_10  and  O_14
REMARK   11  A    between atoms: C_12  and  O_13
REMARK   12  A    between atoms: O_14  and  C_15
REMARK   13  A    between atoms: C_15  and  N_16
REMARK                            x       y       z     vdW  Elec       q    Type
REMARK                         _______ _______ _______ _____ _____    ______ ____
ROOT
ATOM      1  O   UNL     1      -1.355  -1.469   5.040  0.00  0.00    -0.350 OA
ENDROOT
BRANCH   1   2
ATOM      2  C   UNL     1      -0.898  -0.763   3.867  0.00  0.00    +0.183 C 
BRANCH   2   3
ATOM      3  C   UNL     1       0.633  -0.698   3.768  0.00  0.00    +0.266 C 
BRANCH   3   4
ATOM      4  O   UNL     1       1.186  -2.027   3.767  0.00  0.00    -0.461 OA
BRANCH   4   5
ATOM      5  C   UNL     1       2.089  -2.295   2.782  0.00  0.00    +0.324 C 
ATOM      6  O   UNL     1       2.458  -1.490   1.934  0.00  0.00    -0.249 OA
BRANCH   5   7
ATOM      7  C   UNL     1       2.626  -3.737   2.896  0.00  0.00    +0.163 C 
BRANCH   7   9
ATOM      8  C   UNL     1       3.743  -3.254   5.136  0.00  0.00    +0.009 C 
ATOM      9  C   UNL     1       3.952  -3.753   3.699  0.00  0.00    +0.010 C 
ATOM     10  C   UNL     1       4.592  -5.146   3.760  0.00  0.00    +0.009 C 
ENDBRANCH   7   9
BRANCH   7  11
ATOM     11  N   UNL     1       2.788  -4.260   1.520  0.00  0.00    -0.318 NA
ATOM     12  H   UNL     1       3.375  -3.607   0.995  0.00  0.00    +0.119 HD
ATOM     13  H   UNL     1       3.272  -5.153   1.525  0.00  0.00    +0.119 HD
ENDBRANCH   7  11
ENDBRANCH   5   7
ENDBRANCH   4   5
ENDBRANCH   3   4
ENDBRANCH   2   3
BRANCH   2  14
ATOM     14  C   UNL     1      -1.474  -1.493   2.644  0.00  0.00    +0.190 C 
BRANCH  14  15
ATOM     15  O   UNL     1      -2.897  -1.376   2.637  0.00  0.00    -0.392 OA
ATOM     16  H   UNL     1      -3.199  -1.727   3.495  0.00  0.00    +0.210 HD
ENDBRANCH  14  15
ENDBRANCH   2  14
ENDBRANCH   1   2
BRANCH   1  17
ATOM     17  C   UNL     1      -1.039  -0.798   6.263  0.00  0.00    +0.288 C 
BRANCH  17  18
ATOM     18  N   UNL     1      -1.538  -1.567   7.387  0.00  0.00    -0.291 N 
ATOM     19  C   UNL     1      -1.738  -1.090   8.653  0.00  0.00    +0.171 A 
ATOM     20  N   UNL     1      -1.544   0.182   9.083  0.00  0.00    -0.196 NA
ATOM     21  C   UNL     1      -1.795   0.337  10.358  0.00  0.00    +0.195 A 
ATOM     22  N   UNL     1      -1.637   1.552  10.940  0.00  0.00    -0.329 N 
ATOM     23  H   UNL     1      -2.236   1.781  11.722  0.00  0.00    +0.145 HD
ATOM     24  H   UNL     1      -1.543   2.307  10.269  0.00  0.00    +0.145 HD
ATOM     25  N   UNL     1      -2.236  -0.677  11.184  0.00  0.00    -0.293 N 
ATOM     26  H   UNL     1      -2.381  -0.508  12.165  0.00  0.00    +0.172 HD
ATOM     27  C   UNL     1      -2.426  -1.995  10.786  0.00  0.00    +0.280 A 
ATOM     28  O   UNL     1      -2.789  -2.863  11.574  0.00  0.00    -0.265 OA
ATOM     29  C   UNL     1      -2.141  -2.186   9.382  0.00  0.00    +0.172 A 
ATOM     30  N   UNL     1      -2.166  -3.322   8.614  0.00  0.00    -0.229 NA
ATOM     31  C   UNL     1      -1.780  -2.917   7.420  0.00  0.00    +0.203 A 
ENDBRANCH  17  18
ENDBRANCH   1  17
TORSDOF 11
