REMARK  Name = 
REMARK  11 active torsions:
REMARK  status: ('A' for Active; 'I' for Inactive)
REMARK    1  A    between atoms: C_1  and  C_2
REMARK    2  A    between atoms: C_2  and  C_3
REMARK    3  A    between atoms: C_2  and  C_4
REMARK    4  A    between atoms: C_4  and  C_6
REMARK    5  A    between atoms: C_4  and  N_24
REMARK    6  A    between atoms: C_6  and  O_8
REMARK    7  A    between atoms: O_8  and  C_9
REMARK    8  A    between atoms: C_9  and  C_10
REMARK    9  A    between atoms: C_10  and  O_11
REMARK   10  A    between atoms: O_11  and  C_12
REMARK   11  A    between atoms: C_12  and  N_13
REMARK                            x       y       z     vdW  Elec       q    Type
REMARK                         _______ _______ _______ _____ _____    ______ ____
ROOT
ATOM      1  C   UNL     1      -2.837   4.474   2.777  0.00  0.00    +0.287 C 
ENDROOT
BRANCH   1   2
ATOM      2  N   UNL     1      -3.215   5.489   3.741  0.00  0.00    -0.291 N 
ATOM      3  C   UNL     1      -4.364   5.534   4.481  0.00  0.00    +0.171 A 
ATOM      4  N   UNL     1      -5.400   4.659   4.441  0.00  0.00    -0.196 NA
ATOM      5  C   UNL     1      -6.366   4.968   5.266  0.00  0.00    +0.195 A 
ATOM      6  N   UNL     1      -7.489   4.209   5.324  0.00  0.00    -0.329 N 
ATOM      7  H   UNL     1      -8.012   4.184   6.188  0.00  0.00    +0.145 HD
ATOM      8  H   UNL     1      -7.397   3.308   4.868  0.00  0.00    +0.145 HD
ATOM      9  N   UNL     1      -6.331   6.052   6.122  0.00  0.00    -0.293 N 
ATOM     10  H   UNL     1      -7.110   6.251   6.725  0.00  0.00    +0.172 HD
ATOM     11  C   UNL     1      -5.299   6.977   6.183  0.00  0.00    +0.280 A 
ATOM     12  O   UNL     1      -5.333   7.935   6.950  0.00  0.00    -0.265 OA
ATOM     13  C   UNL     1      -4.233   6.665   5.259  0.00  0.00    +0.172 A 
ATOM     14  N   UNL     1      -3.069   7.335   4.990  0.00  0.00    -0.229 NA
ATOM     15  C   UNL     1      -2.484   6.606   4.062  0.00  0.00    +0.203 A 
ENDBRANCH   1   2
BRANCH   1  16
ATOM     16  O   UNL     1      -1.412   4.382   2.762  0.00  0.00    -0.356 OA
BRANCH  16  17
ATOM     17  C   UNL     1      -0.929   3.448   1.795  0.00  0.00    +0.203 C 
BRANCH  17  18
ATOM     18  C   UNL     1       0.601   3.465   1.829  0.00  0.00    +0.260 C 
BRANCH  18  19
ATOM     19  O   UNL     1       1.116   4.758   1.456  0.00  0.00    -0.461 OA
BRANCH  19  20
ATOM     20  C   UNL     1       1.145   5.017   0.120  0.00  0.00    +0.324 C 
ATOM     21  O   UNL     1       0.801   4.226  -0.751  0.00  0.00    -0.249 OA
BRANCH  20  22
ATOM     22  C   UNL     1       1.620   6.458  -0.154  0.00  0.00    +0.163 C 
BRANCH  22  24
ATOM     23  C   UNL     1       3.917   6.067   0.896  0.00  0.00    +0.009 C 
ATOM     24  C   UNL     1       3.153   6.539  -0.347  0.00  0.00    +0.010 C 
ATOM     25  C   UNL     1       3.606   7.968  -0.684  0.00  0.00    +0.009 C 
ENDBRANCH  22  24
BRANCH  22  26
ATOM     26  N   UNL     1       0.927   6.952  -1.374  0.00  0.00    -0.318 NA
ATOM     27  H   UNL     1       1.142   6.304  -2.137  0.00  0.00    +0.119 HD
ATOM     28  H   UNL     1      -0.081   6.858  -1.237  0.00  0.00    +0.119 HD
ENDBRANCH  22  26
ENDBRANCH  20  22
ENDBRANCH  19  20
ENDBRANCH  18  19
ENDBRANCH  17  18
ENDBRANCH  16  17
ENDBRANCH   1  16
TORSDOF 9
