REMARK  Name = 
REMARK  13 active torsions:
REMARK  status: ('A' for Active; 'I' for Inactive)
REMARK    1  A    between atoms: C_1  and  C_2
REMARK    2  A    between atoms: C_2  and  C_3
REMARK    3  A    between atoms: C_2  and  C_4
REMARK    4  A    between atoms: C_4  and  C_6
REMARK    5  A    between atoms: C_4  and  N_26
REMARK    6  A    between atoms: C_6  and  O_8
REMARK    7  A    between atoms: O_8  and  C_9
REMARK    8  A    between atoms: C_9  and  C_10
REMARK    9  A    between atoms: C_10  and  C_11
REMARK   10  A    between atoms: C_10  and  O_13
REMARK   11  A    between atoms: C_11  and  O_12
REMARK   12  A    between atoms: O_13  and  C_14
REMARK   13  A    between atoms: C_14  and  N_15
REMARK                            x       y       z     vdW  Elec       q    Type
REMARK                         _______ _______ _______ _____ _____    ______ ____
ROOT
ATOM      1  O   UNL     1      -1.236  -1.918  -4.735  0.00  0.00    -0.350 OA
ENDROOT
BRANCH   1   2
ATOM      2  C   UNL     1      -0.765  -1.755  -3.383  0.00  0.00    +0.183 C 
BRANCH   2   3
ATOM      3  C   UNL     1       0.768  -1.763  -3.283  0.00  0.00    +0.266 C 
BRANCH   3   4
ATOM      4  O   UNL     1       1.324  -0.730  -4.116  0.00  0.00    -0.461 OA
BRANCH   4   5
ATOM      5  C   UNL     1       2.230   0.095  -3.518  0.00  0.00    +0.324 C 
ATOM      6  O   UNL     1       2.603  -0.003  -2.354  0.00  0.00    -0.249 OA
BRANCH   5   7
ATOM      7  C   UNL     1       2.762   1.149  -4.511  0.00  0.00    +0.163 C 
BRANCH   7   9
ATOM      8  C   UNL     1       3.887  -0.627  -5.952  0.00  0.00    +0.009 C 
ATOM      9  C   UNL     1       4.091   0.664  -5.146  0.00  0.00    +0.010 C 
ATOM     10  C   UNL     1       4.726   1.714  -6.067  0.00  0.00    +0.009 C 
ENDBRANCH   7   9
BRANCH   7  11
ATOM     11  N   UNL     1       2.919   2.419  -3.767  0.00  0.00    -0.318 NA
ATOM     12  H   UNL     1       3.506   2.243  -2.947  0.00  0.00    +0.119 HD
ATOM     13  H   UNL     1       3.401   3.115  -4.329  0.00  0.00    +0.119 HD
ENDBRANCH   7  11
ENDBRANCH   5   7
ENDBRANCH   4   5
ENDBRANCH   3   4
ENDBRANCH   2   3
BRANCH   2  14
ATOM     14  C   UNL     1      -1.328  -0.420  -2.876  0.00  0.00    +0.190 C 
BRANCH  14  15
ATOM     15  O   UNL     1      -2.752  -0.501  -2.799  0.00  0.00    -0.392 OA
ATOM     16  H   UNL     1      -3.052  -0.780  -3.685  0.00  0.00    +0.210 HD
ENDBRANCH  14  15
ENDBRANCH   2  14
ENDBRANCH   1   2
BRANCH   1  17
ATOM     17  C   UNL     1      -0.951  -3.205  -5.285  0.00  0.00    +0.288 C 
BRANCH  17  18
ATOM     18  N   UNL     1      -1.526  -3.290  -6.612  0.00  0.00    -0.291 N 
ATOM     19  C   UNL     1      -1.979  -4.425  -7.222  0.00  0.00    +0.171 A 
ATOM     20  N   UNL     1      -2.023  -5.671  -6.690  0.00  0.00    -0.196 NA
ATOM     21  C   UNL     1      -2.554  -6.554  -7.494  0.00  0.00    +0.195 A 
ATOM     22  N   UNL     1      -2.680  -7.844  -7.097  0.00  0.00    -0.329 N 
ATOM     23  H   UNL     1      -2.648  -8.564  -7.807  0.00  0.00    +0.145 HD
ATOM     24  H   UNL     1      -2.131  -8.063  -6.272  0.00  0.00    +0.145 HD
ATOM     25  N   UNL     1      -3.006  -6.265  -8.766  0.00  0.00    -0.293 N 
ATOM     26  H   UNL     1      -3.438  -6.978  -9.327  0.00  0.00    +0.172 HD
ATOM     27  C   UNL     1      -2.962  -5.004  -9.353  0.00  0.00    +0.280 A 
ATOM     28  O   UNL     1      -3.376  -4.806 -10.490  0.00  0.00    -0.265 OA
ATOM     29  C   UNL     1      -2.388  -4.013  -8.471  0.00  0.00    +0.172 A 
ATOM     30  N   UNL     1      -2.168  -2.672  -8.658  0.00  0.00    -0.229 NA
ATOM     31  C   UNL     1      -1.645  -2.266  -7.518  0.00  0.00    +0.203 A 
ENDBRANCH  17  18
ENDBRANCH   1  17
TORSDOF 11
