REMARK  Name = 
REMARK  3 active torsions:
REMARK  status: ('A' for Active; 'I' for Inactive)
REMARK    1  A    between atoms: C_3  and  N_10
REMARK    2  A    between atoms: C_6  and  C_8
REMARK    3  A    between atoms: C_8  and  O_9
REMARK                            x       y       z     vdW  Elec       q    Type
REMARK                         _______ _______ _______ _____ _____    ______ ____
ROOT
ATOM      1  N   UNL     1       0.183   2.471   0.556  0.00  0.00    -0.288 N 
ATOM      2  C   UNL     1      -0.279   3.710   0.206  0.00  0.00    +0.169 A 
ATOM      3  N   UNL     1      -1.018   4.023  -0.887  0.00  0.00    -0.218 NA
ATOM      4  C   UNL     1      -1.276   5.295  -0.961  0.00  0.00    +0.201 A 
ATOM      5  N   UNL     1      -0.870   6.251  -0.046  0.00  0.00    -0.312 N 
ATOM      6  H   UNL     1      -1.106   7.225  -0.173  0.00  0.00    +0.170 HD
ATOM      7  C   UNL     1      -0.123   5.965   1.088  0.00  0.00    +0.279 A 
ATOM      8  O   UNL     1       0.216   6.840   1.877  0.00  0.00    -0.265 OA
ATOM      9  C   UNL     1       0.183   4.553   1.196  0.00  0.00    +0.172 A 
ATOM     10  N   UNL     1       0.889   3.868   2.150  0.00  0.00    -0.229 NA
ATOM     11  C   UNL     1       0.874   2.618   1.733  0.00  0.00    +0.203 A 
ENDROOT
BRANCH   1  15
ATOM     12  C   UNL     1      -0.843  -0.955  -0.188  0.00  0.00    +0.038 C 
ATOM     13  C   UNL     1       0.661  -0.992   0.027  0.00  0.00    +0.146 C 
ATOM     14  O   UNL     1       1.127   0.377   0.003  0.00  0.00    -0.351 OA
ATOM     15  C   UNL     1      -0.013   1.244  -0.183  0.00  0.00    +0.222 C 
ATOM     16  C   UNL     1      -1.221   0.437   0.261  0.00  0.00    +0.057 C 
BRANCH  13  17
ATOM     17  C   UNL     1       1.064  -1.610   1.369  0.00  0.00    +0.187 C 
BRANCH  17  18
ATOM     18  O   UNL     1       2.483  -1.581   1.506  0.00  0.00    -0.392 OA
ATOM     19  H   UNL     1       2.763  -0.685   1.239  0.00  0.00    +0.210 HD
ENDBRANCH  17  18
ENDBRANCH  13  17
ENDBRANCH   1  15
TORSDOF 3
