REMARK  Name = 
REMARK  13 active torsions:
REMARK  status: ('A' for Active; 'I' for Inactive)
REMARK    1  A    between atoms: C_1  and  C_2
REMARK    2  A    between atoms: C_2  and  C_3
REMARK    3  A    between atoms: C_2  and  C_4
REMARK    4  A    between atoms: C_4  and  C_6
REMARK    5  A    between atoms: C_4  and  N_27
REMARK    6  A    between atoms: C_6  and  O_8
REMARK    7  A    between atoms: O_8  and  C_9
REMARK    8  A    between atoms: C_9  and  C_10
REMARK    9  A    between atoms: C_10  and  C_12
REMARK   10  A    between atoms: C_10  and  O_14
REMARK   11  A    between atoms: C_12  and  O_13
REMARK   12  A    between atoms: O_14  and  C_15
REMARK   13  A    between atoms: C_15  and  N_16
REMARK                            x       y       z     vdW  Elec       q    Type
REMARK                         _______ _______ _______ _____ _____    ______ ____
ROOT
ATOM      1  O   UNL     1      -1.355  -5.195   0.701  0.00  0.00    -0.350 OA
ENDROOT
BRANCH   1   2
ATOM      2  C   UNL     1      -0.895  -3.836   0.857  0.00  0.00    +0.183 C 
BRANCH   2   3
ATOM      3  C   UNL     1       0.636  -3.723   0.883  0.00  0.00    +0.266 C 
BRANCH   3   4
ATOM      4  O   UNL     1       1.194  -4.282  -0.321  0.00  0.00    -0.461 OA
BRANCH   4   5
ATOM      5  C   UNL     1       2.105  -3.506  -0.974  0.00  0.00    +0.324 C 
ATOM      6  O   UNL     1       2.478  -2.401  -0.598  0.00  0.00    -0.249 OA
BRANCH   5   7
ATOM      7  C   UNL     1       2.647  -4.222  -2.226  0.00  0.00    +0.163 C 
BRANCH   7   9
ATOM      8  C   UNL     1       3.752  -6.041  -0.828  0.00  0.00    +0.009 C 
ATOM      9  C   UNL     1       3.970  -4.956  -1.893  0.00  0.00    +0.010 C 
ATOM     10  C   UNL     1       4.613  -5.609  -3.124  0.00  0.00    +0.009 C 
ENDBRANCH   7   9
BRANCH   7  11
ATOM     11  N   UNL     1       2.816  -3.199  -3.286  0.00  0.00    -0.318 NA
ATOM     12  H   UNL     1       3.403  -2.446  -2.918  0.00  0.00    +0.119 HD
ATOM     13  H   UNL     1       3.303  -3.585  -4.090  0.00  0.00    +0.119 HD
ENDBRANCH   7  11
ENDBRANCH   5   7
ENDBRANCH   4   5
ENDBRANCH   3   4
ENDBRANCH   2   3
BRANCH   2  14
ATOM     14  C   UNL     1      -1.463  -3.028  -0.320  0.00  0.00    +0.190 C 
BRANCH  14  15
ATOM     15  O   UNL     1      -2.885  -2.965  -0.217  0.00  0.00    -0.392 OA
ATOM     16  H   UNL     1      -3.192  -3.890  -0.175  0.00  0.00    +0.210 HD
ENDBRANCH  14  15
ENDBRANCH   2  14
ENDBRANCH   1   2
BRANCH   1  17
ATOM     17  C   UNL     1      -1.069  -6.026   1.831  0.00  0.00    +0.288 C 
BRANCH  17  18
ATOM     18  N   UNL     1      -1.560  -7.368   1.583  0.00  0.00    -0.291 N 
ATOM     19  C   UNL     1      -1.863  -8.302   2.535  0.00  0.00    +0.171 A 
ATOM     20  N   UNL     1      -1.839  -8.132   3.880  0.00  0.00    -0.196 NA
ATOM     21  C   UNL     1      -2.197  -9.202   4.540  0.00  0.00    +0.195 A 
ATOM     22  N   UNL     1      -2.245  -9.188   5.897  0.00  0.00    -0.329 N 
ATOM     23  H   UNL     1      -2.073 -10.057   6.385  0.00  0.00    +0.145 HD
ATOM     24  H   UNL     1      -1.765  -8.392   6.304  0.00  0.00    +0.145 HD
ATOM     25  N   UNL     1      -2.544 -10.398   3.940  0.00  0.00    -0.293 N 
ATOM     26  H   UNL     1      -2.842 -11.180   4.497  0.00  0.00    +0.172 HD
ATOM     27  C   UNL     1      -2.571 -10.614   2.569  0.00  0.00    +0.280 A 
ATOM     28  O   UNL     1      -2.886 -11.699   2.092  0.00  0.00    -0.265 OA
ATOM     29  C   UNL     1      -2.190  -9.435   1.824  0.00  0.00    +0.172 A 
ATOM     30  N   UNL     1      -2.084  -9.233   0.473  0.00  0.00    -0.229 NA
ATOM     31  C   UNL     1      -1.699  -7.976   0.361  0.00  0.00    +0.203 A 
ENDBRANCH  17  18
ENDBRANCH   1  17
TORSDOF 11
