REMARK  Name = 
REMARK  13 active torsions:
REMARK  status: ('A' for Active; 'I' for Inactive)
REMARK    1  A    between atoms: C_1  and  C_2
REMARK    2  A    between atoms: C_2  and  C_3
REMARK    3  A    between atoms: C_2  and  C_4
REMARK    4  A    between atoms: C_4  and  C_6
REMARK    5  A    between atoms: C_4  and  N_27
REMARK    6  A    between atoms: C_6  and  O_8
REMARK    7  A    between atoms: O_8  and  C_9
REMARK    8  A    between atoms: C_9  and  C_10
REMARK    9  A    between atoms: C_10  and  C_12
REMARK   10  A    between atoms: C_10  and  O_14
REMARK   11  A    between atoms: C_12  and  O_13
REMARK   12  A    between atoms: O_14  and  C_15
REMARK   13  A    between atoms: C_15  and  N_16
REMARK                            x       y       z     vdW  Elec       q    Type
REMARK                         _______ _______ _______ _____ _____    ______ ____
ROOT
ATOM      1  O   UNL     1      -1.322   4.885   1.377  0.00  0.00    -0.350 OA
ENDROOT
BRANCH   1   2
ATOM      2  C   UNL     1      -0.805   3.738   0.668  0.00  0.00    +0.183 C 
BRANCH   2   3
ATOM      3  C   UNL     1       0.731   3.716   0.632  0.00  0.00    +0.266 C 
BRANCH   3   4
ATOM      4  O   UNL     1       1.241   3.799   1.976  0.00  0.00    -0.461 OA
BRANCH   4   5
ATOM      5  C   UNL     1       2.062   2.790   2.386  0.00  0.00    +0.324 C 
ATOM      6  O   UNL     1       2.405   1.844   1.688  0.00  0.00    -0.249 OA
BRANCH   5   7
ATOM      7  C   UNL     1       2.519   3.000   3.843  0.00  0.00    +0.163 C 
BRANCH   7   9
ATOM      8  C   UNL     1       3.695   5.261   3.426  0.00  0.00    +0.009 C 
ATOM      9  C   UNL     1       3.823   3.823   3.943  0.00  0.00    +0.010 C 
ATOM     10  C   UNL     1       4.989   3.122   3.237  0.00  0.00    +0.009 C 
ENDBRANCH   7   9
BRANCH   7  11
ATOM     11  N   UNL     1       1.439   3.609   4.660  0.00  0.00    -0.318 NA
ATOM     12  H   UNL     1       1.163   4.493   4.229  0.00  0.00    +0.119 HD
ATOM     13  H   UNL     1       0.610   3.017   4.612  0.00  0.00    +0.119 HD
ENDBRANCH   7  11
ENDBRANCH   5   7
ENDBRANCH   4   5
ENDBRANCH   3   4
ENDBRANCH   2   3
BRANCH   2  14
ATOM     14  C   UNL     1      -1.327   2.484   1.388  0.00  0.00    +0.190 C 
BRANCH  14  15
ATOM     15  O   UNL     1      -2.751   2.434   1.324  0.00  0.00    -0.392 OA
ATOM     16  H   UNL     1      -3.070   3.246   1.763  0.00  0.00    +0.210 HD
ENDBRANCH  14  15
ENDBRANCH   2  14
ENDBRANCH   1   2
BRANCH   1  17
ATOM     17  C   UNL     1      -1.056   6.130   0.720  0.00  0.00    +0.288 C 
BRANCH  17  18
ATOM     18  N   UNL     1      -1.649   7.212   1.482  0.00  0.00    -0.291 N 
ATOM     19  C   UNL     1      -1.978   8.451   1.004  0.00  0.00    +0.171 A 
ATOM     20  N   UNL     1      -1.833   8.903  -0.267  0.00  0.00    -0.196 NA
ATOM     21  C   UNL     1      -2.217  10.144  -0.418  0.00  0.00    +0.195 A 
ATOM     22  N   UNL     1      -2.113  10.751  -1.627  0.00  0.00    -0.329 N 
ATOM     23  H   UNL     1      -2.768  11.488  -1.850  0.00  0.00    +0.145 HD
ATOM     24  H   UNL     1      -1.946  10.106  -2.392  0.00  0.00    +0.145 HD
ATOM     25  N   UNL     1      -2.743  10.917   0.599  0.00  0.00    -0.293 N 
ATOM     26  H   UNL     1      -3.001  11.874   0.430  0.00  0.00    +0.172 HD
ATOM     27  C   UNL     1      -2.891  10.500   1.913  0.00  0.00    +0.280 A 
ATOM     28  O   UNL     1      -3.336  11.244   2.780  0.00  0.00    -0.265 OA
ATOM     29  C   UNL     1      -2.456   9.134   2.101  0.00  0.00    +0.172 A 
ATOM     30  N   UNL     1      -2.397   8.368   3.238  0.00  0.00    -0.229 NA
ATOM     31  C   UNL     1      -1.889   7.222   2.833  0.00  0.00    +0.203 A 
ENDBRANCH  17  18
ENDBRANCH   1  17
TORSDOF 11
