REMARK  Name = 
REMARK  9 active torsions:
REMARK  status: ('A' for Active; 'I' for Inactive)
REMARK    1  A    between atoms: C_1  and  C_2
REMARK    2  A    between atoms: C_2  and  O_4
REMARK    3  A    between atoms: O_4  and  C_5
REMARK    4  A    between atoms: C_5  and  C_6
REMARK    5  A    between atoms: C_6  and  C_7
REMARK    6  A    between atoms: C_6  and  O_9
REMARK    7  A    between atoms: C_7  and  O_8
REMARK    8  A    between atoms: O_9  and  C_10
REMARK    9  A    between atoms: C_10  and  N_11
REMARK                            x       y       z     vdW  Elec       q    Type
REMARK                         _______ _______ _______ _____ _____    ______ ____
ROOT
ATOM      1  N   UNL     1       8.487   0.442  -3.815  0.00  0.00    -0.291 N 
ATOM      2  C   UNL     1       9.370  -0.390  -4.439  0.00  0.00    +0.171 A 
ATOM      3  N   UNL     1       9.072  -1.440  -5.243  0.00  0.00    -0.196 NA
ATOM      4  C   UNL     1      10.130  -2.031  -5.731  0.00  0.00    +0.195 A 
ATOM      5  N   UNL     1       9.991  -3.097  -6.559  0.00  0.00    -0.329 N 
ATOM      6  H   UNL     1      10.720  -3.798  -6.546  0.00  0.00    +0.145 HD
ATOM      7  H   UNL     1       9.055  -3.490  -6.541  0.00  0.00    +0.145 HD
ATOM      8  N   UNL     1      11.425  -1.645  -5.451  0.00  0.00    -0.293 N 
ATOM      9  H   UNL     1      12.200  -2.115  -5.886  0.00  0.00    +0.172 HD
ATOM     10  C   UNL     1      11.772  -0.568  -4.647  0.00  0.00    +0.280 A 
ATOM     11  O   UNL     1      12.940  -0.252  -4.455  0.00  0.00    -0.265 OA
ATOM     12  C   UNL     1      10.612   0.102  -4.101  0.00  0.00    +0.172 A 
ATOM     13  N   UNL     1      10.518   1.214  -3.304  0.00  0.00    -0.229 NA
ATOM     14  C   UNL     1       9.221   1.395  -3.153  0.00  0.00    +0.203 A 
ENDROOT
BRANCH   1  15
ATOM     15  C   UNL     1       7.045   0.426  -3.941  0.00  0.00    +0.288 C 
BRANCH  15  16
ATOM     16  O   UNL     1       6.469   0.556  -2.642  0.00  0.00    -0.350 OA
BRANCH  16  17
ATOM     17  C   UNL     1       5.035   0.440  -2.635  0.00  0.00    +0.183 C 
BRANCH  17  18
ATOM     18  C   UNL     1       4.566   0.387  -1.167  0.00  0.00    +0.266 C 
BRANCH  18  19
ATOM     19  O   UNL     1       5.096  -0.765  -0.481  0.00  0.00    -0.462 OA
BRANCH  19  21
ATOM     20  C   UNL     1       5.098  -3.046   0.055  0.00  0.00    +0.136 C 
ATOM     21  C   UNL     1       4.457  -1.940  -0.726  0.00  0.00    +0.304 C 
ATOM     22  O   UNL     1       3.516  -2.087  -1.494  0.00  0.00    -0.251 OA
ENDBRANCH  19  21
ENDBRANCH  18  19
ENDBRANCH  17  18
BRANCH  17  23
ATOM     23  C   UNL     1       4.377   1.631  -3.351  0.00  0.00    +0.190 C 
BRANCH  23  24
ATOM     24  O   UNL     1       2.959   1.593  -3.285  0.00  0.00    -0.392 OA
ATOM     25  H   UNL     1       2.656   0.766  -3.701  0.00  0.00    +0.210 HD
ENDBRANCH  23  24
ENDBRANCH  17  23
ENDBRANCH  16  17
ENDBRANCH  15  16
ENDBRANCH   1  15
TORSDOF 8
