REMARK  Name = 
REMARK  13 active torsions:
REMARK  status: ('A' for Active; 'I' for Inactive)
REMARK    1  A    between atoms: C_1  and  C_2
REMARK    2  A    between atoms: C_2  and  C_3
REMARK    3  A    between atoms: C_2  and  C_4
REMARK    4  A    between atoms: C_4  and  C_6
REMARK    5  A    between atoms: C_4  and  N_26
REMARK    6  A    between atoms: C_6  and  O_8
REMARK    7  A    between atoms: O_8  and  C_9
REMARK    8  A    between atoms: C_9  and  C_10
REMARK    9  A    between atoms: C_10  and  C_11
REMARK   10  A    between atoms: C_10  and  O_13
REMARK   11  A    between atoms: C_11  and  O_12
REMARK   12  A    between atoms: O_13  and  C_14
REMARK   13  A    between atoms: C_14  and  N_15
REMARK                            x       y       z     vdW  Elec       q    Type
REMARK                         _______ _______ _______ _____ _____    ______ ____
ROOT
ATOM      1  O   UNL     1      -1.328  -0.770  -5.228  0.00  0.00    -0.350 OA
ENDROOT
BRANCH   1   2
ATOM      2  C   UNL     1      -0.858  -0.919  -3.870  0.00  0.00    +0.183 C 
BRANCH   2   3
ATOM      3  C   UNL     1       0.674  -0.936  -3.760  0.00  0.00    +0.266 C 
BRANCH   3   4
ATOM      4  O   UNL     1       1.219   0.274  -4.316  0.00  0.00    -0.461 OA
BRANCH   4   5
ATOM      5  C   UNL     1       2.137   0.923  -3.547  0.00  0.00    +0.324 C 
ATOM      6  O   UNL     1       2.533   0.535  -2.453  0.00  0.00    -0.249 OA
BRANCH   5   7
ATOM      7  C   UNL     1       2.658   2.191  -4.252  0.00  0.00    +0.163 C 
BRANCH   7   9
ATOM      8  C   UNL     1       3.784   0.823  -6.082  0.00  0.00    +0.009 C 
ATOM      9  C   UNL     1       3.987   1.880  -4.986  0.00  0.00    +0.010 C 
ATOM     10  C   UNL     1       4.617   3.125  -5.624  0.00  0.00    +0.009 C 
ENDBRANCH   7   9
BRANCH   7  11
ATOM     11  N   UNL     1       2.810   3.241  -3.219  0.00  0.00    -0.318 NA
ATOM     12  H   UNL     1       3.397   2.871  -2.466  0.00  0.00    +0.119 HD
ATOM     13  H   UNL     1       3.290   4.054  -3.594  0.00  0.00    +0.119 HD
ENDBRANCH   7  11
ENDBRANCH   5   7
ENDBRANCH   4   5
ENDBRANCH   3   4
ENDBRANCH   2   3
BRANCH   2  14
ATOM     14  C   UNL     1      -1.430   0.253  -3.059  0.00  0.00    +0.190 C 
BRANCH  14  15
ATOM     15  O   UNL     1      -2.852   0.146  -2.996  0.00  0.00    -0.392 OA
ATOM     16  H   UNL     1      -3.158   0.107  -3.921  0.00  0.00    +0.210 HD
ENDBRANCH  14  15
ENDBRANCH   2  14
ENDBRANCH   1   2
BRANCH   1  17
ATOM     17  C   UNL     1      -1.003  -1.889  -6.057  0.00  0.00    +0.288 C 
BRANCH  17  18
ATOM     18  N   UNL     1      -1.550  -1.696  -7.386  0.00  0.00    -0.291 N 
ATOM     19  C   UNL     1      -1.067  -2.268  -8.530  0.00  0.00    +0.171 A 
ATOM     20  N   UNL     1       0.009  -3.087  -8.638  0.00  0.00    -0.196 NA
ATOM     21  C   UNL     1       0.217  -3.506  -9.859  0.00  0.00    +0.195 A 
ATOM     22  N   UNL     1       1.253  -4.340 -10.126  0.00  0.00    -0.329 N 
ATOM     23  H   UNL     1       1.670  -4.294 -11.046  0.00  0.00    +0.145 HD
ATOM     24  H   UNL     1       1.933  -4.385  -9.375  0.00  0.00    +0.145 HD
ATOM     25  N   UNL     1      -0.564  -3.145 -10.939  0.00  0.00    -0.293 N 
ATOM     26  H   UNL     1      -0.379  -3.527 -11.850  0.00  0.00    +0.172 HD
ATOM     27  C   UNL     1      -1.673  -2.315 -10.869  0.00  0.00    +0.280 A 
ATOM     28  O   UNL     1      -2.340  -2.041 -11.860  0.00  0.00    -0.265 OA
ATOM     29  C   UNL     1      -1.922  -1.847  -9.522  0.00  0.00    +0.172 A 
ATOM     30  N   UNL     1      -2.915  -1.042  -9.024  0.00  0.00    -0.229 NA
ATOM     31  C   UNL     1      -2.664  -0.976  -7.731  0.00  0.00    +0.203 A 
ENDBRANCH  17  18
ENDBRANCH   1  17
TORSDOF 11
