REMARK  Name = 
REMARK  13 active torsions:
REMARK  status: ('A' for Active; 'I' for Inactive)
REMARK    1  A    between atoms: C_1  and  C_2
REMARK    2  A    between atoms: C_2  and  C_3
REMARK    3  A    between atoms: C_2  and  C_4
REMARK    4  A    between atoms: C_4  and  C_6
REMARK    5  A    between atoms: C_4  and  N_26
REMARK    6  A    between atoms: C_6  and  O_8
REMARK    7  A    between atoms: O_8  and  C_9
REMARK    8  A    between atoms: C_9  and  C_10
REMARK    9  A    between atoms: C_10  and  C_11
REMARK   10  A    between atoms: C_10  and  O_13
REMARK   11  A    between atoms: C_11  and  O_12
REMARK   12  A    between atoms: O_13  and  C_14
REMARK   13  A    between atoms: C_14  and  N_15
REMARK                            x       y       z     vdW  Elec       q    Type
REMARK                         _______ _______ _______ _____ _____    ______ ____
ROOT
ATOM      1  O   UNL     1      -1.150  -1.567   4.960  0.00  0.00    -0.350 OA
ENDROOT
BRANCH   1   2
ATOM      2  C   UNL     1      -0.740  -0.828   3.815  0.00  0.00    +0.183 C 
BRANCH   2   3
ATOM      3  C   UNL     1       0.801  -0.719   3.695  0.00  0.00    +0.266 C 
BRANCH   3   4
ATOM      4  O   UNL     1       1.396  -1.971   3.695  0.00  0.00    -0.461 OA
BRANCH   4   5
ATOM      5  C   UNL     1       2.198  -2.447   2.708  0.00  0.00    +0.324 C 
ATOM      6  O   UNL     1       2.468  -1.751   1.739  0.00  0.00    -0.249 OA
BRANCH   5   7
ATOM      7  C   UNL     1       2.714  -3.868   2.772  0.00  0.00    +0.163 C 
BRANCH   7   9
ATOM      8  C   UNL     1       4.995  -3.372   1.598  0.00  0.00    +0.009 C 
ATOM      9  C   UNL     1       4.275  -3.989   2.813  0.00  0.00    +0.010 C 
ATOM     10  C   UNL     1       4.847  -3.383   4.103  0.00  0.00    +0.009 C 
ENDBRANCH   7   9
BRANCH   7  11
ATOM     11  N   UNL     1       2.143  -4.626   1.655  0.00  0.00    -0.318 NA
ATOM     12  H   UNL     1       2.455  -4.243   0.734  0.00  0.00    +0.119 HD
ATOM     13  H   UNL     1       2.416  -5.633   1.725  0.00  0.00    +0.119 HD
ENDBRANCH   7  11
ENDBRANCH   5   7
ENDBRANCH   4   5
ENDBRANCH   3   4
ENDBRANCH   2   3
BRANCH   2  14
ATOM     14  C   UNL     1      -1.308  -1.511   2.558  0.00  0.00    +0.190 C 
BRANCH  14  15
ATOM     15  O   UNL     1      -2.710  -1.490   2.570  0.00  0.00    -0.392 OA
ATOM     16  H   UNL     1      -3.007  -2.257   3.124  0.00  0.00    +0.210 HD
ENDBRANCH  14  15
ENDBRANCH   2  14
ENDBRANCH   1   2
BRANCH   1  17
ATOM     17  C   UNL     1      -0.843  -0.877   6.157  0.00  0.00    +0.288 C 
BRANCH  17  18
ATOM     18  N   UNL     1      -1.333  -1.633   7.305  0.00  0.00    -0.291 N 
ATOM     19  C   UNL     1      -2.598  -1.892   7.661  0.00  0.00    +0.171 A 
ATOM     20  N   UNL     1      -3.737  -1.507   7.038  0.00  0.00    -0.196 NA
ATOM     21  C   UNL     1      -4.933  -1.868   7.601  0.00  0.00    +0.195 A 
ATOM     22  N   UNL     1      -6.141  -1.474   6.982  0.00  0.00    -0.329 N 
ATOM     23  H   UNL     1      -7.049  -1.728   7.396  0.00  0.00    +0.145 HD
ATOM     24  H   UNL     1      -6.123  -0.919   6.114  0.00  0.00    +0.145 HD
ATOM     25  N   UNL     1      -4.960  -2.600   8.767  0.00  0.00    -0.293 N 
ATOM     26  H   UNL     1      -5.879  -2.867   9.188  0.00  0.00    +0.172 HD
ATOM     27  C   UNL     1      -3.793  -2.986   9.392  0.00  0.00    +0.280 A 
ATOM     28  O   UNL     1      -3.819  -3.630  10.427  0.00  0.00    -0.265 OA
ATOM     29  C   UNL     1      -2.594  -2.608   8.811  0.00  0.00    +0.172 A 
ATOM     30  N   UNL     1      -1.333  -2.836   9.216  0.00  0.00    -0.229 NA
ATOM     31  C   UNL     1      -0.581  -2.218   8.269  0.00  0.00    +0.203 A 
ENDBRANCH  17  18
ENDBRANCH   1  17
TORSDOF 11
REMARK  Name = 
REMARK  13 active torsions:
REMARK  status: ('A' for Active; 'I' for Inactive)
REMARK    1  A    between atoms: C_1  and  C_2
REMARK    2  A    between atoms: C_2  and  C_3
REMARK    3  A    between atoms: C_2  and  C_4
REMARK    4  A    between atoms: C_4  and  C_6
REMARK    5  A    between atoms: C_4  and  N_26
REMARK    6  A    between atoms: C_6  and  O_8
REMARK    7  A    between atoms: O_8  and  C_9
REMARK    8  A    between atoms: C_9  and  C_10
REMARK    9  A    between atoms: C_10  and  C_11
REMARK   10  A    between atoms: C_10  and  O_13
REMARK   11  A    between atoms: C_11  and  O_12
REMARK   12  A    between atoms: O_13  and  C_14
REMARK   13  A    between atoms: C_14  and  N_15
REMARK                            x       y       z     vdW  Elec       q    Type
REMARK                         _______ _______ _______ _____ _____    ______ ____
ROOT
ATOM      1 CL   UNL     1      -0.129   2.336   1.375  0.00  0.00    -0.145 Cl
ATOM      2  H   UNL     1       0.883   2.170   0.458  0.00  0.00    +0.145 HD
ENDROOT
TORSDOF 0
