REMARK  Name = 
REMARK  13 active torsions:
REMARK  status: ('A' for Active; 'I' for Inactive)
REMARK    1  A    between atoms: C_1  and  C_2
REMARK    2  A    between atoms: C_2  and  C_3
REMARK    3  A    between atoms: C_2  and  C_4
REMARK    4  A    between atoms: C_4  and  C_6
REMARK    5  A    between atoms: C_4  and  N_27
REMARK    6  A    between atoms: C_6  and  O_8
REMARK    7  A    between atoms: O_8  and  C_9
REMARK    8  A    between atoms: C_9  and  C_10
REMARK    9  A    between atoms: C_10  and  C_12
REMARK   10  A    between atoms: C_10  and  O_14
REMARK   11  A    between atoms: C_12  and  O_13
REMARK   12  A    between atoms: O_14  and  C_15
REMARK   13  A    between atoms: C_15  and  N_16
REMARK                            x       y       z     vdW  Elec       q    Type
REMARK                         _______ _______ _______ _____ _____    ______ ____
ROOT
ATOM      1  O   UNL     1      -1.403  -5.072  -0.194  0.00  0.00    -0.350 OA
ENDROOT
BRANCH   1   2
ATOM      2  C   UNL     1      -0.806  -3.834   0.231  0.00  0.00    +0.183 C 
BRANCH   2   3
ATOM      3  C   UNL     1      -1.287  -3.538   1.666  0.00  0.00    +0.266 C 
BRANCH   3   4
ATOM      4  O   UNL     1      -0.696  -2.331   2.186  0.00  0.00    -0.461 OA
BRANCH   4   5
ATOM      5  C   UNL     1       0.578  -2.454   2.655  0.00  0.00    +0.324 C 
ATOM      6  O   UNL     1       1.204  -3.506   2.703  0.00  0.00    -0.249 OA
BRANCH   5   7
ATOM      7  C   UNL     1       1.171  -1.074   3.014  0.00  0.00    +0.163 C 
BRANCH   7   9
ATOM      8  C   UNL     1      -0.561  -0.614   4.832  0.00  0.00    +0.009 C 
ATOM      9  C   UNL     1       0.931  -0.690   4.493  0.00  0.00    +0.010 C 
ATOM     10  C   UNL     1       1.579   0.662   4.835  0.00  0.00    +0.009 C 
ENDBRANCH   7   9
BRANCH   7  11
ATOM     11  N   UNL     1       2.628  -1.107   2.724  0.00  0.00    -0.318 NA
ATOM     12  H   UNL     1       3.041  -1.856   3.287  0.00  0.00    +0.119 HD
ATOM     13  H   UNL     1       2.768  -1.410   1.760  0.00  0.00    +0.119 HD
ENDBRANCH   7  11
ENDBRANCH   5   7
ENDBRANCH   4   5
ENDBRANCH   3   4
ENDBRANCH   2   3
BRANCH   2  14
ATOM     14  C   UNL     1      -1.202  -2.667  -0.695  0.00  0.00    +0.190 C 
BRANCH  14  15
ATOM     15  O   UNL     1      -0.551  -2.758  -1.962  0.00  0.00    -0.392 OA
ATOM     16  H   UNL     1       0.402  -2.623  -1.823  0.00  0.00    +0.210 HD
ENDBRANCH  14  15
ENDBRANCH   2  14
ENDBRANCH   1   2
BRANCH   1  17
ATOM     17  C   UNL     1      -0.812  -5.610  -1.383  0.00  0.00    +0.288 C 
BRANCH  17  18
ATOM     18  N   UNL     1      -1.410  -6.903  -1.649  0.00  0.00    -0.291 N 
ATOM     19  C   UNL     1      -0.776  -8.099  -1.830  0.00  0.00    +0.171 A 
ATOM     20  N   UNL     1       0.557  -8.339  -1.777  0.00  0.00    -0.196 NA
ATOM     21  C   UNL     1       0.867  -9.590  -2.000  0.00  0.00    +0.195 A 
ATOM     22  N   UNL     1       2.166  -9.986  -2.009  0.00  0.00    -0.329 N 
ATOM     23  H   UNL     1       2.373 -10.933  -1.721  0.00  0.00    +0.145 HD
ATOM     24  H   UNL     1       2.798  -9.294  -1.619  0.00  0.00    +0.145 HD
ATOM     25  N   UNL     1      -0.064 -10.582  -2.238  0.00  0.00    -0.293 N 
ATOM     26  H   UNL     1       0.233 -11.523  -2.426  0.00  0.00    +0.172 HD
ATOM     27  C   UNL     1      -1.433 -10.374  -2.328  0.00  0.00    +0.280 A 
ATOM     28  O   UNL     1      -2.212 -11.287  -2.580  0.00  0.00    -0.265 OA
ATOM     29  C   UNL     1      -1.790  -8.992  -2.102  0.00  0.00    +0.172 A 
ATOM     30  N   UNL     1      -3.014  -8.374  -2.146  0.00  0.00    -0.229 NA
ATOM     31  C   UNL     1      -2.747  -7.111  -1.885  0.00  0.00    +0.203 A 
ENDBRANCH  17  18
ENDBRANCH   1  17
TORSDOF 11
