REMARK  Name = 
REMARK  4 active torsions:
REMARK  status: ('A' for Active; 'I' for Inactive)
REMARK    1  A    between atoms: C_3  and  N_13
REMARK    2  A    between atoms: C_6  and  O_12
REMARK    3  A    between atoms: C_8  and  C_10
REMARK    4  A    between atoms: C_10  and  O_11
REMARK                            x       y       z     vdW  Elec       q    Type
REMARK                         _______ _______ _______ _____ _____    ______ ____
ROOT
ATOM      1  N   UNL     1       3.977   1.314   1.652  0.00  0.00    -0.308 N 
ATOM      2  C   UNL     1       3.333   1.765   2.786  0.00  0.00    +0.170 A 
ATOM      3  N   UNL     1       2.006   2.005   2.941  0.00  0.00    -0.196 NA
ATOM      4  C   UNL     1       1.688   2.386   4.151  0.00  0.00    +0.195 A 
ATOM      5  N   UNL     1       0.405   2.693   4.466  0.00  0.00    -0.329 N 
ATOM      6  H   UNL     1       0.260   3.387   5.188  0.00  0.00    +0.145 HD
ATOM      7  H   UNL     1      -0.178   2.846   3.649  0.00  0.00    +0.145 HD
ATOM      8  N   UNL     1       2.595   2.521   5.182  0.00  0.00    -0.293 N 
ATOM      9  H   UNL     1       2.285   2.768   6.105  0.00  0.00    +0.172 HD
ATOM     10  C   UNL     1       3.956   2.289   5.066  0.00  0.00    +0.280 A 
ATOM     11  O   UNL     1       4.716   2.412   6.022  0.00  0.00    -0.265 OA
ATOM     12  C   UNL     1       4.329   1.899   3.727  0.00  0.00    +0.172 A 
ATOM     13  N   UNL     1       5.563   1.648   3.199  0.00  0.00    -0.229 NA
ATOM     14  C   UNL     1       5.321   1.331   1.946  0.00  0.00    +0.202 A 
ENDROOT
BRANCH   1  20
ATOM     15  C   UNL     1       1.207  -0.384   0.767  0.00  0.00    +0.010 C 
ATOM     16  C   UNL     1       2.515  -0.315   0.474  0.00  0.00    -0.046 C 
ATOM     17  C   UNL     1       3.321  -1.518   0.015  0.00  0.00    +0.070 C 
ATOM     18  C   UNL     1       4.618  -0.908  -0.543  0.00  0.00    +0.126 C 
ATOM     19  C   UNL     1       4.304   0.574  -0.758  0.00  0.00    +0.061 C 
ATOM     20  C   UNL     1       3.350   0.954   0.383  0.00  0.00    +0.118 C 
BRANCH  18  21
ATOM     21  O   UNL     1       4.949  -1.511  -1.790  0.00  0.00    -0.391 OA
ATOM     22  H   UNL     1       5.765  -1.092  -2.116  0.00  0.00    +0.210 HD
ENDBRANCH  18  21
BRANCH  17  23
ATOM     23  C   UNL     1       3.582  -2.517   1.149  0.00  0.00    +0.166 C 
BRANCH  23  24
ATOM     24  O   UNL     1       4.284  -1.919   2.234  0.00  0.00    -0.394 OA
ATOM     25  H   UNL     1       3.680  -1.283   2.662  0.00  0.00    +0.209 HD
ENDBRANCH  23  24
ENDBRANCH  17  23
ENDBRANCH   1  20
TORSDOF 4
REMARK  Name = 
REMARK  4 active torsions:
REMARK  status: ('A' for Active; 'I' for Inactive)
REMARK    1  A    between atoms: C_3  and  N_13
REMARK    2  A    between atoms: C_6  and  O_12
REMARK    3  A    between atoms: C_8  and  C_10
REMARK    4  A    between atoms: C_10  and  O_11
REMARK                            x       y       z     vdW  Elec       q    Type
REMARK                         _______ _______ _______ _____ _____    ______ ____
ROOT
ATOM      1  O   HOH     1       0.779   1.496  -1.932  0.00  0.00    -0.410 OA
ATOM      2  H   HOH     0       0.738   0.527  -1.881  0.00  0.00    +0.205 HD
ATOM      3  H   HOH     0       0.581   1.777  -1.026  0.00  0.00    +0.205 HD
ENDROOT
TORSDOF 0
