REMARK  Name = 
REMARK  13 active torsions:
REMARK  status: ('A' for Active; 'I' for Inactive)
REMARK    1  A    between atoms: C_1  and  C_2
REMARK    2  A    between atoms: C_2  and  C_3
REMARK    3  A    between atoms: C_2  and  C_4
REMARK    4  A    between atoms: C_4  and  C_6
REMARK    5  A    between atoms: C_4  and  N_27
REMARK    6  A    between atoms: C_6  and  O_8
REMARK    7  A    between atoms: O_8  and  C_9
REMARK    8  A    between atoms: C_9  and  C_10
REMARK    9  A    between atoms: C_10  and  C_12
REMARK   10  A    between atoms: C_10  and  O_14
REMARK   11  A    between atoms: C_12  and  O_13
REMARK   12  A    between atoms: O_14  and  C_15
REMARK   13  A    between atoms: C_15  and  N_16
REMARK                            x       y       z     vdW  Elec       q    Type
REMARK                         _______ _______ _______ _____ _____    ______ ____
ROOT
ATOM      1  O   UNL     1      -1.447   3.862  -3.584  0.00  0.00    -0.350 OA
ENDROOT
BRANCH   1   2
ATOM      2  C   UNL     1      -0.921   2.687  -2.939  0.00  0.00    +0.183 C 
BRANCH   2   3
ATOM      3  C   UNL     1      -1.331   1.467  -3.784  0.00  0.00    +0.266 C 
BRANCH   3   4
ATOM      4  O   UNL     1      -0.787   0.242  -3.258  0.00  0.00    -0.461 OA
BRANCH   4   5
ATOM      5  C   UNL     1       0.524   0.000  -3.554  0.00  0.00    +0.324 C 
ATOM      6  O   UNL     1       1.215   0.709  -4.276  0.00  0.00    -0.249 OA
BRANCH   5   7
ATOM      7  C   UNL     1       1.031  -1.287  -2.865  0.00  0.00    +0.163 C 
BRANCH   7   9
ATOM      8  C   UNL     1      -0.568  -2.887  -4.106  0.00  0.00    +0.009 C 
ATOM      9  C   UNL     1       0.880  -2.554  -3.740  0.00  0.00    +0.010 C 
ATOM     10  C   UNL     1       1.733  -2.473  -5.010  0.00  0.00    +0.009 C 
ENDBRANCH   7   9
BRANCH   7  11
ATOM     11  N   UNL     1       0.378  -1.449  -1.540  0.00  0.00    -0.318 NA
ATOM     12  H   UNL     1      -0.635  -1.438  -1.676  0.00  0.00    +0.119 HD
ATOM     13  H   UNL     1       0.603  -2.369  -1.163  0.00  0.00    +0.119 HD
ENDBRANCH   7  11
ENDBRANCH   5   7
ENDBRANCH   4   5
ENDBRANCH   3   4
ENDBRANCH   2   3
BRANCH   2  14
ATOM     14  C   UNL     1      -1.462   2.538  -1.504  0.00  0.00    +0.190 C 
BRANCH  14  15
ATOM     15  O   UNL     1      -0.860   3.490  -0.626  0.00  0.00    -0.392 OA
ATOM     16  H   UNL     1       0.061   3.213  -0.480  0.00  0.00    +0.210 HD
ENDBRANCH  14  15
ENDBRANCH   2  14
ENDBRANCH   1   2
BRANCH   1  17
ATOM     17  C   UNL     1      -0.904   5.081  -3.063  0.00  0.00    +0.288 C 
BRANCH  17  18
ATOM     18  N   UNL     1      -1.302   6.181  -3.920  0.00  0.00    -0.291 N 
ATOM     19  C   UNL     1      -0.559   7.287  -4.228  0.00  0.00    +0.171 A 
ATOM     20  N   UNL     1       0.707   7.562  -3.824  0.00  0.00    -0.196 NA
ATOM     21  C   UNL     1       1.159   8.699  -4.281  0.00  0.00    +0.195 A 
ATOM     22  N   UNL     1       2.406   9.120  -3.955  0.00  0.00    -0.329 N 
ATOM     23  H   UNL     1       2.907   9.672  -4.638  0.00  0.00    +0.145 HD
ATOM     24  H   UNL     1       2.973   8.386  -3.539  0.00  0.00    +0.145 HD
ATOM     25  N   UNL     1       0.437   9.538  -5.107  0.00  0.00    -0.293 N 
ATOM     26  H   UNL     1       0.826  10.416  -5.403  0.00  0.00    +0.172 HD
ATOM     27  C   UNL     1      -0.866   9.306  -5.522  0.00  0.00    +0.280 A 
ATOM     28  O   UNL     1      -1.470  10.105  -6.232  0.00  0.00    -0.265 OA
ATOM     29  C   UNL     1      -1.386   8.055  -5.018  0.00  0.00    +0.172 A 
ATOM     30  N   UNL     1      -2.620   7.476  -5.175  0.00  0.00    -0.229 NA
ATOM     31  C   UNL     1      -2.539   6.353  -4.490  0.00  0.00    +0.203 A 
ENDBRANCH  17  18
ENDBRANCH   1  17
TORSDOF 11
