REMARK  Name = 
REMARK  13 active torsions:
REMARK  status: ('A' for Active; 'I' for Inactive)
REMARK    1  A    between atoms: C_1  and  C_2
REMARK    2  A    between atoms: C_2  and  C_3
REMARK    3  A    between atoms: C_2  and  C_4
REMARK    4  A    between atoms: C_4  and  C_6
REMARK    5  A    between atoms: C_4  and  N_26
REMARK    6  A    between atoms: C_6  and  O_8
REMARK    7  A    between atoms: O_8  and  C_9
REMARK    8  A    between atoms: C_9  and  C_10
REMARK    9  A    between atoms: C_10  and  C_11
REMARK   10  A    between atoms: C_10  and  O_13
REMARK   11  A    between atoms: C_11  and  O_12
REMARK   12  A    between atoms: O_13  and  C_14
REMARK   13  A    between atoms: C_14  and  N_15
REMARK                            x       y       z     vdW  Elec       q    Type
REMARK                         _______ _______ _______ _____ _____    ______ ____
ROOT
ATOM      1  O   UNL     1      -1.403   3.829  -3.426  0.00  0.00    -0.350 OA
ENDROOT
BRANCH   1   2
ATOM      2  C   UNL     1      -0.887   2.637  -2.793  0.00  0.00    +0.183 C 
BRANCH   2   3
ATOM      3  C   UNL     1       0.649   2.598  -2.763  0.00  0.00    +0.266 C 
BRANCH   3   4
ATOM      4  O   UNL     1       1.143   3.801  -2.148  0.00  0.00    -0.461 OA
BRANCH   4   5
ATOM      5  C   UNL     1       1.940   3.653  -1.052  0.00  0.00    +0.324 C 
ATOM      6  O   UNL     1       2.283   2.577  -0.581  0.00  0.00    -0.249 OA
BRANCH   5   7
ATOM      7  C   UNL     1       2.371   5.021  -0.491  0.00  0.00    +0.163 C 
BRANCH   7   9
ATOM      8  C   UNL     1       3.572   5.819  -2.635  0.00  0.00    +0.009 C 
ATOM      9  C   UNL     1       3.680   5.539  -1.131  0.00  0.00    +0.010 C 
ATOM     10  C   UNL     1       4.852   4.588  -0.865  0.00  0.00    +0.009 C 
ENDBRANCH   7   9
BRANCH   7  11
ATOM     11  N   UNL     1       1.282   6.021  -0.623  0.00  0.00    -0.318 NA
ATOM     12  H   UNL     1       1.018   6.086  -1.609  0.00  0.00    +0.119 HD
ATOM     13  H   UNL     1       0.448   5.668  -0.152  0.00  0.00    +0.119 HD
ENDBRANCH   7  11
ENDBRANCH   5   7
ENDBRANCH   4   5
ENDBRANCH   3   4
ENDBRANCH   2   3
BRANCH   2  14
ATOM     14  C   UNL     1      -1.433   2.606  -1.357  0.00  0.00    +0.190 C 
BRANCH  14  15
ATOM     15  O   UNL     1      -2.855   2.507  -1.374  0.00  0.00    -0.392 OA
ATOM     16  H   UNL     1      -3.173   3.310  -1.829  0.00  0.00    +0.210 HD
ENDBRANCH  14  15
ENDBRANCH   2  14
ENDBRANCH   1   2
BRANCH   1  17
ATOM     17  C   UNL     1      -1.080   3.911  -4.817  0.00  0.00    +0.288 C 
BRANCH  17  18
ATOM     18  N   UNL     1      -1.674   5.109  -5.368  0.00  0.00    -0.291 N 
ATOM     19  C   UNL     1      -1.025   6.130  -6.007  0.00  0.00    +0.171 A 
ATOM     20  N   UNL     1       0.312   6.257  -6.196  0.00  0.00    -0.196 NA
ATOM     21  C   UNL     1       0.645   7.363  -6.808  0.00  0.00    +0.195 A 
ATOM     22  N   UNL     1       1.949   7.645  -7.049  0.00  0.00    -0.329 N 
ATOM     23  H   UNL     1       2.180   8.244  -7.830  0.00  0.00    +0.145 HD
ATOM     24  H   UNL     1       2.568   6.848  -6.943  0.00  0.00    +0.145 HD
ATOM     25  N   UNL     1      -0.269   8.302  -7.250  0.00  0.00    -0.293 N 
ATOM     26  H   UNL     1       0.048   9.150  -7.687  0.00  0.00    +0.172 HD
ATOM     27  C   UNL     1      -1.645   8.202  -7.089  0.00  0.00    +0.280 A 
ATOM     28  O   UNL     1      -2.409   9.070  -7.500  0.00  0.00    -0.265 OA
ATOM     29  C   UNL     1      -2.027   6.990  -6.399  0.00  0.00    +0.172 A 
ATOM     30  N   UNL     1      -3.266   6.521  -6.039  0.00  0.00    -0.229 NA
ATOM     31  C   UNL     1      -3.017   5.387  -5.419  0.00  0.00    +0.203 A 
ENDBRANCH  17  18
ENDBRANCH   1  17
TORSDOF 11
