REMARK  Name = 
REMARK  4 active torsions:
REMARK  status: ('A' for Active; 'I' for Inactive)
REMARK    1  A    between atoms: C_3  and  C_21
REMARK    2  A    between atoms: C_5  and  O_20
REMARK    3  A    between atoms: C_8  and  N_9
REMARK    4  A    between atoms: C_21  and  O_22
REMARK                            x       y       z     vdW  Elec       q    Type
REMARK                         _______ _______ _______ _____ _____    ______ ____
ROOT
ATOM      1  N   UNL     1       2.857  -2.203  -1.020  0.00  0.00    -0.308 N 
ATOM      2  C   UNL     1       2.741  -3.537  -0.736  0.00  0.00    +0.170 A 
ATOM      3  N   UNL     1       3.039  -4.146   0.440  0.00  0.00    -0.196 NA
ATOM      4  C   UNL     1       2.871  -5.440   0.410  0.00  0.00    +0.195 A 
ATOM      5  N   UNL     1       3.136  -6.183   1.512  0.00  0.00    -0.329 N 
ATOM      6  H   UNL     1       2.594  -7.025   1.656  0.00  0.00    +0.145 HD
ATOM      7  H   UNL     1       3.232  -5.620   2.350  0.00  0.00    +0.145 HD
ATOM      8  N   UNL     1       2.418  -6.131  -0.696  0.00  0.00    -0.293 N 
ATOM      9  H   UNL     1       2.346  -7.136  -0.675  0.00  0.00    +0.172 HD
ATOM     10  C   UNL     1       2.101  -5.547  -1.916  0.00  0.00    +0.280 A 
ATOM     11  O   UNL     1       1.713  -6.213  -2.870  0.00  0.00    -0.265 OA
ATOM     12  C   UNL     1       2.290  -4.112  -1.901  0.00  0.00    +0.172 A 
ATOM     13  N   UNL     1       2.120  -3.177  -2.890  0.00  0.00    -0.229 NA
ATOM     14  C   UNL     1       2.479  -2.038  -2.330  0.00  0.00    +0.202 A 
ENDROOT
BRANCH   1  17
ATOM     15  C   UNL     1       1.130  -0.049   0.280  0.00  0.00    +0.010 C 
ATOM     16  C   UNL     1       2.462   0.014   0.106  0.00  0.00    -0.046 C 
ATOM     17  C   UNL     1       3.373  -1.186  -0.120  0.00  0.00    +0.118 C 
ATOM     18  C   UNL     1       4.711  -0.595  -0.582  0.00  0.00    +0.061 C 
ATOM     19  C   UNL     1       4.438   0.879  -0.873  0.00  0.00    +0.126 C 
ATOM     20  C   UNL     1       3.312   1.270   0.092  0.00  0.00    +0.070 C 
BRANCH  19  21
ATOM     21  O   UNL     1       5.615   1.649  -0.662  0.00  0.00    -0.391 OA
ATOM     22  H   UNL     1       5.946   1.483   0.238  0.00  0.00    +0.210 HD
ENDBRANCH  19  21
BRANCH  20  23
ATOM     23  C   UNL     1       2.650   2.603  -0.281  0.00  0.00    +0.166 C 
BRANCH  23  24
ATOM     24  O   UNL     1       2.090   2.587  -1.589  0.00  0.00    -0.394 OA
ATOM     25  H   UNL     1       1.249   2.103  -1.545  0.00  0.00    +0.209 HD
ENDBRANCH  23  24
ENDBRANCH  20  23
ENDBRANCH   1  17
TORSDOF 4
