REMARK  Name = 
REMARK  13 active torsions:
REMARK  status: ('A' for Active; 'I' for Inactive)
REMARK    1  A    between atoms: C_1  and  C_2
REMARK    2  A    between atoms: C_2  and  C_3
REMARK    3  A    between atoms: C_2  and  C_4
REMARK    4  A    between atoms: C_4  and  C_6
REMARK    5  A    between atoms: C_4  and  N_27
REMARK    6  A    between atoms: C_6  and  O_8
REMARK    7  A    between atoms: O_8  and  C_9
REMARK    8  A    between atoms: C_9  and  C_10
REMARK    9  A    between atoms: C_10  and  C_12
REMARK   10  A    between atoms: C_10  and  O_14
REMARK   11  A    between atoms: C_12  and  O_13
REMARK   12  A    between atoms: O_14  and  C_15
REMARK   13  A    between atoms: C_15  and  N_16
REMARK                            x       y       z     vdW  Elec       q    Type
REMARK                         _______ _______ _______ _____ _____    ______ ____
ROOT
ATOM      1  O   UNL     1      -1.517  -3.120  -4.144  0.00  0.00    -0.350 OA
ENDROOT
BRANCH   1   2
ATOM      2  C   UNL     1      -0.880  -2.654  -2.945  0.00  0.00    +0.183 C 
BRANCH   2   3
ATOM      3  C   UNL     1      -1.260  -3.622  -1.811  0.00  0.00    +0.266 C 
BRANCH   3   4
ATOM      4  O   UNL     1      -0.625  -3.265  -0.571  0.00  0.00    -0.461 OA
BRANCH   4   5
ATOM      5  C   UNL     1       0.680  -3.639  -0.457  0.00  0.00    +0.324 C 
ATOM      6  O   UNL     1       1.309  -4.252  -1.311  0.00  0.00    -0.249 OA
BRANCH   5   7
ATOM      7  C   UNL     1       1.293  -3.103   0.851  0.00  0.00    +0.163 C 
BRANCH   7   9
ATOM      8  C   UNL     1      -0.360  -4.377   2.323  0.00  0.00    +0.009 C 
ATOM      9  C   UNL     1       1.117  -4.093   2.025  0.00  0.00    +0.010 C 
ATOM     10  C   UNL     1       1.783  -3.570   3.306  0.00  0.00    +0.009 C 
ENDBRANCH   7   9
BRANCH   7  11
ATOM     11  N   UNL     1       2.735  -2.835   0.612  0.00  0.00    -0.318 NA
ATOM     12  H   UNL     1       3.168  -3.714   0.312  0.00  0.00    +0.119 HD
ATOM     13  H   UNL     1       2.829  -2.222  -0.198  0.00  0.00    +0.119 HD
ENDBRANCH   7  11
ENDBRANCH   5   7
ENDBRANCH   4   5
ENDBRANCH   3   4
ENDBRANCH   2   3
BRANCH   2  14
ATOM     14  C   UNL     1      -1.328  -1.224  -2.587  0.00  0.00    +0.190 C 
BRANCH  14  15
ATOM     15  O   UNL     1      -0.764  -0.262  -3.479  0.00  0.00    -0.392 OA
ATOM     16  H   UNL     1       0.197  -0.237  -3.329  0.00  0.00    +0.210 HD
ENDBRANCH  14  15
ENDBRANCH   2  14
ENDBRANCH   1   2
BRANCH   1  17
ATOM     17  C   UNL     1      -1.002  -2.509  -5.328  0.00  0.00    +0.288 C 
BRANCH  17  18
ATOM     18  N   UNL     1      -1.599  -3.160  -6.474  0.00  0.00    -0.291 N 
ATOM     19  C   UNL     1      -0.953  -3.747  -7.523  0.00  0.00    +0.171 A 
ATOM     20  N   UNL     1       0.384  -3.917  -7.670  0.00  0.00    -0.196 NA
ATOM     21  C   UNL     1       0.705  -4.552  -8.766  0.00  0.00    +0.195 A 
ATOM     22  N   UNL     1       2.006  -4.823  -9.038  0.00  0.00    -0.329 N 
ATOM     23  H   UNL     1       2.288  -4.914 -10.005  0.00  0.00    +0.145 HD
ATOM     24  H   UNL     1       2.658  -4.301  -8.463  0.00  0.00    +0.145 HD
ATOM     25  N   UNL     1      -0.211  -4.978  -9.703  0.00  0.00    -0.293 N 
ATOM     26  H   UNL     1       0.090  -5.485 -10.519  0.00  0.00    +0.172 HD
ATOM     27  C   UNL     1      -1.585  -4.811  -9.598  0.00  0.00    +0.280 A 
ATOM     28  O   UNL     1      -2.353  -5.214 -10.465  0.00  0.00    -0.265 OA
ATOM     29  C   UNL     1      -1.961  -4.131  -8.380  0.00  0.00    +0.172 A 
ATOM     30  N   UNL     1      -3.199  -3.783  -7.900  0.00  0.00    -0.229 NA
ATOM     31  C   UNL     1      -2.944  -3.201  -6.745  0.00  0.00    +0.203 A 
ENDBRANCH  17  18
ENDBRANCH   1  17
TORSDOF 11
