REMARK  Name = 
REMARK  13 active torsions:
REMARK  status: ('A' for Active; 'I' for Inactive)
REMARK    1  A    between atoms: C_1  and  C_2
REMARK    2  A    between atoms: C_2  and  C_3
REMARK    3  A    between atoms: C_2  and  C_4
REMARK    4  A    between atoms: C_4  and  C_6
REMARK    5  A    between atoms: C_4  and  N_26
REMARK    6  A    between atoms: C_6  and  O_8
REMARK    7  A    between atoms: O_8  and  C_9
REMARK    8  A    between atoms: C_9  and  C_10
REMARK    9  A    between atoms: C_10  and  C_11
REMARK   10  A    between atoms: C_10  and  O_13
REMARK   11  A    between atoms: C_11  and  O_12
REMARK   12  A    between atoms: O_13  and  C_14
REMARK   13  A    between atoms: C_14  and  N_15
REMARK                            x       y       z     vdW  Elec       q    Type
REMARK                         _______ _______ _______ _____ _____    ______ ____
ROOT
ATOM      1  O   UNL     1      -1.319  -4.633  -2.179  0.00  0.00    -0.350 OA
ENDROOT
BRANCH   1   2
ATOM      2  C   UNL     1      -0.804  -3.594  -1.318  0.00  0.00    +0.183 C 
BRANCH   2   3
ATOM      3  C   UNL     1       0.734  -3.570  -1.273  0.00  0.00    +0.266 C 
BRANCH   3   4
ATOM      4  O   UNL     1       1.259  -3.484  -2.611  0.00  0.00    -0.461 OA
BRANCH   4   5
ATOM      5  C   UNL     1       2.055  -2.412  -2.893  0.00  0.00    +0.324 C 
ATOM      6  O   UNL     1       2.396  -1.568  -2.074  0.00  0.00    -0.249 OA
BRANCH   5   7
ATOM      7  C   UNL     1       2.476  -2.397  -4.375  0.00  0.00    +0.163 C 
BRANCH   7   9
ATOM      8  C   UNL     1       4.940  -2.659  -3.762  0.00  0.00    +0.009 C 
ATOM      9  C   UNL     1       3.779  -3.195  -4.609  0.00  0.00    +0.010 C 
ATOM     10  C   UNL     1       4.199  -3.165  -6.086  0.00  0.00    +0.009 C 
ENDBRANCH   7   9
BRANCH   7  11
ATOM     11  N   UNL     1       1.379  -2.923  -5.227  0.00  0.00    -0.318 NA
ATOM     12  H   UNL     1       1.157  -3.872  -4.918  0.00  0.00    +0.119 HD
ATOM     13  H   UNL     1       0.532  -2.379  -5.059  0.00  0.00    +0.119 HD
ENDBRANCH   7  11
ENDBRANCH   5   7
ENDBRANCH   4   5
ENDBRANCH   3   4
ENDBRANCH   2   3
BRANCH   2  14
ATOM     14  C   UNL     1      -1.335  -2.255  -1.854  0.00  0.00    +0.190 C 
BRANCH  14  15
ATOM     15  O   UNL     1      -2.759  -2.221  -1.774  0.00  0.00    -0.392 OA
ATOM     16  H   UNL     1      -3.078  -2.956  -2.330  0.00  0.00    +0.210 HD
ENDBRANCH  14  15
ENDBRANCH   2  14
ENDBRANCH   1   2
BRANCH   1  17
ATOM     17  C   UNL     1      -1.028  -5.952  -1.703  0.00  0.00    +0.288 C 
BRANCH  17  18
ATOM     18  N   UNL     1      -1.591  -6.929  -2.617  0.00  0.00    -0.291 N 
ATOM     19  C   UNL     1      -1.080  -8.169  -2.880  0.00  0.00    +0.171 A 
ATOM     20  N   UNL     1       0.028  -8.728  -2.330  0.00  0.00    -0.196 NA
ATOM     21  C   UNL     1       0.273  -9.932  -2.777  0.00  0.00    +0.195 A 
ATOM     22  N   UNL     1       1.338 -10.631  -2.310  0.00  0.00    -0.329 N 
ATOM     23  H   UNL     1       1.770 -11.308  -2.925  0.00  0.00    +0.145 HD
ATOM     24  H   UNL     1       2.004 -10.061  -1.800  0.00  0.00    +0.145 HD
ATOM     25  N   UNL     1      -0.498 -10.570  -3.728  0.00  0.00    -0.293 N 
ATOM     26  H   UNL     1      -0.276 -11.507  -4.018  0.00  0.00    +0.172 HD
ATOM     27  C   UNL     1      -1.646 -10.039  -4.303  0.00  0.00    +0.280 A 
ATOM     28  O   UNL     1      -2.303 -10.663  -5.130  0.00  0.00    -0.265 OA
ATOM     29  C   UNL     1      -1.940  -8.714  -3.807  0.00  0.00    +0.172 A 
ATOM     30  N   UNL     1      -2.976  -7.862  -4.096  0.00  0.00    -0.229 NA
ATOM     31  C   UNL     1      -2.740  -6.799  -3.353  0.00  0.00    +0.203 A 
ENDBRANCH  17  18
ENDBRANCH   1  17
TORSDOF 11
