REMARK  Name = 
REMARK  4 active torsions:
REMARK  status: ('A' for Active; 'I' for Inactive)
REMARK    1  A    between atoms: C_3  and  N_13
REMARK    2  A    between atoms: C_6  and  O_12
REMARK    3  A    between atoms: C_8  and  C_10
REMARK    4  A    between atoms: C_10  and  O_11
REMARK                            x       y       z     vdW  Elec       q    Type
REMARK                         _______ _______ _______ _____ _____    ______ ____
ROOT
ATOM      1  N   UNL     1       4.045   1.509   1.825  0.00  0.00    -0.308 N 
ATOM      2  C   UNL     1       3.477   2.289   2.804  0.00  0.00    +0.170 A 
ATOM      3  N   UNL     1       2.310   2.980   2.733  0.00  0.00    -0.196 NA
ATOM      4  C   UNL     1       2.025   3.625   3.835  0.00  0.00    +0.195 A 
ATOM      5  N   UNL     1       0.907   4.388   3.916  0.00  0.00    -0.329 N 
ATOM      6  H   UNL     1       0.466   4.489   4.820  0.00  0.00    +0.145 HD
ATOM      7  H   UNL     1       0.252   4.233   3.157  0.00  0.00    +0.145 HD
ATOM      8  N   UNL     1       2.803   3.585   4.975  0.00  0.00    -0.293 N 
ATOM      9  H   UNL     1       2.543   4.115   5.788  0.00  0.00    +0.172 HD
ATOM     10  C   UNL     1       3.994   2.887   5.092  0.00  0.00    +0.280 A 
ATOM     11  O   UNL     1       4.640   2.875   6.134  0.00  0.00    -0.265 OA
ATOM     12  C   UNL     1       4.344   2.203   3.870  0.00  0.00    +0.172 A 
ATOM     13  N   UNL     1       5.448   1.458   3.565  0.00  0.00    -0.229 NA
ATOM     14  C   UNL     1       5.251   1.082   2.319  0.00  0.00    +0.202 A 
ENDROOT
BRANCH   1  20
ATOM     15  C   UNL     1       1.213   0.059   0.946  0.00  0.00    +0.010 C 
ATOM     16  C   UNL     1       2.517  -0.011   0.631  0.00  0.00    -0.046 C 
ATOM     17  C   UNL     1       3.216  -1.270   0.145  0.00  0.00    +0.070 C 
ATOM     18  C   UNL     1       4.561  -0.765  -0.409  0.00  0.00    +0.126 C 
ATOM     19  C   UNL     1       4.400   0.748  -0.574  0.00  0.00    +0.061 C 
ATOM     20  C   UNL     1       3.443   1.187   0.539  0.00  0.00    +0.118 C 
BRANCH  18  21
ATOM     21  O   UNL     1       4.827  -1.358  -1.675  0.00  0.00    -0.391 OA
ATOM     22  H   UNL     1       5.694  -1.034  -1.978  0.00  0.00    +0.210 HD
ENDBRANCH  18  21
BRANCH  17  23
ATOM     23  C   UNL     1       3.402  -2.339   1.229  0.00  0.00    +0.166 C 
BRANCH  23  24
ATOM     24  O   UNL     1       4.213  -1.880   2.303  0.00  0.00    -0.394 OA
ATOM     25  H   UNL     1       3.694  -1.236   2.819  0.00  0.00    +0.209 HD
ENDBRANCH  23  24
ENDBRANCH  17  23
ENDBRANCH   1  20
TORSDOF 4
REMARK  Name = 
REMARK  4 active torsions:
REMARK  status: ('A' for Active; 'I' for Inactive)
REMARK    1  A    between atoms: C_3  and  N_13
REMARK    2  A    between atoms: C_6  and  O_12
REMARK    3  A    between atoms: C_8  and  C_10
REMARK    4  A    between atoms: C_10  and  O_11
REMARK                            x       y       z     vdW  Elec       q    Type
REMARK                         _______ _______ _______ _____ _____    ______ ____
ROOT
ATOM      1  O   HOH     1       0.853  -0.130  -2.406  0.00  0.00    -0.410 OA
ATOM      2  H   HOH     0       0.884  -0.916  -1.840  0.00  0.00    +0.205 HD
ATOM      3  H   HOH     0       1.219   0.568  -1.842  0.00  0.00    +0.205 HD
ENDROOT
TORSDOF 0
