REMARK  Name = 
REMARK  13 active torsions:
REMARK  status: ('A' for Active; 'I' for Inactive)
REMARK    1  A    between atoms: C_1  and  C_2
REMARK    2  A    between atoms: C_2  and  C_3
REMARK    3  A    between atoms: C_2  and  C_4
REMARK    4  A    between atoms: C_4  and  C_6
REMARK    5  A    between atoms: C_4  and  N_27
REMARK    6  A    between atoms: C_6  and  O_8
REMARK    7  A    between atoms: O_8  and  C_9
REMARK    8  A    between atoms: C_9  and  C_10
REMARK    9  A    between atoms: C_10  and  C_12
REMARK   10  A    between atoms: C_10  and  O_14
REMARK   11  A    between atoms: C_12  and  O_13
REMARK   12  A    between atoms: O_14  and  C_15
REMARK   13  A    between atoms: C_15  and  N_16
REMARK                            x       y       z     vdW  Elec       q    Type
REMARK                         _______ _______ _______ _____ _____    ______ ____
ROOT
ATOM      1  O   UNL     1      -1.579  -1.797  -4.699  0.00  0.00    -0.350 OA
ENDROOT
BRANCH   1   2
ATOM      2  C   UNL     1      -0.926  -1.621  -3.430  0.00  0.00    +0.183 C 
BRANCH   2   3
ATOM      3  C   UNL     1      -1.330  -2.805  -2.534  0.00  0.00    +0.266 C 
BRANCH   3   4
ATOM      4  O   UNL     1      -0.681  -2.745  -1.254  0.00  0.00    -0.461 OA
BRANCH   4   5
ATOM      5  C   UNL     1       0.609  -3.198  -1.233  0.00  0.00    +0.324 C 
ATOM      6  O   UNL     1       1.188  -3.696  -2.189  0.00  0.00    -0.249 OA
BRANCH   5   7
ATOM      7  C   UNL     1       1.258  -2.942   0.140  0.00  0.00    +0.163 C 
BRANCH   7   9
ATOM      8  C   UNL     1       0.598  -5.259   0.959  0.00  0.00    +0.009 C 
ATOM      9  C   UNL     1       0.572  -3.756   1.265  0.00  0.00    +0.010 C 
ATOM     10  C   UNL     1       1.232  -3.524   2.631  0.00  0.00    +0.009 C 
ENDBRANCH   7   9
BRANCH   7  11
ATOM     11  N   UNL     1       1.235  -1.481   0.395  0.00  0.00    -0.318 NA
ATOM     12  H   UNL     1       0.265  -1.187   0.517  0.00  0.00    +0.119 HD
ATOM     13  H   UNL     1       1.706  -1.280   1.276  0.00  0.00    +0.119 HD
ENDBRANCH   7  11
ENDBRANCH   5   7
ENDBRANCH   4   5
ENDBRANCH   3   4
ENDBRANCH   2   3
BRANCH   2  14
ATOM     14  C   UNL     1      -1.336  -0.296  -2.758  0.00  0.00    +0.190 C 
BRANCH  14  15
ATOM     15  O   UNL     1      -0.763   0.829  -3.425  0.00  0.00    -0.392 OA
ATOM     16  H   UNL     1       0.205   0.755  -3.353  0.00  0.00    +0.210 HD
ENDBRANCH  14  15
ENDBRANCH   2  14
ENDBRANCH   1   2
BRANCH   1  17
ATOM     17  C   UNL     1      -1.082  -0.925  -5.720  0.00  0.00    +0.288 C 
BRANCH  17  18
ATOM     18  N   UNL     1      -1.667  -1.302  -6.992  0.00  0.00    -0.291 N 
ATOM     19  C   UNL     1      -1.108  -1.121  -8.227  0.00  0.00    +0.171 A 
ATOM     20  N   UNL     1       0.121  -0.614  -8.502  0.00  0.00    -0.196 NA
ATOM     21  C   UNL     1       0.398  -0.603  -9.779  0.00  0.00    +0.195 A 
ATOM     22  N   UNL     1       1.601  -0.145 -10.212  0.00  0.00    -0.329 N 
ATOM     23  H   UNL     1       1.665   0.231 -11.148  0.00  0.00    +0.145 HD
ATOM     24  H   UNL     1       2.110   0.387  -9.515  0.00  0.00    +0.145 HD
ATOM     25  N   UNL     1      -0.472  -1.032 -10.760  0.00  0.00    -0.293 N 
ATOM     26  H   UNL     1      -0.194  -1.028 -11.726  0.00  0.00    +0.172 HD
ATOM     27  C   UNL     1      -1.740  -1.541 -10.518  0.00  0.00    +0.280 A 
ATOM     28  O   UNL     1      -2.471  -1.910 -11.433  0.00  0.00    -0.265 OA
ATOM     29  C   UNL     1      -2.062  -1.573  -9.109  0.00  0.00    +0.172 A 
ATOM     30  N   UNL     1      -3.193  -2.000  -8.464  0.00  0.00    -0.229 NA
ATOM     31  C   UNL     1      -2.924  -1.815  -7.186  0.00  0.00    +0.203 A 
ENDBRANCH  17  18
ENDBRANCH   1  17
TORSDOF 11
