REMARK  Name = 
REMARK  4 active torsions:
REMARK  status: ('A' for Active; 'I' for Inactive)
REMARK    1  A    between atoms: C_3  and  C_21
REMARK    2  A    between atoms: C_5  and  O_20
REMARK    3  A    between atoms: C_8  and  N_9
REMARK    4  A    between atoms: C_21  and  O_22
REMARK                            x       y       z     vdW  Elec       q    Type
REMARK                         _______ _______ _______ _____ _____    ______ ____
ROOT
ATOM      1  N   UNL     1       2.814  -2.210  -1.032  0.00  0.00    -0.308 N 
ATOM      2  C   UNL     1       2.674  -3.541  -0.746  0.00  0.00    +0.170 A 
ATOM      3  N   UNL     1       2.938  -4.149   0.436  0.00  0.00    -0.196 NA
ATOM      4  C   UNL     1       2.729  -5.438   0.413  0.00  0.00    +0.195 A 
ATOM      5  N   UNL     1       2.960  -6.181   1.525  0.00  0.00    -0.329 N 
ATOM      6  H   UNL     1       2.389  -7.003   1.667  0.00  0.00    +0.145 HD
ATOM      7  H   UNL     1       3.059  -5.612   2.361  0.00  0.00    +0.145 HD
ATOM      8  N   UNL     1       2.270  -6.123  -0.694  0.00  0.00    -0.293 N 
ATOM      9  H   UNL     1       2.164  -7.123  -0.664  0.00  0.00    +0.172 HD
ATOM     10  C   UNL     1       1.997  -5.542  -1.924  0.00  0.00    +0.280 A 
ATOM     11  O   UNL     1       1.610  -6.203  -2.885  0.00  0.00    -0.265 OA
ATOM     12  C   UNL     1       2.229  -4.112  -1.916  0.00  0.00    +0.172 A 
ATOM     13  N   UNL     1       2.099  -3.180  -2.914  0.00  0.00    -0.229 NA
ATOM     14  C   UNL     1       2.463  -2.044  -2.350  0.00  0.00    +0.202 A 
ENDROOT
BRANCH   1  17
ATOM     15  C   UNL     1       1.033  -0.065   0.154  0.00  0.00    +0.010 C 
ATOM     16  C   UNL     1       2.370   0.003   0.077  0.00  0.00    -0.046 C 
ATOM     17  C   UNL     1       3.297  -1.190  -0.116  0.00  0.00    +0.118 C 
ATOM     18  C   UNL     1       4.642  -0.584  -0.539  0.00  0.00    +0.061 C 
ATOM     19  C   UNL     1       4.360   0.889  -0.822  0.00  0.00    +0.126 C 
ATOM     20  C   UNL     1       3.212   1.266   0.121  0.00  0.00    +0.070 C 
BRANCH  19  21
ATOM     21  O   UNL     1       5.517   1.682  -0.598  0.00  0.00    -0.391 OA
ATOM     22  H   UNL     1       5.873   1.482   0.285  0.00  0.00    +0.210 HD
ENDBRANCH  19  21
BRANCH  20  23
ATOM     23  C   UNL     1       2.585   2.605  -0.296  0.00  0.00    +0.166 C 
BRANCH  23  24
ATOM     24  O   UNL     1       1.587   3.035   0.626  0.00  0.00    -0.394 OA
ATOM     25  H   UNL     1       2.036   3.317   1.440  0.00  0.00    +0.209 HD
ENDBRANCH  23  24
ENDBRANCH  20  23
ENDBRANCH   1  17
TORSDOF 4
