REMARK  Name = 
REMARK  4 active torsions:
REMARK  status: ('A' for Active; 'I' for Inactive)
REMARK    1  A    between atoms: C_3  and  N_10
REMARK    2  A    between atoms: C_5  and  O_9
REMARK    3  A    between atoms: C_6  and  C_7
REMARK    4  A    between atoms: C_7  and  O_8
REMARK                            x       y       z     vdW  Elec       q    Type
REMARK                         _______ _______ _______ _____ _____    ______ ____
ROOT
ATOM      1  N   UNL     1       3.743   1.439   1.591  0.00  0.00    -0.308 N 
ATOM      2  C   UNL     1       4.583   2.435   2.022  0.00  0.00    +0.170 A 
ATOM      3  N   UNL     1       5.185   3.383   1.262  0.00  0.00    -0.196 NA
ATOM      4  C   UNL     1       5.979   4.167   1.943  0.00  0.00    +0.195 A 
ATOM      5  N   UNL     1       6.679   5.146   1.317  0.00  0.00    -0.329 N 
ATOM      6  H   UNL     1       6.949   5.964   1.845  0.00  0.00    +0.145 HD
ATOM      7  H   UNL     1       6.356   5.345   0.376  0.00  0.00    +0.145 HD
ATOM      8  N   UNL     1       6.166   4.076   3.307  0.00  0.00    -0.293 N 
ATOM      9  H   UNL     1       6.806   4.692   3.777  0.00  0.00    +0.172 HD
ATOM     10  C   UNL     1       5.564   3.130   4.123  0.00  0.00    +0.280 A 
ATOM     11  O   UNL     1       5.773   3.090   5.332  0.00  0.00    -0.265 OA
ATOM     12  C   UNL     1       4.702   2.238   3.381  0.00  0.00    +0.172 A 
ATOM     13  N   UNL     1       3.952   1.177   3.808  0.00  0.00    -0.229 NA
ATOM     14  C   UNL     1       3.379   0.726   2.710  0.00  0.00    +0.202 A 
ENDROOT
BRANCH   1  20
ATOM     15  C   UNL     1       0.995   0.154   0.046  0.00  0.00    +0.010 C 
ATOM     16  C   UNL     1       2.335   0.060   0.055  0.00  0.00    -0.046 C 
ATOM     17  C   UNL     1       3.165  -1.195  -0.199  0.00  0.00    +0.070 C 
ATOM     18  C   UNL     1       4.537  -0.635  -0.649  0.00  0.00    +0.126 C 
ATOM     19  C   UNL     1       4.370   0.879  -0.768  0.00  0.00    +0.061 C 
ATOM     20  C   UNL     1       3.269   1.249   0.223  0.00  0.00    +0.118 C 
BRANCH  18  21
ATOM     21  O   UNL     1       5.022  -1.151  -1.881  0.00  0.00    -0.391 OA
ATOM     22  H   UNL     1       4.266  -1.204  -2.504  0.00  0.00    +0.210 HD
ENDBRANCH  18  21
BRANCH  17  23
ATOM     23  C   UNL     1       2.556  -2.235  -1.143  0.00  0.00    +0.166 C 
BRANCH  23  24
ATOM     24  O   UNL     1       2.404  -1.698  -2.457  0.00  0.00    -0.394 OA
ATOM     25  H   UNL     1       1.675  -1.052  -2.415  0.00  0.00    +0.209 HD
ENDBRANCH  23  24
ENDBRANCH  17  23
ENDBRANCH   1  20
TORSDOF 4
