REMARK  Name = 
REMARK  4 active torsions:
REMARK  status: ('A' for Active; 'I' for Inactive)
REMARK    1  A    between atoms: C_3  and  N_10
REMARK    2  A    between atoms: C_5  and  O_9
REMARK    3  A    between atoms: C_6  and  C_7
REMARK    4  A    between atoms: C_7  and  O_8
REMARK                            x       y       z     vdW  Elec       q    Type
REMARK                         _______ _______ _______ _____ _____    ______ ____
ROOT
ATOM      1  N   UNL     1       3.751   1.452   1.613  0.00  0.00    -0.308 N 
ATOM      2  C   UNL     1       4.591   2.447   2.046  0.00  0.00    +0.170 A 
ATOM      3  N   UNL     1       5.193   3.398   1.285  0.00  0.00    -0.196 NA
ATOM      4  C   UNL     1       5.988   4.179   1.967  0.00  0.00    +0.195 A 
ATOM      5  N   UNL     1       6.692   5.157   1.341  0.00  0.00    -0.329 N 
ATOM      6  H   UNL     1       6.978   5.969   1.870  0.00  0.00    +0.145 HD
ATOM      7  H   UNL     1       6.374   5.359   0.400  0.00  0.00    +0.145 HD
ATOM      8  N   UNL     1       6.175   4.087   3.331  0.00  0.00    -0.293 N 
ATOM      9  H   UNL     1       6.814   4.704   3.802  0.00  0.00    +0.172 HD
ATOM     10  C   UNL     1       5.573   3.140   4.146  0.00  0.00    +0.280 A 
ATOM     11  O   UNL     1       5.781   3.100   5.355  0.00  0.00    -0.265 OA
ATOM     12  C   UNL     1       4.711   2.250   3.403  0.00  0.00    +0.172 A 
ATOM     13  N   UNL     1       3.962   1.187   3.827  0.00  0.00    -0.229 NA
ATOM     14  C   UNL     1       3.388   0.737   2.732  0.00  0.00    +0.202 A 
ENDROOT
BRANCH   1  20
ATOM     15  C   UNL     1       1.006   0.163   0.065  0.00  0.00    +0.010 C 
ATOM     16  C   UNL     1       2.346   0.072   0.074  0.00  0.00    -0.046 C 
ATOM     17  C   UNL     1       3.175  -1.185  -0.176  0.00  0.00    +0.070 C 
ATOM     18  C   UNL     1       4.548  -0.624  -0.626  0.00  0.00    +0.126 C 
ATOM     19  C   UNL     1       4.380   0.890  -0.747  0.00  0.00    +0.061 C 
ATOM     20  C   UNL     1       3.280   1.260   0.243  0.00  0.00    +0.118 C 
BRANCH  18  21
ATOM     21  O   UNL     1       5.035  -1.142  -1.857  0.00  0.00    -0.391 OA
ATOM     22  H   UNL     1       4.279  -1.197  -2.480  0.00  0.00    +0.210 HD
ENDBRANCH  18  21
BRANCH  17  23
ATOM     23  C   UNL     1       2.567  -2.226  -1.120  0.00  0.00    +0.166 C 
BRANCH  23  24
ATOM     24  O   UNL     1       2.416  -1.691  -2.435  0.00  0.00    -0.394 OA
ATOM     25  H   UNL     1       1.690  -1.042  -2.394  0.00  0.00    +0.209 HD
ENDBRANCH  23  24
ENDBRANCH  17  23
ENDBRANCH   1  20
TORSDOF 4
