REMARK  Name = 
REMARK  4 active torsions:
REMARK  status: ('A' for Active; 'I' for Inactive)
REMARK    1  A    between atoms: C_3  and  C_21
REMARK    2  A    between atoms: C_5  and  O_20
REMARK    3  A    between atoms: C_8  and  N_9
REMARK    4  A    between atoms: C_21  and  O_22
REMARK                            x       y       z     vdW  Elec       q    Type
REMARK                         _______ _______ _______ _____ _____    ______ ____
ROOT
ATOM      1  N   UNL     1       2.886  -2.189  -1.319  0.00  0.00    -0.308 N 
ATOM      2  C   UNL     1       3.072  -3.532  -1.097  0.00  0.00    +0.170 A 
ATOM      3  N   UNL     1       3.711  -4.105  -0.045  0.00  0.00    -0.196 NA
ATOM      4  C   UNL     1       3.763  -5.411  -0.121  0.00  0.00    +0.195 A 
ATOM      5  N   UNL     1       4.388  -6.128   0.848  0.00  0.00    -0.329 N 
ATOM      6  H   UNL     1       4.038  -7.058   1.039  0.00  0.00    +0.145 HD
ATOM      7  H   UNL     1       4.561  -5.588   1.689  0.00  0.00    +0.145 HD
ATOM      8  N   UNL     1       3.211  -6.145  -1.151  0.00  0.00    -0.293 N 
ATOM      9  H   UNL     1       3.309  -7.146  -1.171  0.00  0.00    +0.172 HD
ATOM     10  C   UNL     1       2.548  -5.600  -2.241  0.00  0.00    +0.280 A 
ATOM     11  O   UNL     1       2.075  -6.300  -3.130  0.00  0.00    -0.265 OA
ATOM     12  C   UNL     1       2.500  -4.155  -2.183  0.00  0.00    +0.172 A 
ATOM     13  N   UNL     1       1.985  -3.245  -3.068  0.00  0.00    -0.229 NA
ATOM     14  C   UNL     1       2.268  -2.073  -2.537  0.00  0.00    +0.202 A 
ENDROOT
BRANCH   1  17
ATOM     15  C   UNL     1       1.132   0.253  -0.585  0.00  0.00    +0.010 C 
ATOM     16  C   UNL     1       2.456   0.146  -0.384  0.00  0.00    -0.046 C 
ATOM     17  C   UNL     1       3.311  -1.123  -0.425  0.00  0.00    +0.118 C 
ATOM     18  C   UNL     1       4.736  -0.630  -0.725  0.00  0.00    +0.061 C 
ATOM     19  C   UNL     1       4.617   0.875  -0.955  0.00  0.00    +0.126 C 
ATOM     20  C   UNL     1       3.392   1.314  -0.145  0.00  0.00    +0.070 C 
BRANCH  19  21
ATOM     21  O   UNL     1       5.792   1.566  -0.554  0.00  0.00    -0.391 OA
ATOM     22  H   UNL     1       5.992   1.337   0.373  0.00  0.00    +0.210 HD
ENDBRANCH  19  21
BRANCH  20  23
ATOM     23  C   UNL     1       2.922   2.719  -0.538  0.00  0.00    +0.166 C 
BRANCH  23  24
ATOM     24  O   UNL     1       3.907   3.696  -0.218  0.00  0.00    -0.394 OA
ATOM     25  H   UNL     1       4.753   3.404  -0.612  0.00  0.00    +0.209 HD
ENDBRANCH  23  24
ENDBRANCH  20  23
ENDBRANCH   1  17
TORSDOF 4
REMARK  Name = 
REMARK  4 active torsions:
REMARK  status: ('A' for Active; 'I' for Inactive)
REMARK    1  A    between atoms: C_3  and  C_21
REMARK    2  A    between atoms: C_5  and  O_20
REMARK    3  A    between atoms: C_8  and  N_9
REMARK    4  A    between atoms: C_21  and  O_22
REMARK                            x       y       z     vdW  Elec       q    Type
REMARK                         _______ _______ _______ _____ _____    ______ ____
ROOT
ATOM      1  O   HOH     1       0.570  -2.336   1.486  0.00  0.00    -0.410 OA
ATOM      2  H   HOH     0       0.646  -2.565   0.546  0.00  0.00    +0.205 HD
ATOM      3  H   HOH     0       0.983  -1.462   1.553  0.00  0.00    +0.205 HD
ENDROOT
TORSDOF 0
