REMARK  Name = 
REMARK  4 active torsions:
REMARK  status: ('A' for Active; 'I' for Inactive)
REMARK    1  A    between atoms: C_3  and  C_21
REMARK    2  A    between atoms: C_5  and  O_20
REMARK    3  A    between atoms: C_8  and  N_9
REMARK    4  A    between atoms: C_21  and  O_22
REMARK                            x       y       z     vdW  Elec       q    Type
REMARK                         _______ _______ _______ _____ _____    ______ ____
ROOT
ATOM      1  N   UNL     1       3.209  -2.222  -1.250  0.00  0.00    -0.308 N 
ATOM      2  C   UNL     1       2.961  -3.523  -0.904  0.00  0.00    +0.170 A 
ATOM      3  N   UNL     1       3.144  -4.098   0.312  0.00  0.00    -0.196 NA
ATOM      4  C   UNL     1       2.833  -5.368   0.336  0.00  0.00    +0.195 A 
ATOM      5  N   UNL     1       2.984  -6.088   1.476  0.00  0.00    -0.329 N 
ATOM      6  H   UNL     1       2.366  -6.877   1.623  0.00  0.00    +0.145 HD
ATOM      7  H   UNL     1       3.107  -5.511   2.301  0.00  0.00    +0.145 HD
ATOM      8  N   UNL     1       2.342  -6.061  -0.753  0.00  0.00    -0.293 N 
ATOM      9  H   UNL     1       2.145  -7.044  -0.683  0.00  0.00    +0.172 HD
ATOM     10  C   UNL     1       2.132  -5.511  -2.008  0.00  0.00    +0.280 A 
ATOM     11  O   UNL     1       1.692  -6.174  -2.941  0.00  0.00    -0.265 OA
ATOM     12  C   UNL     1       2.493  -4.111  -2.058  0.00  0.00    +0.172 A 
ATOM     13  N   UNL     1       2.465  -3.224  -3.103  0.00  0.00    -0.229 NA
ATOM     14  C   UNL     1       2.916  -2.100  -2.588  0.00  0.00    +0.202 A 
ENDROOT
BRANCH   1  17
ATOM     15  C   UNL     1       1.392   0.033  -0.546  0.00  0.00    +0.010 C 
ATOM     16  C   UNL     1       2.712   0.047  -0.299  0.00  0.00    -0.046 C 
ATOM     17  C   UNL     1       3.645  -1.157  -0.365  0.00  0.00    +0.118 C 
ATOM     18  C   UNL     1       5.012  -0.553  -0.742  0.00  0.00    +0.061 C 
ATOM     19  C   UNL     1       4.763   0.944  -0.954  0.00  0.00    +0.126 C 
ATOM     20  C   UNL     1       3.561   1.279  -0.060  0.00  0.00    +0.070 C 
BRANCH  19  21
ATOM     21  O   UNL     1       5.909   1.714  -0.630  0.00  0.00    -0.391 OA
ATOM     22  H   UNL     1       6.199   1.493   0.271  0.00  0.00    +0.210 HD
ENDBRANCH  19  21
BRANCH  20  23
ATOM     23  C   UNL     1       2.969   2.654  -0.401  0.00  0.00    +0.166 C 
BRANCH  23  24
ATOM     24  O   UNL     1       1.894   2.982   0.479  0.00  0.00    -0.394 OA
ATOM     25  H   UNL     1       2.276   3.240   1.335  0.00  0.00    +0.209 HD
ENDBRANCH  23  24
ENDBRANCH  20  23
ENDBRANCH   1  17
TORSDOF 4
REMARK  Name = 
REMARK  4 active torsions:
REMARK  status: ('A' for Active; 'I' for Inactive)
REMARK    1  A    between atoms: C_3  and  C_21
REMARK    2  A    between atoms: C_5  and  O_20
REMARK    3  A    between atoms: C_8  and  N_9
REMARK    4  A    between atoms: C_21  and  O_22
REMARK                            x       y       z     vdW  Elec       q    Type
REMARK                         _______ _______ _______ _____ _____    ______ ____
ROOT
ATOM      1  O   HOH     1      -1.182  -0.508   1.331  0.00  0.00    -0.410 OA
ATOM      2  H   HOH     0      -1.237  -0.455   0.364  0.00  0.00    +0.205 HD
ATOM      3  H   HOH     0      -0.265  -0.254   1.519  0.00  0.00    +0.205 HD
ENDROOT
TORSDOF 0
