REMARK  Name = 
REMARK  4 active torsions:
REMARK  status: ('A' for Active; 'I' for Inactive)
REMARK    1  A    between atoms: C_3  and  N_13
REMARK    2  A    between atoms: C_6  and  O_12
REMARK    3  A    between atoms: C_8  and  C_10
REMARK    4  A    between atoms: C_10  and  O_11
REMARK                            x       y       z     vdW  Elec       q    Type
REMARK                         _______ _______ _______ _____ _____    ______ ____
ROOT
ATOM      1  N   UNL     1       2.427   2.445  -0.240  0.00  0.00    -0.308 N 
ATOM      2  C   UNL     1       1.924   3.379   0.636  0.00  0.00    +0.170 A 
ATOM      3  N   UNL     1       1.774   3.266   1.982  0.00  0.00    -0.196 NA
ATOM      4  C   UNL     1       1.266   4.337   2.537  0.00  0.00    +0.195 A 
ATOM      5  N   UNL     1       0.986   4.373   3.866  0.00  0.00    -0.329 N 
ATOM      6  H   UNL     1       0.215   4.961   4.153  0.00  0.00    +0.145 HD
ATOM      7  H   UNL     1       0.944   3.446   4.281  0.00  0.00    +0.145 HD
ATOM      8  N   UNL     1       0.956   5.491   1.849  0.00  0.00    -0.293 N 
ATOM      9  H   UNL     1       0.638   6.308   2.339  0.00  0.00    +0.172 HD
ATOM     10  C   UNL     1       1.115   5.660   0.482  0.00  0.00    +0.280 A 
ATOM     11  O   UNL     1       0.866   6.725  -0.074  0.00  0.00    -0.265 OA
ATOM     12  C   UNL     1       1.602   4.460  -0.159  0.00  0.00    +0.172 A 
ATOM     13  N   UNL     1       1.779   4.188  -1.487  0.00  0.00    -0.229 NA
ATOM     14  C   UNL     1       2.229   2.952  -1.504  0.00  0.00    +0.202 A 
ENDROOT
BRANCH   1  20
ATOM     15  C   UNL     1       0.972  -0.187  -0.023  0.00  0.00    +0.010 C 
ATOM     16  C   UNL     1       2.306  -0.061   0.039  0.00  0.00    -0.046 C 
ATOM     17  C   UNL     1       3.258  -1.244  -0.074  0.00  0.00    +0.070 C 
ATOM     18  C   UNL     1       4.568  -0.628  -0.603  0.00  0.00    +0.126 C 
ATOM     19  C   UNL     1       4.279   0.852  -0.853  0.00  0.00    +0.061 C 
ATOM     20  C   UNL     1       3.124   1.211   0.092  0.00  0.00    +0.118 C 
BRANCH  18  21
ATOM     21  O   UNL     1       4.927  -1.256  -1.835  0.00  0.00    -0.391 OA
ATOM     22  H   UNL     1       5.760  -0.858  -2.143  0.00  0.00    +0.210 HD
ENDBRANCH  18  21
BRANCH  17  23
ATOM     23  C   UNL     1       3.480  -1.948   1.273  0.00  0.00    +0.166 C 
BRANCH  23  24
ATOM     24  O   UNL     1       3.983  -1.056   2.265  0.00  0.00    -0.394 OA
ATOM     25  H   UNL     1       3.218  -0.569   2.621  0.00  0.00    +0.209 HD
ENDBRANCH  23  24
ENDBRANCH  17  23
ENDBRANCH   1  20
TORSDOF 4
