REMARK  Name = 
REMARK  7 active torsions:
REMARK  status: ('A' for Active; 'I' for Inactive)
REMARK    1  A    between atoms: N_5  and  C_6
REMARK    2  A    between atoms: C_6  and  O_7
REMARK    3  A    between atoms: O_7  and  C_8
REMARK    4  A    between atoms: C_8  and  C_9
REMARK    5  A    between atoms: C_8  and  C_11
REMARK    6  A    between atoms: C_9  and  O_10
REMARK    7  A    between atoms: C_11  and  O_12
REMARK                            x       y       z     vdW  Elec       q    Type
REMARK                         _______ _______ _______ _____ _____    ______ ____
ROOT
ATOM      1  C   UNL     1       2.275   0.095  -0.099  0.00  0.00    +0.203 A 
ATOM      2  N   UNL     1       1.487  -1.031  -0.126  0.00  0.00    -0.291 N 
ATOM      3  C   UNL     1       0.187  -0.613  -0.080  0.00  0.00    +0.171 A 
ATOM      4  N   UNL     1      -0.922  -1.382  -0.048  0.00  0.00    -0.196 NA
ATOM      5  C   UNL     1      -2.038  -0.701  -0.023  0.00  0.00    +0.195 A 
ATOM      6  N   UNL     1      -3.225  -1.344   0.062  0.00  0.00    -0.329 N 
ATOM      7  H   UNL     1      -4.040  -0.923  -0.366  0.00  0.00    +0.145 HD
ATOM      8  H   UNL     1      -3.164  -2.344  -0.105  0.00  0.00    +0.145 HD
ATOM      9  N   UNL     1      -2.094   0.681  -0.047  0.00  0.00    -0.293 N 
ATOM     10  H   UNL     1      -2.987   1.140   0.045  0.00  0.00    +0.172 HD
ATOM     11  C   UNL     1      -0.981   1.501   0.038  0.00  0.00    +0.280 A 
ATOM     12  O   UNL     1      -1.029   2.698   0.285  0.00  0.00    -0.265 OA
ATOM     13  C   UNL     1       0.258   0.758  -0.026  0.00  0.00    +0.172 A 
ATOM     14  N   UNL     1       1.563   1.190   0.111  0.00  0.00    -0.229 NA
ENDROOT
BRANCH   2  15
ATOM     15  C   UNL     1       1.980  -2.386  -0.247  0.00  0.00    +0.287 C 
BRANCH  15  16
ATOM     16  O   UNL     1       2.888  -2.613   0.848  0.00  0.00    -0.351 OA
BRANCH  16  17
ATOM     17  C   UNL     1       3.288  -4.002   0.953  0.00  0.00    +0.171 C 
BRANCH  17  18
ATOM     18  C   UNL     1       4.104  -4.153   2.245  0.00  0.00    +0.189 C 
BRANCH  18  19
ATOM     19  O   UNL     1       3.297  -3.854   3.382  0.00  0.00    -0.392 OA
ATOM     20  H   UNL     1       3.038  -2.921   3.297  0.00  0.00    +0.210 HD
ENDBRANCH  18  19
ENDBRANCH  17  18
BRANCH  17  21
ATOM     21  C   UNL     1       4.151  -4.453  -0.237  0.00  0.00    +0.189 C 
BRANCH  21  22
ATOM     22  O   UNL     1       3.379  -4.523  -1.435  0.00  0.00    -0.392 OA
ATOM     23  H   UNL     1       2.845  -5.337  -1.405  0.00  0.00    +0.210 HD
ENDBRANCH  21  22
ENDBRANCH  17  21
ENDBRANCH  16  17
ENDBRANCH  15  16
ENDBRANCH   2  15
TORSDOF 7
REMARK  Name = 
REMARK  7 active torsions:
REMARK  status: ('A' for Active; 'I' for Inactive)
REMARK    1  A    between atoms: N_5  and  C_6
REMARK    2  A    between atoms: C_6  and  O_7
REMARK    3  A    between atoms: O_7  and  C_8
REMARK    4  A    between atoms: C_8  and  C_9
REMARK    5  A    between atoms: C_8  and  C_11
REMARK    6  A    between atoms: C_9  and  O_10
REMARK    7  A    between atoms: C_11  and  O_12
REMARK                            x       y       z     vdW  Elec       q    Type
REMARK                         _______ _______ _______ _____ _____    ______ ____
ROOT
ATOM      1 NA   UNL     1       1.631   1.734   2.304  0.00  0.00    +0.000 Na
ENDROOT
TORSDOF 0
