REMARK  Name = 
REMARK  7 active torsions:
REMARK  status: ('A' for Active; 'I' for Inactive)
REMARK    1  A    between atoms: N_5  and  C_6
REMARK    2  A    between atoms: C_6  and  O_7
REMARK    3  A    between atoms: O_7  and  C_8
REMARK    4  A    between atoms: C_8  and  C_9
REMARK    5  A    between atoms: C_8  and  C_11
REMARK    6  A    between atoms: C_9  and  O_10
REMARK    7  A    between atoms: C_11  and  O_12
REMARK                            x       y       z     vdW  Elec       q    Type
REMARK                         _______ _______ _______ _____ _____    ______ ____
ROOT
ATOM      1  C   UNL     1       2.205   0.013   0.289  0.00  0.00    +0.203 A 
ATOM      2  N   UNL     1       1.427  -1.118   0.372  0.00  0.00    -0.291 N 
ATOM      3  C   UNL     1       0.124  -0.714   0.294  0.00  0.00    +0.171 A 
ATOM      4  N   UNL     1      -0.971  -1.505   0.210  0.00  0.00    -0.196 NA
ATOM      5  C   UNL     1      -2.094  -0.849   0.105  0.00  0.00    +0.195 A 
ATOM      6  N   UNL     1      -3.265  -1.508  -0.033  0.00  0.00    -0.329 N 
ATOM      7  H   UNL     1      -4.112  -1.089   0.333  0.00  0.00    +0.145 HD
ATOM      8  H   UNL     1      -3.201  -2.503   0.163  0.00  0.00    +0.145 HD
ATOM      9  N   UNL     1      -2.173   0.535   0.095  0.00  0.00    -0.293 N 
ATOM     10  H   UNL     1      -3.067   0.976  -0.079  0.00  0.00    +0.172 HD
ATOM     11  C   UNL     1      -1.069   1.364   0.016  0.00  0.00    +0.280 A 
ATOM     12  O   UNL     1      -1.116   2.537  -0.340  0.00  0.00    -0.265 OA
ATOM     13  C   UNL     1       0.178   0.654   0.192  0.00  0.00    +0.172 A 
ATOM     14  N   UNL     1       1.478   1.092   0.045  0.00  0.00    -0.229 NA
ENDROOT
BRANCH   2  15
ATOM     15  C   UNL     1       1.891  -2.483   0.211  0.00  0.00    +0.287 C 
BRANCH  15  16
ATOM     16  O   UNL     1       3.187  -2.626   0.803  0.00  0.00    -0.351 OA
BRANCH  16  17
ATOM     17  C   UNL     1       3.661  -3.999   0.739  0.00  0.00    +0.171 C 
BRANCH  17  18
ATOM     18  C   UNL     1       4.902  -4.102   1.634  0.00  0.00    +0.189 C 
BRANCH  18  19
ATOM     19  O   UNL     1       4.565  -3.844   2.993  0.00  0.00    -0.392 OA
ATOM     20  H   UNL     1       4.300  -2.908   3.044  0.00  0.00    +0.210 HD
ENDBRANCH  18  19
ENDBRANCH  17  18
BRANCH  17  21
ATOM     21  C   UNL     1       4.031  -4.416  -0.689  0.00  0.00    +0.189 C 
BRANCH  21  22
ATOM     22  O   UNL     1       2.880  -4.523  -1.527  0.00  0.00    -0.392 OA
ATOM     23  H   UNL     1       2.412  -5.343  -1.288  0.00  0.00    +0.210 HD
ENDBRANCH  21  22
ENDBRANCH  17  21
ENDBRANCH  16  17
ENDBRANCH  15  16
ENDBRANCH   2  15
TORSDOF 7
REMARK  Name = 
REMARK  7 active torsions:
REMARK  status: ('A' for Active; 'I' for Inactive)
REMARK    1  A    between atoms: N_5  and  C_6
REMARK    2  A    between atoms: C_6  and  O_7
REMARK    3  A    between atoms: O_7  and  C_8
REMARK    4  A    between atoms: C_8  and  C_9
REMARK    5  A    between atoms: C_8  and  C_11
REMARK    6  A    between atoms: C_9  and  O_10
REMARK    7  A    between atoms: C_11  and  O_12
REMARK                            x       y       z     vdW  Elec       q    Type
REMARK                         _______ _______ _______ _____ _____    ______ ____
ROOT
ATOM      1 NA   UNL     1       1.533   1.628  -2.166  0.00  0.00    +0.000 Na
ENDROOT
TORSDOF 0
