REMARK  Name = 
REMARK  3 active torsions:
REMARK  status: ('A' for Active; 'I' for Inactive)
REMARK    1  A    between atoms: C_3  and  N_9
REMARK    2  A    between atoms: C_5  and  C_7
REMARK    3  A    between atoms: C_7  and  O_8
REMARK                            x       y       z     vdW  Elec       q    Type
REMARK                         _______ _______ _______ _____ _____    ______ ____
ROOT
ATOM      1  N   UNL     1      -0.128   1.471  -1.740  0.00  0.00    -0.288 N 
ATOM      2  C   UNL     1      -1.121   2.195  -2.345  0.00  0.00    +0.169 A 
ATOM      3  N   UNL     1      -2.203   2.748  -1.749  0.00  0.00    -0.218 NA
ATOM      4  C   UNL     1      -2.982   3.354  -2.597  0.00  0.00    +0.201 A 
ATOM      5  N   UNL     1      -2.766   3.444  -3.961  0.00  0.00    -0.312 N 
ATOM      6  H   UNL     1      -3.421   3.923  -4.560  0.00  0.00    +0.170 HD
ATOM      7  C   UNL     1      -1.664   2.900  -4.603  0.00  0.00    +0.279 A 
ATOM      8  O   UNL     1      -1.506   3.000  -5.815  0.00  0.00    -0.265 OA
ATOM      9  C   UNL     1      -0.776   2.225  -3.681  0.00  0.00    +0.172 A 
ATOM     10  N   UNL     1       0.412   1.586  -3.909  0.00  0.00    -0.229 NA
ATOM     11  C   UNL     1       0.791   1.174  -2.718  0.00  0.00    +0.203 A 
ENDROOT
BRANCH   1  15
ATOM     12  C   UNL     1      -0.777  -1.080   0.004  0.00  0.00    +0.038 C 
ATOM     13  C   UNL     1       0.734  -1.029   0.141  0.00  0.00    +0.146 C 
ATOM     14  O   UNL     1       1.147   0.332  -0.117  0.00  0.00    -0.351 OA
ATOM     15  C   UNL     1      -0.028   1.151  -0.324  0.00  0.00    +0.222 C 
ATOM     16  C   UNL     1      -1.190   0.350   0.246  0.00  0.00    +0.057 C 
BRANCH  13  17
ATOM     17  C   UNL     1       1.441  -1.971  -0.836  0.00  0.00    +0.187 C 
BRANCH  17  18
ATOM     18  O   UNL     1       2.853  -1.889  -0.663  0.00  0.00    -0.392 OA
ATOM     19  H   UNL     1       3.080  -0.941  -0.719  0.00  0.00    +0.210 HD
ENDBRANCH  17  18
ENDBRANCH  13  17
ENDBRANCH   1  15
TORSDOF 3
