REMARK  Name = 
REMARK  3 active torsions:
REMARK  status: ('A' for Active; 'I' for Inactive)
REMARK    1  A    between atoms: C_3  and  N_9
REMARK    2  A    between atoms: C_5  and  C_7
REMARK    3  A    between atoms: C_7  and  O_8
REMARK                            x       y       z     vdW  Elec       q    Type
REMARK                         _______ _______ _______ _____ _____    ______ ____
ROOT
ATOM      1  N   UNL     1      -0.135   1.464  -1.742  0.00  0.00    -0.288 N 
ATOM      2  C   UNL     1      -1.127   2.192  -2.343  0.00  0.00    +0.169 A 
ATOM      3  N   UNL     1      -2.209   2.746  -1.739  0.00  0.00    -0.218 NA
ATOM      4  C   UNL     1      -2.988   3.355  -2.584  0.00  0.00    +0.201 A 
ATOM      5  N   UNL     1      -2.778   3.447  -3.948  0.00  0.00    -0.312 N 
ATOM      6  H   UNL     1      -3.432   3.929  -4.544  0.00  0.00    +0.170 HD
ATOM      7  C   UNL     1      -1.681   2.899  -4.597  0.00  0.00    +0.279 A 
ATOM      8  O   UNL     1      -1.527   3.001  -5.810  0.00  0.00    -0.265 OA
ATOM      9  C   UNL     1      -0.790   2.221  -3.680  0.00  0.00    +0.172 A 
ATOM     10  N   UNL     1       0.395   1.578  -3.913  0.00  0.00    -0.229 NA
ATOM     11  C   UNL     1       0.780   1.164  -2.724  0.00  0.00    +0.203 A 
ENDROOT
BRANCH   1  15
ATOM     12  C   UNL     1      -0.772  -1.086   0.017  0.00  0.00    +0.038 C 
ATOM     13  C   UNL     1       0.739  -1.031   0.147  0.00  0.00    +0.146 C 
ATOM     14  O   UNL     1       1.149   0.329  -0.123  0.00  0.00    -0.351 OA
ATOM     15  C   UNL     1      -0.027   1.145  -0.327  0.00  0.00    +0.222 C 
ATOM     16  C   UNL     1      -1.188   0.345   0.249  0.00  0.00    +0.057 C 
BRANCH  13  17
ATOM     17  C   UNL     1       1.444  -1.979  -0.828  0.00  0.00    +0.187 C 
BRANCH  17  18
ATOM     18  O   UNL     1       2.856  -1.894  -0.663  0.00  0.00    -0.392 OA
ATOM     19  H   UNL     1       3.083  -0.948  -0.733  0.00  0.00    +0.210 HD
ENDBRANCH  17  18
ENDBRANCH  13  17
ENDBRANCH   1  15
TORSDOF 3
