REMARK  Name = 
REMARK  4 active torsions:
REMARK  status: ('A' for Active; 'I' for Inactive)
REMARK    1  A    between atoms: C_3  and  N_13
REMARK    2  A    between atoms: C_6  and  O_12
REMARK    3  A    between atoms: C_8  and  C_10
REMARK    4  A    between atoms: C_10  and  O_11
REMARK                            x       y       z     vdW  Elec       q    Type
REMARK                         _______ _______ _______ _____ _____    ______ ____
ROOT
ATOM      1  N   UNL     1       2.521   2.626  -0.326  0.00  0.00    -0.308 N 
ATOM      2  C   UNL     1       2.001   3.539   0.560  0.00  0.00    +0.170 A 
ATOM      3  N   UNL     1       1.822   3.399   1.901  0.00  0.00    -0.196 NA
ATOM      4  C   UNL     1       1.309   4.461   2.469  0.00  0.00    +0.195 A 
ATOM      5  N   UNL     1       1.006   4.467   3.794  0.00  0.00    -0.329 N 
ATOM      6  H   UNL     1       0.238   5.060   4.080  0.00  0.00    +0.145 HD
ATOM      7  H   UNL     1       0.948   3.534   4.189  0.00  0.00    +0.145 HD
ATOM      8  N   UNL     1       1.016   5.630   1.798  0.00  0.00    -0.293 N 
ATOM      9  H   UNL     1       0.697   6.440   2.303  0.00  0.00    +0.172 HD
ATOM     10  C   UNL     1       1.202   5.825   0.441  0.00  0.00    +0.280 A 
ATOM     11  O   UNL     1       0.969   6.903  -0.097  0.00  0.00    -0.265 OA
ATOM     12  C   UNL     1       1.697   4.638  -0.217  0.00  0.00    +0.172 A 
ATOM     13  N   UNL     1       1.907   4.397  -1.547  0.00  0.00    -0.229 NA
ATOM     14  C   UNL     1       2.358   3.161  -1.583  0.00  0.00    +0.202 A 
ENDROOT
BRANCH   1  20
ATOM     15  C   UNL     1       1.055  -0.005  -0.147  0.00  0.00    +0.010 C 
ATOM     16  C   UNL     1       2.390   0.116  -0.100  0.00  0.00    -0.046 C 
ATOM     17  C   UNL     1       3.340  -1.065  -0.259  0.00  0.00    +0.070 C 
ATOM     18  C   UNL     1       4.687  -0.426  -0.651  0.00  0.00    +0.126 C 
ATOM     19  C   UNL     1       4.384   1.044  -0.929  0.00  0.00    +0.061 C 
ATOM     20  C   UNL     1       3.209   1.385  -0.005  0.00  0.00    +0.118 C 
BRANCH  18  21
ATOM     21  O   UNL     1       5.192  -1.042  -1.834  0.00  0.00    -0.391 OA
ATOM     22  H   UNL     1       6.021  -0.592  -2.075  0.00  0.00    +0.210 HD
ENDBRANCH  18  21
BRANCH  17  23
ATOM     23  C   UNL     1       3.471  -1.880   1.035  0.00  0.00    +0.166 C 
BRANCH  23  24
ATOM     24  O   UNL     1       3.958  -1.083   2.113  0.00  0.00    -0.394 OA
ATOM     25  H   UNL     1       3.249  -0.457   2.349  0.00  0.00    +0.209 HD
ENDBRANCH  23  24
ENDBRANCH  17  23
ENDBRANCH   1  20
TORSDOF 4
