REMARK  Name = 
REMARK  15 active torsions:
REMARK  status: ('A' for Active; 'I' for Inactive)
REMARK    1  A    between atoms: C_1  and  C_2
REMARK    2  A    between atoms: C_2  and  C_3
REMARK    3  A    between atoms: C_2  and  O_7
REMARK    4  A    between atoms: C_3  and  N_4
REMARK    5  A    between atoms: N_4  and  C_5
REMARK    6  A    between atoms: N_4  and  C_6
REMARK    7  A    between atoms: C_8  and  C_9
REMARK    8  A    between atoms: N_11  and  C_12
REMARK    9  A    between atoms: C_15  and  C_18
REMARK   10  A    between atoms: C_18  and  O_20
REMARK   11  A    between atoms: N9_30  and  C1*_31
REMARK   12  A    between atoms: C2*_33  and  O2*_43
REMARK   13  A    between atoms: C3*_35  and  O3*_42
REMARK   14  A    between atoms: C4*_37  and  C5*_40
REMARK   15  A    between atoms: C5*_40  and  O5*_41
REMARK                            x       y       z     vdW  Elec       q    Type
REMARK                         _______ _______ _______ _____ _____    ______ ____
ROOT
ATOM      1  C   UNL     1       0.639  -0.031  -1.116  0.00  0.00    +0.039 C 
ATOM      2  C   UNL     1       2.080  -0.510  -1.024  0.00  0.00    +0.125 C 
ENDROOT
BRANCH   2   3
ATOM      3  O   UNL     1       2.756   0.228  -0.008  0.00  0.00    -0.391 OA
ATOM      4  H   UNL     1       2.110   0.463   0.683  0.00  0.00    +0.210 HD
ENDBRANCH   2   3
BRANCH   2   5
ATOM      5  C   UNL     1       2.809  -0.513  -2.374  0.00  0.00    +0.114 C 
BRANCH   5   6
ATOM      6  N   UNL     1       2.427  -1.643  -3.257  0.00  0.00    -0.306 NA
ATOM      7  C   UNL     1       3.218  -1.572  -4.484  0.00  0.00    +0.104 C 
ATOM      8  C   UNL     1       1.007  -1.685  -3.600  0.00  0.00    +0.104 C 
ENDBRANCH   5   6
ENDBRANCH   2   5
TORSDOF 3
REMARK  Name = 
REMARK  15 active torsions:
REMARK  status: ('A' for Active; 'I' for Inactive)
REMARK    1  A    between atoms: C_1  and  C_2
REMARK    2  A    between atoms: C_2  and  C_3
REMARK    3  A    between atoms: C_2  and  O_7
REMARK    4  A    between atoms: C_3  and  N_4
REMARK    5  A    between atoms: N_4  and  C_5
REMARK    6  A    between atoms: N_4  and  C_6
REMARK    7  A    between atoms: C_8  and  C_9
REMARK    8  A    between atoms: N_11  and  C_12
REMARK    9  A    between atoms: C_15  and  C_18
REMARK   10  A    between atoms: C_18  and  O_20
REMARK   11  A    between atoms: N9_30  and  C1*_31
REMARK   12  A    between atoms: C2*_33  and  O2*_43
REMARK   13  A    between atoms: C3*_35  and  O3*_42
REMARK   14  A    between atoms: C4*_37  and  C5*_40
REMARK   15  A    between atoms: C5*_40  and  O5*_41
REMARK                            x       y       z     vdW  Elec       q    Type
REMARK                         _______ _______ _______ _____ _____    ______ ____
ROOT
ATOM      1  C   UNL     1       5.749   1.952   0.413  0.00  0.00    +0.033 A 
ATOM      2  C   UNL     1       6.050   1.562   1.731  0.00  0.00    +0.024 A 
ATOM      3  C   UNL     1       7.358   1.186   2.096  0.00  0.00    +0.017 A 
ATOM      4  C   UNL     1       8.388   1.225   1.146  0.00  0.00    +0.059 A 
ATOM      5  C   UNL     1       8.070   1.586  -0.167  0.00  0.00    +0.017 A 
ATOM      6  C   UNL     1       6.770   1.949  -0.526  0.00  0.00    +0.024 A 
ENDROOT
BRANCH   1   9
ATOM      7  C   UNL     1       2.450   2.998  -1.140  0.00  0.00    +0.109 C 
ATOM      8  C   UNL     1       3.901   2.575  -1.142  0.00  0.00    +0.214 C 
ATOM      9  N   UNL     1       4.432   2.378   0.123  0.00  0.00    -0.286 N 
ATOM     10  H   UNL     1       3.764   2.329   0.883  0.00  0.00    +0.155 HD
ATOM     11  O   UNL     1       4.487   2.440  -2.213  0.00  0.00    -0.276 OA
ENDBRANCH   1   9
BRANCH   4  12
ATOM     12  C   UNL     1       9.822   0.890   1.409  0.00  0.00    +0.337 C 
ATOM     13  O   UNL     1      10.643   0.785   0.512  0.00  0.00    -0.245 OA
BRANCH  12  14
ATOM     14  O   UNL     1      10.168   0.734   2.702  0.00  0.00    -0.477 OA
ATOM     15  H   UNL     1       9.500   0.970   3.364  0.00  0.00    +0.295 HD
ENDBRANCH  12  14
ENDBRANCH   4  12
TORSDOF 3
REMARK  Name = 
REMARK  15 active torsions:
REMARK  status: ('A' for Active; 'I' for Inactive)
REMARK    1  A    between atoms: C_1  and  C_2
REMARK    2  A    between atoms: C_2  and  C_3
REMARK    3  A    between atoms: C_2  and  O_7
REMARK    4  A    between atoms: C_3  and  N_4
REMARK    5  A    between atoms: N_4  and  C_5
REMARK    6  A    between atoms: N_4  and  C_6
REMARK    7  A    between atoms: C_8  and  C_9
REMARK    8  A    between atoms: N_11  and  C_12
REMARK    9  A    between atoms: C_15  and  C_18
REMARK   10  A    between atoms: C_18  and  O_20
REMARK   11  A    between atoms: N9_30  and  C1*_31
REMARK   12  A    between atoms: C2*_33  and  O2*_43
REMARK   13  A    between atoms: C3*_35  and  O3*_42
REMARK   14  A    between atoms: C4*_37  and  C5*_40
REMARK   15  A    between atoms: C5*_40  and  O5*_41
REMARK                            x       y       z     vdW  Elec       q    Type
REMARK                         _______ _______ _______ _____ _____    ______ ____
ROOT
ATOM      1  C1*   I A   1       1.458  -2.650   1.487  0.00  0.00    +0.253 C 
ATOM      2  O4*   I A   1       0.919  -3.135   0.253  0.00  0.00    -0.346 OA
ATOM      3  C4*   I A   1       1.523  -4.421  -0.011  0.00  0.00    +0.177 C 
ATOM      4  C3*   I A   1       2.210  -4.874   1.280  0.00  0.00    +0.178 C 
ATOM      5  C2*   I A   1       1.745  -3.873   2.338  0.00  0.00    +0.195 C 
ENDROOT
BRANCH   1  14
ATOM      6  C2    I A   1      -2.463  -0.990   0.481  0.00  0.00    +0.201 A 
ATOM      7  N1    I A   1      -2.551   0.378   0.708  0.00  0.00    -0.312 N 
ATOM      8  H1    I A   1      -3.245   0.944   0.234  0.00  0.00    +0.170 HD
ATOM      9  C6    I A   1      -1.632   1.075   1.476  0.00  0.00    +0.279 A 
ATOM     10  O6    I A   1      -1.649   2.300   1.556  0.00  0.00    -0.265 OA
ATOM     11  C5    I A   1      -0.608   0.206   2.037  0.00  0.00    +0.172 A 
ATOM     12  N7    I A   1       0.535   0.550   2.717  0.00  0.00    -0.229 NA
ATOM     13  C8    I A   1       1.220  -0.570   2.786  0.00  0.00    +0.203 A 
ATOM     14  N9    I A   1       0.634  -1.592   2.060  0.00  0.00    -0.285 N 
ATOM     15  C4    I A   1      -0.614  -1.142   1.688  0.00  0.00    +0.169 A 
ATOM     16  N3    I A   1      -1.551  -1.789   0.941  0.00  0.00    -0.218 NA
ENDBRANCH   1  14
BRANCH   4  17
ATOM     17  O3*   I A   1       3.637  -4.737   1.134  0.00  0.00    -0.386 OA
ATOM     18  H3*   I A   1       4.045  -5.243   1.862  0.00  0.00    +0.210 HD
ENDBRANCH   4  17
BRANCH   5  19
ATOM     19  O2*   I A   1       2.788  -3.633   3.296  0.00  0.00    -0.385 OA
ATOM     20  H2*   I A   1       3.594  -3.421   2.781  0.00  0.00    +0.210 HD
ENDBRANCH   5  19
BRANCH   3  21
ATOM     21  C5*   I A   1       0.387  -5.320  -0.489  0.00  0.00    +0.190 C 
BRANCH  21  22
ATOM     22  O5*   I A   1      -0.051  -4.900  -1.785  0.00  0.00    -0.392 OA
ATOM     23  H5*   I A   1       0.154  -3.948  -1.852  0.00  0.00    +0.210 HD
ENDBRANCH  21  22
ENDBRANCH   3  21
TORSDOF 5
