REMARK  Name = 
REMARK  15 active torsions:
REMARK  status: ('A' for Active; 'I' for Inactive)
REMARK    1  A    between atoms: C_1  and  C_2
REMARK    2  A    between atoms: C_2  and  C_3
REMARK    3  A    between atoms: C_2  and  O_7
REMARK    4  A    between atoms: C_3  and  N_4
REMARK    5  A    between atoms: N_4  and  C_5
REMARK    6  A    between atoms: N_4  and  C_6
REMARK    7  A    between atoms: C_8  and  C_9
REMARK    8  A    between atoms: N_11  and  C_12
REMARK    9  A    between atoms: C_15  and  C_18
REMARK   10  A    between atoms: C_18  and  O_20
REMARK   11  A    between atoms: N9_30  and  C1*_31
REMARK   12  A    between atoms: C2*_33  and  O2*_43
REMARK   13  A    between atoms: C3*_35  and  O3*_42
REMARK   14  A    between atoms: C4*_37  and  C5*_40
REMARK   15  A    between atoms: C5*_40  and  O5*_41
REMARK                            x       y       z     vdW  Elec       q    Type
REMARK                         _______ _______ _______ _____ _____    ______ ____
ROOT
ATOM      1  C   UNL     1       0.499   1.160  -1.393  0.00  0.00    +0.039 C 
ATOM      2  C   UNL     1       1.825   1.645  -0.811  0.00  0.00    +0.125 C 
ENDROOT
BRANCH   2   3
ATOM      3  O   UNL     1       1.754   1.476   0.604  0.00  0.00    -0.391 OA
ATOM      4  H   UNL     1       2.660   1.441   0.956  0.00  0.00    +0.210 HD
ENDBRANCH   2   3
BRANCH   2   5
ATOM      5  C   UNL     1       2.328   3.051  -1.098  0.00  0.00    +0.114 C 
BRANCH   5   6
ATOM      6  N   UNL     1       2.732   3.290  -2.490  0.00  0.00    -0.306 NA
ATOM      7  C   UNL     1       3.381   4.592  -2.569  0.00  0.00    +0.104 C 
ATOM      8  C   UNL     1       1.616   3.176  -3.418  0.00  0.00    +0.104 C 
ENDBRANCH   5   6
ENDBRANCH   2   5
TORSDOF 3
REMARK  Name = 
REMARK  15 active torsions:
REMARK  status: ('A' for Active; 'I' for Inactive)
REMARK    1  A    between atoms: C_1  and  C_2
REMARK    2  A    between atoms: C_2  and  C_3
REMARK    3  A    between atoms: C_2  and  O_7
REMARK    4  A    between atoms: C_3  and  N_4
REMARK    5  A    between atoms: N_4  and  C_5
REMARK    6  A    between atoms: N_4  and  C_6
REMARK    7  A    between atoms: C_8  and  C_9
REMARK    8  A    between atoms: N_11  and  C_12
REMARK    9  A    between atoms: C_15  and  C_18
REMARK   10  A    between atoms: C_18  and  O_20
REMARK   11  A    between atoms: N9_30  and  C1*_31
REMARK   12  A    between atoms: C2*_33  and  O2*_43
REMARK   13  A    between atoms: C3*_35  and  O3*_42
REMARK   14  A    between atoms: C4*_37  and  C5*_40
REMARK   15  A    between atoms: C5*_40  and  O5*_41
REMARK                            x       y       z     vdW  Elec       q    Type
REMARK                         _______ _______ _______ _____ _____    ______ ____
ROOT
ATOM      1  C   UNL     1       6.017  -1.253   0.970  0.00  0.00    +0.033 A 
ATOM      2  C   UNL     1       6.720  -2.433   0.710  0.00  0.00    +0.024 A 
ATOM      3  C   UNL     1       8.060  -2.340   0.376  0.00  0.00    +0.017 A 
ATOM      4  C   UNL     1       8.671  -1.074   0.326  0.00  0.00    +0.059 A 
ATOM      5  C   UNL     1       7.978   0.082   0.709  0.00  0.00    +0.017 A 
ATOM      6  C   UNL     1       6.636  -0.010   1.042  0.00  0.00    +0.024 A 
ENDROOT
BRANCH   1   9
ATOM      7  C   UNL     1       2.704  -1.341  -0.488  0.00  0.00    +0.109 C 
ATOM      8  C   UNL     1       4.068  -0.821  -0.306  0.00  0.00    +0.214 C 
ATOM      9  N   UNL     1       4.629  -1.325   0.887  0.00  0.00    -0.286 N 
ATOM     10  H   UNL     1       4.258  -2.233   1.149  0.00  0.00    +0.155 HD
ATOM     11  O   UNL     1       4.646  -0.134  -1.130  0.00  0.00    -0.276 OA
ENDBRANCH   1   9
BRANCH   4  12
ATOM     12  C   UNL     1      10.073  -0.924  -0.167  0.00  0.00    +0.337 C 
ATOM     13  O   UNL     1      10.827  -0.094   0.287  0.00  0.00    -0.245 OA
BRANCH  12  14
ATOM     14  O   UNL     1      10.380  -1.789  -1.143  0.00  0.00    -0.477 OA
ATOM     15  H   UNL     1       9.616  -2.242  -1.546  0.00  0.00    +0.295 HD
ENDBRANCH  12  14
ENDBRANCH   4  12
TORSDOF 3
REMARK  Name = 
REMARK  15 active torsions:
REMARK  status: ('A' for Active; 'I' for Inactive)
REMARK    1  A    between atoms: C_1  and  C_2
REMARK    2  A    between atoms: C_2  and  C_3
REMARK    3  A    between atoms: C_2  and  O_7
REMARK    4  A    between atoms: C_3  and  N_4
REMARK    5  A    between atoms: N_4  and  C_5
REMARK    6  A    between atoms: N_4  and  C_6
REMARK    7  A    between atoms: C_8  and  C_9
REMARK    8  A    between atoms: N_11  and  C_12
REMARK    9  A    between atoms: C_15  and  C_18
REMARK   10  A    between atoms: C_18  and  O_20
REMARK   11  A    between atoms: N9_30  and  C1*_31
REMARK   12  A    between atoms: C2*_33  and  O2*_43
REMARK   13  A    between atoms: C3*_35  and  O3*_42
REMARK   14  A    between atoms: C4*_37  and  C5*_40
REMARK   15  A    between atoms: C5*_40  and  O5*_41
REMARK                            x       y       z     vdW  Elec       q    Type
REMARK                         _______ _______ _______ _____ _____    ______ ____
ROOT
ATOM      1  C1*   I A   1       1.050  -3.149   1.573  0.00  0.00    +0.253 C 
ATOM      2  O4*   I A   1       1.000  -3.340   0.145  0.00  0.00    -0.346 OA
ATOM      3  C4*   I A   1       1.465  -4.675  -0.150  0.00  0.00    +0.177 C 
ATOM      4  C3*   I A   1       1.696  -5.351   1.205  0.00  0.00    +0.178 C 
ATOM      5  C2*   I A   1       0.862  -4.520   2.194  0.00  0.00    +0.195 C 
ENDROOT
BRANCH   1  14
ATOM      6  C2    I A   1      -2.467  -0.948   0.013  0.00  0.00    +0.201 A 
ATOM      7  N1    I A   1      -2.532   0.374   0.425  0.00  0.00    -0.312 N 
ATOM      8  H1    I A   1      -3.191   1.022   0.018  0.00  0.00    +0.170 HD
ATOM      9  C6    I A   1      -1.651   0.934   1.335  0.00  0.00    +0.279 A 
ATOM     10  O6    I A   1      -1.668   2.134   1.589  0.00  0.00    -0.265 OA
ATOM     11  C5    I A   1      -0.737  -0.052   1.878  0.00  0.00    +0.172 A 
ATOM     12  N7    I A   1       0.227   0.102   2.835  0.00  0.00    -0.229 NA
ATOM     13  C8    I A   1       0.852  -1.051   2.844  0.00  0.00    +0.203 A 
ATOM     14  N9    I A   1       0.301  -1.974   1.969  0.00  0.00    -0.285 N 
ATOM     15  C4    I A   1      -0.768  -1.347   1.380  0.00  0.00    +0.169 A 
ATOM     16  N3    I A   1      -1.617  -1.836   0.442  0.00  0.00    -0.218 NA
ENDBRANCH   1  14
BRANCH   4  17
ATOM     17  O3*   I A   1       3.098  -5.189   1.555  0.00  0.00    -0.386 OA
ATOM     18  H3*   I A   1       3.325  -5.944   2.134  0.00  0.00    +0.210 HD
ENDBRANCH   4  17
BRANCH   5  19
ATOM     19  O2*   I A   1       1.430  -4.607   3.503  0.00  0.00    -0.385 OA
ATOM     20  H2*   I A   1       2.386  -4.422   3.411  0.00  0.00    +0.210 HD
ENDBRANCH   5  19
BRANCH   3  21
ATOM     21  C5*   I A   1       0.374  -5.290  -1.009  0.00  0.00    +0.190 C 
BRANCH  21  22
ATOM     22  O5*   I A   1      -0.893  -5.031  -0.410  0.00  0.00    -0.392 OA
ATOM     23  H5*   I A   1      -0.953  -4.050  -0.339  0.00  0.00    +0.210 HD
ENDBRANCH  21  22
ENDBRANCH   3  21
TORSDOF 5
