REMARK  Name = 
REMARK  4 active torsions:
REMARK  status: ('A' for Active; 'I' for Inactive)
REMARK    1  A    between atoms: C_3  and  N_13
REMARK    2  A    between atoms: C_6  and  O_12
REMARK    3  A    between atoms: C_8  and  C_10
REMARK    4  A    between atoms: C_10  and  O_11
REMARK                            x       y       z     vdW  Elec       q    Type
REMARK                         _______ _______ _______ _____ _____    ______ ____
ROOT
ATOM      1  N   UNL     1       3.858   1.527   1.539  0.00  0.00    -0.308 N 
ATOM      2  C   UNL     1       5.074   1.403   2.156  0.00  0.00    +0.170 A 
ATOM      3  N   UNL     1       6.250   1.042   1.588  0.00  0.00    -0.196 NA
ATOM      4  C   UNL     1       7.277   1.156   2.387  0.00  0.00    +0.195 A 
ATOM      5  N   UNL     1       8.523   0.938   1.903  0.00  0.00    -0.329 N 
ATOM      6  H   UNL     1       9.289   0.712   2.519  0.00  0.00    +0.145 HD
ATOM      7  H   UNL     1       8.575   0.547   0.968  0.00  0.00    +0.145 HD
ATOM      8  N   UNL     1       7.180   1.489   3.723  0.00  0.00    -0.293 N 
ATOM      9  H   UNL     1       8.000   1.544   4.297  0.00  0.00    +0.172 HD
ATOM     10  C   UNL     1       5.991   1.804   4.364  0.00  0.00    +0.280 A 
ATOM     11  O   UNL     1       5.953   2.055   5.564  0.00  0.00    -0.265 OA
ATOM     12  C   UNL     1       4.863   1.803   3.459  0.00  0.00    +0.172 A 
ATOM     13  N   UNL     1       3.580   2.240   3.649  0.00  0.00    -0.229 NA
ATOM     14  C   UNL     1       3.016   2.109   2.467  0.00  0.00    +0.202 A 
ENDROOT
BRANCH   1  20
ATOM     15  C   UNL     1       1.238  -0.003   0.094  0.00  0.00    +0.010 C 
ATOM     16  C   UNL     1       2.576   0.005   0.091  0.00  0.00    -0.046 C 
ATOM     17  C   UNL     1       3.409  -1.216  -0.233  0.00  0.00    +0.070 C 
ATOM     18  C   UNL     1       4.697  -0.632  -0.853  0.00  0.00    +0.126 C 
ATOM     19  C   UNL     1       4.538   0.897  -0.861  0.00  0.00    +0.061 C 
ATOM     20  C   UNL     1       3.454   1.234   0.171  0.00  0.00    +0.118 C 
BRANCH  18  21
ATOM     21  O   UNL     1       5.882  -1.047  -0.181  0.00  0.00    -0.391 OA
ATOM     22  H   UNL     1       6.070  -0.389   0.520  0.00  0.00    +0.210 HD
ENDBRANCH  18  21
BRANCH  17  23
ATOM     23  C   UNL     1       3.631  -2.128   0.979  0.00  0.00    +0.166 C 
BRANCH  23  24
ATOM     24  O   UNL     1       4.408  -3.265   0.613  0.00  0.00    -0.394 OA
ATOM     25  H   UNL     1       5.267  -2.913   0.301  0.00  0.00    +0.209 HD
ENDBRANCH  23  24
ENDBRANCH  17  23
ENDBRANCH   1  20
TORSDOF 4
