REMARK  Name = 
REMARK  13 active torsions:
REMARK  status: ('A' for Active; 'I' for Inactive)
REMARK    1  A    between atoms: C_1  and  C_2
REMARK    2  A    between atoms: C_3  and  O_54
REMARK    3  A    between atoms: C_9  and  C_46
REMARK    4  A    between atoms: C_11  and  O_12
REMARK    5  A    between atoms: O_12  and  C_13
REMARK    6  A    between atoms: C_23  and  C_37
REMARK    7  A    between atoms: N_33  and  C_36
REMARK    8  A    between atoms: N_39  and  S_40
REMARK    9  A    between atoms: S_40  and  C_43
REMARK   10  A    between atoms: C_48  and  C_51
REMARK   11  A    between atoms: C_51  and  C_52
REMARK   12  A    between atoms: C_51  and  C_53
REMARK   13  A    between atoms: O_54  and  C_55
REMARK                            x       y       z     vdW  Elec       q    Type
REMARK                         _______ _______ _______ _____ _____    ______ ____
ROOT
ATOM      1  C   UNL     1       7.216  -3.716   0.564  0.00  0.00    +0.175 C 
ATOM      2  C   UNL     1       8.073  -3.060   1.652  0.00  0.00    +0.058 C 
ATOM      3  C   UNL     1       7.464  -3.532   2.973  0.00  0.00    +0.090 C 
ATOM      4  C   UNL     1       6.636  -2.483   3.687  0.00  0.00    +0.218 C 
ATOM      5  O   UNL     1       5.505  -2.747   4.099  0.00  0.00    -0.275 OA
ATOM      6  N   UNL     1       7.184  -1.232   3.941  0.00  0.00    -0.301 N 
ATOM      7  H   UNL     1       8.173  -1.047   3.827  0.00  0.00    +0.150 HD
ATOM      8  C   UNL     1       6.355  -0.403   4.827  0.00  0.00    +0.119 C 
ATOM      9  C   UNL     1       6.767  -0.747   6.275  0.00  0.00    +0.046 C 
ATOM     10  C   UNL     1       5.904  -1.601   7.092  0.00  0.00    -0.025 C 
ATOM     11  C   UNL     1       6.430  -2.418   8.027  0.00  0.00    -0.031 C 
ATOM     12  C   UNL     1       5.756  -3.552   8.748  0.00  0.00    +0.027 C 
ATOM     13  C   UNL     1       6.341  -4.901   8.278  0.00  0.00    +0.006 C 
ATOM     14  C   UNL     1       5.687  -5.368   6.973  0.00  0.00    +0.019 C 
ATOM     15  C   UNL     1       6.647  -6.002   5.958  0.00  0.00    +0.107 C 
ATOM     16  N   UNL     1       6.037  -5.996   4.628  0.00  0.00    -0.304 N 
ATOM     17  C   UNL     1       4.876  -6.844   4.419  0.00  0.00    +0.132 C 
ATOM     18  C   UNL     1       6.883  -5.908   3.523  0.00  0.00    +0.219 C 
ATOM     19  O   UNL     1       7.884  -6.596   3.368  0.00  0.00    -0.275 OA
ATOM     20  C   UNL     1       6.657   0.657   5.894  0.00  0.00    +0.046 C 
ATOM     21  C   UNL     1       6.526  -4.734   2.629  0.00  0.00    +0.091 C 
ATOM     22  C   UNL     1       6.653  -5.012   1.141  0.00  0.00    +0.058 C 
ENDROOT
BRANCH   8  23
ATOM     23  C   UNL     1       5.025  -0.025   4.185  0.00  0.00    +0.256 C 
ATOM     24  N   UNL     1       5.229   0.529   2.911  0.00  0.00    -0.188 N 
ATOM     25  H   UNL     1       6.153   0.469   2.496  0.00  0.00    +0.176 HD
ATOM     26  O   UNL     1       3.947  -0.090   4.752  0.00  0.00    -0.272 OA
BRANCH  24  27
ATOM     27  S   UNL     1       4.089   1.067   1.851  0.00  0.00    +0.048 S 
ATOM     28  O   UNL     1       3.683  -0.073   1.051  0.00  0.00    -0.155 OA
ATOM     29  O   UNL     1       4.693   2.215   1.216  0.00  0.00    -0.155 OA
BRANCH  27  30
ATOM     30  C   UNL     1       2.621   1.620   2.746  0.00  0.00    +0.151 C 
ATOM     31  C   UNL     1       2.118   2.993   2.384  0.00  0.00    +0.030 C 
ATOM     32  C   UNL     1       2.848   2.778   3.682  0.00  0.00    +0.030 C 
ENDBRANCH  27  30
ENDBRANCH  24  27
ENDBRANCH   8  23
BRANCH   1  33
ATOM     33  O   UNL     1       7.807  -3.824  -0.731  0.00  0.00    -0.488 OA
BRANCH  33  40
ATOM     34  C   UNL     1      12.134  -6.569  -4.124  0.00  0.00    +0.050 C 
ATOM     35  C   UNL     1      10.940  -5.675  -3.879  0.00  0.00    +0.017 A 
ATOM     36  C   UNL     1      10.450  -5.584  -2.567  0.00  0.00    +0.082 A 
ATOM     37  N   UNL     1      11.081  -6.258  -1.581  0.00  0.00    -0.244 NA
ATOM     38  C   UNL     1      10.629  -6.135  -0.318  0.00  0.00    +0.100 A 
ATOM     39  C   UNL     1       9.527  -5.369   0.003  0.00  0.00    +0.076 A 
ATOM     40  C   UNL     1       8.864  -4.661  -0.981  0.00  0.00    +0.132 A 
ATOM     41  C   UNL     1       9.324  -4.763  -2.312  0.00  0.00    +0.043 A 
ATOM     42  C   UNL     1       8.716  -4.077  -3.383  0.00  0.00    +0.017 A 
ATOM     43  C   UNL     1       9.225  -4.166  -4.679  0.00  0.00    +0.047 A 
ATOM     44  C   UNL     1      10.345  -4.952  -4.934  0.00  0.00    +0.125 A 
BRANCH  38  45
ATOM     45  C   UNL     1      11.390  -6.728   0.789  0.00  0.00    +0.127 A 
ATOM     46  S   UNL     1      12.433  -8.072   0.588  0.00  0.00    -0.074 S 
ATOM     47  C   UNL     1      12.792  -8.033   2.268  0.00  0.00    +0.070 A 
ATOM     48  C   UNL     1      12.102  -7.006   2.884  0.00  0.00    +0.052 A 
ATOM     49  N   UNL     1      11.311  -6.270   2.028  0.00  0.00    -0.242 NA
BRANCH  48  50
ATOM     50  C   UNL     1      12.145  -6.612   4.336  0.00  0.00    +0.032 C 
ATOM     51  C   UNL     1      10.784  -6.777   5.015  0.00  0.00    +0.014 C 
ATOM     52  C   UNL     1      12.633  -5.170   4.504  0.00  0.00    +0.014 C 
ENDBRANCH  48  50
ENDBRANCH  38  45
BRANCH  44  53
ATOM     53  O   UNL     1      10.935  -5.084  -6.163  0.00  0.00    -0.495 OA
ATOM     54  C   UNL     1      10.424  -4.306  -7.237  0.00  0.00    +0.277 C 
ENDBRANCH  44  53
ENDBRANCH  33  40
ENDBRANCH   1  33
TORSDOF 8
