REMARK  Name = 
REMARK  13 active torsions:
REMARK  status: ('A' for Active; 'I' for Inactive)
REMARK    1  A    between atoms: C_1  and  C_2
REMARK    2  A    between atoms: C_3  and  O_54
REMARK    3  A    between atoms: C_9  and  C_46
REMARK    4  A    between atoms: C_11  and  O_12
REMARK    5  A    between atoms: O_12  and  C_13
REMARK    6  A    between atoms: C_23  and  C_37
REMARK    7  A    between atoms: N_33  and  C_36
REMARK    8  A    between atoms: N_39  and  S_40
REMARK    9  A    between atoms: S_40  and  C_43
REMARK   10  A    between atoms: C_48  and  C_51
REMARK   11  A    between atoms: C_51  and  C_52
REMARK   12  A    between atoms: C_51  and  C_53
REMARK   13  A    between atoms: O_54  and  C_55
REMARK                            x       y       z     vdW  Elec       q    Type
REMARK                         _______ _______ _______ _____ _____    ______ ____
ROOT
ATOM      1  C   UNL     1       7.111  -3.716   0.546  0.00  0.00    +0.175 C 
ATOM      2  C   UNL     1       7.954  -3.045   1.634  0.00  0.00    +0.058 C 
ATOM      3  C   UNL     1       7.344  -3.531   2.952  0.00  0.00    +0.090 C 
ATOM      4  C   UNL     1       6.495  -2.485   3.650  0.00  0.00    +0.218 C 
ATOM      5  O   UNL     1       5.355  -2.752   4.033  0.00  0.00    -0.275 OA
ATOM      6  N   UNL     1       7.048  -1.241   3.924  0.00  0.00    -0.301 N 
ATOM      7  H   UNL     1       8.044  -1.082   3.848  0.00  0.00    +0.150 HD
ATOM      8  C   UNL     1       6.226  -0.420   4.819  0.00  0.00    +0.119 C 
ATOM      9  C   UNL     1       6.642  -0.772   6.264  0.00  0.00    +0.046 C 
ATOM     10  C   UNL     1       5.775  -1.625   7.078  0.00  0.00    -0.025 C 
ATOM     11  C   UNL     1       6.296  -2.453   8.006  0.00  0.00    -0.031 C 
ATOM     12  C   UNL     1       5.615  -3.584   8.723  0.00  0.00    +0.027 C 
ATOM     13  C   UNL     1       6.196  -4.935   8.257  0.00  0.00    +0.006 C 
ATOM     14  C   UNL     1       5.549  -5.402   6.949  0.00  0.00    +0.019 C 
ATOM     15  C   UNL     1       6.518  -6.031   5.939  0.00  0.00    +0.107 C 
ATOM     16  N   UNL     1       5.930  -6.008   4.600  0.00  0.00    -0.304 N 
ATOM     17  C   UNL     1       4.768  -6.848   4.365  0.00  0.00    +0.132 C 
ATOM     18  C   UNL     1       6.801  -5.909   3.514  0.00  0.00    +0.219 C 
ATOM     19  O   UNL     1       7.837  -6.552   3.406  0.00  0.00    -0.275 OA
ATOM     20  C   UNL     1       6.547   0.634   5.890  0.00  0.00    +0.046 C 
ATOM     21  C   UNL     1       6.436  -4.754   2.597  0.00  0.00    +0.091 C 
ATOM     22  C   UNL     1       6.614  -5.041   1.116  0.00  0.00    +0.058 C 
ENDROOT
BRANCH   8  23
ATOM     23  C   UNL     1       4.907  -0.019   4.193  0.00  0.00    +0.256 C 
ATOM     24  N   UNL     1       5.093   0.528   2.913  0.00  0.00    -0.188 N 
ATOM     25  H   UNL     1       6.010   0.457   2.490  0.00  0.00    +0.176 HD
ATOM     26  O   UNL     1       3.827  -0.066   4.773  0.00  0.00    -0.272 OA
BRANCH  24  27
ATOM     27  S   UNL     1       3.952   1.126   1.887  0.00  0.00    +0.048 S 
ATOM     28  O   UNL     1       3.519   0.023   1.066  0.00  0.00    -0.155 OA
ATOM     29  O   UNL     1       4.579   2.283   1.270  0.00  0.00    -0.155 OA
BRANCH  27  30
ATOM     30  C   UNL     1       2.512   1.683   2.818  0.00  0.00    +0.151 C 
ATOM     31  C   UNL     1       2.014   3.063   2.482  0.00  0.00    +0.030 C 
ATOM     32  C   UNL     1       2.774   2.829   3.759  0.00  0.00    +0.030 C 
ENDBRANCH  27  30
ENDBRANCH  24  27
ENDBRANCH   8  23
BRANCH   1  33
ATOM     33  O   UNL     1       7.676  -3.775  -0.762  0.00  0.00    -0.488 OA
BRANCH  33  40
ATOM     34  C   UNL     1      12.029  -6.194  -4.360  0.00  0.00    +0.050 C 
ATOM     35  C   UNL     1      10.794  -5.380  -4.052  0.00  0.00    +0.017 A 
ATOM     36  C   UNL     1      10.352  -5.336  -2.719  0.00  0.00    +0.082 A 
ATOM     37  N   UNL     1      11.061  -5.989  -1.770  0.00  0.00    -0.244 NA
ATOM     38  C   UNL     1      10.640  -5.919  -0.489  0.00  0.00    +0.100 A 
ATOM     39  C   UNL     1       9.500  -5.238  -0.115  0.00  0.00    +0.076 A 
ATOM     40  C   UNL     1       8.769  -4.544  -1.060  0.00  0.00    +0.132 A 
ATOM     41  C   UNL     1       9.188  -4.593  -2.408  0.00  0.00    +0.043 A 
ATOM     42  C   UNL     1       8.503  -3.922  -3.441  0.00  0.00    +0.017 A 
ATOM     43  C   UNL     1       8.961  -3.965  -4.757  0.00  0.00    +0.047 A 
ATOM     44  C   UNL     1      10.110  -4.684  -5.071  0.00  0.00    +0.125 A 
BRANCH  38  45
ATOM     45  C   UNL     1      11.479  -6.476   0.581  0.00  0.00    +0.127 A 
ATOM     46  S   UNL     1      12.636  -7.713   0.318  0.00  0.00    -0.074 S 
ATOM     47  C   UNL     1      13.041  -7.676   1.988  0.00  0.00    +0.070 A 
ATOM     48  C   UNL     1      12.281  -6.730   2.647  0.00  0.00    +0.052 A 
ATOM     49  N   UNL     1      11.393  -6.059   1.833  0.00  0.00    -0.242 NA
BRANCH  48  50
ATOM     50  C   UNL     1      12.336  -6.353   4.102  0.00  0.00    +0.032 C 
ATOM     51  C   UNL     1      11.024  -6.669   4.823  0.00  0.00    +0.014 C 
ATOM     52  C   UNL     1      12.677  -4.869   4.272  0.00  0.00    +0.014 C 
ENDBRANCH  48  50
ENDBRANCH  38  45
BRANCH  44  53
ATOM     53  O   UNL     1      10.648  -4.774  -6.329  0.00  0.00    -0.495 OA
ATOM     54  C   UNL     1      10.039  -4.024  -7.371  0.00  0.00    +0.277 C 
ENDBRANCH  44  53
ENDBRANCH  33  40
ENDBRANCH   1  33
TORSDOF 8
