REMARK  Name = 
REMARK  4 active torsions:
REMARK  status: ('A' for Active; 'I' for Inactive)
REMARK    1  A    between atoms: C_3  and  N_13
REMARK    2  A    between atoms: C_6  and  O_12
REMARK    3  A    between atoms: C_8  and  C_10
REMARK    4  A    between atoms: C_10  and  O_11
REMARK                            x       y       z     vdW  Elec       q    Type
REMARK                         _______ _______ _______ _____ _____    ______ ____
ROOT
ATOM      1  N   UNL     1       3.898   1.466   1.554  0.00  0.00    -0.308 N 
ATOM      2  C   UNL     1       5.171   1.546   2.054  0.00  0.00    +0.170 A 
ATOM      3  N   UNL     1       6.328   1.289   1.397  0.00  0.00    -0.196 NA
ATOM      4  C   UNL     1       7.400   1.441   2.129  0.00  0.00    +0.195 A 
ATOM      5  N   UNL     1       8.618   1.207   1.584  0.00  0.00    -0.329 N 
ATOM      6  H   UNL     1       9.416   1.703   1.956  0.00  0.00    +0.145 HD
ATOM      7  H   UNL     1       8.611   1.150   0.569  0.00  0.00    +0.145 HD
ATOM      8  N   UNL     1       7.376   1.830   3.449  0.00  0.00    -0.293 N 
ATOM      9  H   UNL     1       8.231   1.895   3.976  0.00  0.00    +0.172 HD
ATOM     10  C   UNL     1       6.219   2.095   4.171  0.00  0.00    +0.280 A 
ATOM     11  O   UNL     1       6.257   2.431   5.349  0.00  0.00    -0.265 OA
ATOM     12  C   UNL     1       5.026   1.928   3.370  0.00  0.00    +0.172 A 
ATOM     13  N   UNL     1       3.710   2.092   3.704  0.00  0.00    -0.229 NA
ATOM     14  C   UNL     1       3.057   1.809   2.595  0.00  0.00    +0.202 A 
ENDROOT
BRANCH   1  20
ATOM     15  C   UNL     1       1.186   0.043   0.134  0.00  0.00    +0.010 C 
ATOM     16  C   UNL     1       2.528   0.009   0.099  0.00  0.00    -0.046 C 
ATOM     17  C   UNL     1       3.319  -1.213  -0.324  0.00  0.00    +0.070 C 
ATOM     18  C   UNL     1       4.664  -0.639  -0.821  0.00  0.00    +0.126 C 
ATOM     19  C   UNL     1       4.468   0.879  -0.891  0.00  0.00    +0.061 C 
ATOM     20  C   UNL     1       3.436   1.220   0.194  0.00  0.00    +0.118 C 
BRANCH  18  21
ATOM     21  O   UNL     1       5.763  -1.027  -0.005  0.00  0.00    -0.391 OA
ATOM     22  H   UNL     1       6.016  -0.270   0.566  0.00  0.00    +0.210 HD
ENDBRANCH  18  21
BRANCH  17  23
ATOM     23  C   UNL     1       3.451  -2.279   0.768  0.00  0.00    +0.166 C 
BRANCH  23  24
ATOM     24  O   UNL     1       4.215  -3.382   0.289  0.00  0.00    -0.394 OA
ATOM     25  H   UNL     1       5.115  -3.026   0.135  0.00  0.00    +0.209 HD
ENDBRANCH  23  24
ENDBRANCH  17  23
ENDBRANCH   1  20
TORSDOF 4
