REMARK  Name = 
REMARK  4 active torsions:
REMARK  status: ('A' for Active; 'I' for Inactive)
REMARK    1  A    between atoms: C_3  and  N_13
REMARK    2  A    between atoms: C_6  and  O_12
REMARK    3  A    between atoms: C_8  and  C_10
REMARK    4  A    between atoms: C_10  and  O_11
REMARK                            x       y       z     vdW  Elec       q    Type
REMARK                         _______ _______ _______ _____ _____    ______ ____
ROOT
ATOM      1  N   UNL     1       2.476   2.409  -0.676  0.00  0.00    -0.308 N 
ATOM      2  C   UNL     1       1.788   3.229   0.187  0.00  0.00    +0.170 A 
ATOM      3  N   UNL     1       1.304   2.918   1.420  0.00  0.00    -0.196 NA
ATOM      4  C   UNL     1       0.671   3.912   1.997  0.00  0.00    +0.195 A 
ATOM      5  N   UNL     1       0.029   3.737   3.179  0.00  0.00    -0.329 N 
ATOM      6  H   UNL     1      -0.789   4.311   3.347  0.00  0.00    +0.145 HD
ATOM      7  H   UNL     1      -0.153   2.753   3.390  0.00  0.00    +0.145 HD
ATOM      8  N   UNL     1       0.574   5.176   1.458  0.00  0.00    -0.293 N 
ATOM      9  H   UNL     1       0.151   5.920   1.986  0.00  0.00    +0.172 HD
ATOM     10  C   UNL     1       1.087   5.547   0.224  0.00  0.00    +0.280 A 
ATOM     11  O   UNL     1       1.020   6.701  -0.186  0.00  0.00    -0.265 OA
ATOM     12  C   UNL     1       1.684   4.430  -0.475  0.00  0.00    +0.172 A 
ATOM     13  N   UNL     1       2.145   4.334  -1.760  0.00  0.00    -0.229 NA
ATOM     14  C   UNL     1       2.557   3.088  -1.866  0.00  0.00    +0.202 A 
ENDROOT
BRANCH   1  20
ATOM     15  C   UNL     1       1.110  -0.280  -0.995  0.00  0.00    +0.010 C 
ATOM     16  C   UNL     1       2.370  -0.120  -0.570  0.00  0.00    -0.046 C 
ATOM     17  C   UNL     1       3.351  -1.275  -0.421  0.00  0.00    +0.070 C 
ATOM     18  C   UNL     1       4.693  -0.647  -0.851  0.00  0.00    +0.126 C 
ATOM     19  C   UNL     1       4.422   0.841  -1.110  0.00  0.00    +0.061 C 
ATOM     20  C   UNL     1       3.138   1.159  -0.337  0.00  0.00    +0.118 C 
BRANCH  18  21
ATOM     21  O   UNL     1       5.133  -1.260  -2.065  0.00  0.00    -0.391 OA
ATOM     22  H   UNL     1       5.953  -0.818  -2.344  0.00  0.00    +0.210 HD
ENDBRANCH  18  21
BRANCH  17  23
ATOM     23  C   UNL     1       3.410  -1.819   1.016  0.00  0.00    +0.166 C 
BRANCH  23  24
ATOM     24  O   UNL     1       3.784  -0.817   1.957  0.00  0.00    -0.394 OA
ATOM     25  H   UNL     1       2.957  -0.496   2.362  0.00  0.00    +0.209 HD
ENDBRANCH  23  24
ENDBRANCH  17  23
ENDBRANCH   1  20
TORSDOF 4
REMARK  Name = 
REMARK  4 active torsions:
REMARK  status: ('A' for Active; 'I' for Inactive)
REMARK    1  A    between atoms: C_3  and  N_13
REMARK    2  A    between atoms: C_6  and  O_12
REMARK    3  A    between atoms: C_8  and  C_10
REMARK    4  A    between atoms: C_10  and  O_11
REMARK                            x       y       z     vdW  Elec       q    Type
REMARK                         _______ _______ _______ _____ _____    ______ ____
ROOT
ATOM      1  O   HOH     1       0.173   0.504   1.993  0.00  0.00    -0.410 OA
ATOM      2  H   HOH     0      -0.198   1.021   1.255  0.00  0.00    +0.205 HD
ATOM      3  H   HOH     0       1.049   0.932   2.041  0.00  0.00    +0.205 HD
ENDROOT
TORSDOF 0
