REMARK  Name = 
REMARK  4 active torsions:
REMARK  status: ('A' for Active; 'I' for Inactive)
REMARK    1  A    between atoms: C_3  and  N_13
REMARK    2  A    between atoms: C_6  and  O_12
REMARK    3  A    between atoms: C_8  and  C_10
REMARK    4  A    between atoms: C_10  and  O_11
REMARK                            x       y       z     vdW  Elec       q    Type
REMARK                         _______ _______ _______ _____ _____    ______ ____
ROOT
ATOM      1  N   UNL     1       2.269   2.165  -0.431  0.00  0.00    -0.308 N 
ATOM      2  C   UNL     1       1.586   2.993   0.435  0.00  0.00    +0.170 A 
ATOM      3  N   UNL     1       1.040   2.675   1.639  0.00  0.00    -0.196 NA
ATOM      4  C   UNL     1       0.409   3.676   2.203  0.00  0.00    +0.195 A 
ATOM      5  N   UNL     1      -0.280   3.505   3.366  0.00  0.00    -0.329 N 
ATOM      6  H   UNL     1      -1.096   4.093   3.490  0.00  0.00    +0.145 HD
ATOM      7  H   UNL     1      -0.486   2.531   3.562  0.00  0.00    +0.145 HD
ATOM      8  N   UNL     1       0.347   4.950   1.681  0.00  0.00    -0.293 N 
ATOM      9  H   UNL     1      -0.099   5.693   2.192  0.00  0.00    +0.172 HD
ATOM     10  C   UNL     1       0.881   5.319   0.460  0.00  0.00    +0.280 A 
ATOM     11  O   UNL     1       0.812   6.469   0.039  0.00  0.00    -0.265 OA
ATOM     12  C   UNL     1       1.500   4.203  -0.222  0.00  0.00    +0.172 A 
ATOM     13  N   UNL     1       1.967   4.109  -1.503  0.00  0.00    -0.229 NA
ATOM     14  C   UNL     1       2.381   2.865  -1.611  0.00  0.00    +0.202 A 
ENDROOT
BRANCH   1  20
ATOM     15  C   UNL     1       1.114  -0.765  -0.579  0.00  0.00    +0.010 C 
ATOM     16  C   UNL     1       2.364  -0.403  -0.263  0.00  0.00    -0.046 C 
ATOM     17  C   UNL     1       3.466  -1.454  -0.165  0.00  0.00    +0.070 C 
ATOM     18  C   UNL     1       4.730  -0.702  -0.615  0.00  0.00    +0.126 C 
ATOM     19  C   UNL     1       4.308   0.745  -0.874  0.00  0.00    +0.061 C 
ATOM     20  C   UNL     1       3.011   0.957  -0.081  0.00  0.00    +0.118 C 
BRANCH  18  21
ATOM     21  O   UNL     1       5.205  -1.273  -1.837  0.00  0.00    -0.391 OA
ATOM     22  H   UNL     1       5.978  -0.760  -2.129  0.00  0.00    +0.210 HD
ENDBRANCH  18  21
BRANCH  17  23
ATOM     23  C   UNL     1       3.595  -2.014   1.259  0.00  0.00    +0.166 C 
BRANCH  23  24
ATOM     24  O   UNL     1       3.913  -1.001   2.209  0.00  0.00    -0.394 OA
ATOM     25  H   UNL     1       3.074  -0.568   2.453  0.00  0.00    +0.209 HD
ENDBRANCH  23  24
ENDBRANCH  17  23
ENDBRANCH   1  20
TORSDOF 4
REMARK  Name = 
REMARK  4 active torsions:
REMARK  status: ('A' for Active; 'I' for Inactive)
REMARK    1  A    between atoms: C_3  and  N_13
REMARK    2  A    between atoms: C_6  and  O_12
REMARK    3  A    between atoms: C_8  and  C_10
REMARK    4  A    between atoms: C_10  and  O_11
REMARK                            x       y       z     vdW  Elec       q    Type
REMARK                         _______ _______ _______ _____ _____    ______ ____
ROOT
ATOM      1  O   HOH     1      -1.169   1.746  -0.306  0.00  0.00    -0.410 OA
ATOM      2  H   HOH     0      -0.572   2.008  -1.029  0.00  0.00    +0.205 HD
ATOM      3  H   HOH     0      -0.562   1.719   0.458  0.00  0.00    +0.205 HD
ENDROOT
TORSDOF 0
