REMARK  Name = 
REMARK  13 active torsions:
REMARK  status: ('A' for Active; 'I' for Inactive)
REMARK    1  A    between atoms: C_1  and  C_2
REMARK    2  A    between atoms: C_2  and  C_3
REMARK    3  A    between atoms: C_2  and  C_4
REMARK    4  A    between atoms: C_4  and  C_5
REMARK    5  A    between atoms: C_4  and  N_26
REMARK    6  A    between atoms: C_5  and  O_7
REMARK    7  A    between atoms: O_7  and  C_8
REMARK    8  A    between atoms: C_8  and  C_9
REMARK    9  A    between atoms: C_9  and  C_11
REMARK   10  A    between atoms: C_9  and  O_13
REMARK   11  A    between atoms: C_11  and  O_12
REMARK   12  A    between atoms: O_13  and  C_14
REMARK   13  A    between atoms: C_14  and  N_15
REMARK                            x       y       z     vdW  Elec       q    Type
REMARK                         _______ _______ _______ _____ _____    ______ ____
ROOT
ATOM      1  O   UNL     1      -1.484   5.149  -0.517  0.00  0.00    -0.350 OA
ENDROOT
BRANCH   1   2
ATOM      2  C   UNL     1      -0.808   3.900  -0.763  0.00  0.00    +0.183 C 
BRANCH   2   3
ATOM      3  C   UNL     1      -1.221   3.398  -2.157  0.00  0.00    +0.266 C 
BRANCH   3   4
ATOM      4  O   UNL     1      -0.520   2.192  -2.516  0.00  0.00    -0.461 OA
BRANCH   4   5
ATOM      5  C   UNL     1       0.734   2.372  -3.009  0.00  0.00    +0.324 C 
ATOM      6  O   UNL     1       1.280   3.458  -3.157  0.00  0.00    -0.249 OA
BRANCH   5   7
ATOM      7  C   UNL     1       1.393   1.022  -3.362  0.00  0.00    +0.163 C 
BRANCH   7   9
ATOM      8  C   UNL     1       2.336   0.784  -1.003  0.00  0.00    +0.009 C 
ATOM      9  C   UNL     1       2.661   0.798  -2.501  0.00  0.00    +0.010 C 
ATOM     10  C   UNL     1       3.381  -0.510  -2.860  0.00  0.00    +0.009 C 
ENDBRANCH   7   9
BRANCH   7  11
ATOM     11  N   UNL     1       1.737   1.032  -4.802  0.00  0.00    -0.318 NA
ATOM     12  H   UNL     1       0.897   1.218  -5.350  0.00  0.00    +0.119 HD
ATOM     13  H   UNL     1       2.356   1.829  -4.977  0.00  0.00    +0.119 HD
ENDBRANCH   7  11
ENDBRANCH   5   7
ENDBRANCH   4   5
ENDBRANCH   3   4
ENDBRANCH   2   3
BRANCH   2  14
ATOM     14  C   UNL     1      -1.172   2.836   0.291  0.00  0.00    +0.190 C 
BRANCH  14  15
ATOM     15  O   UNL     1      -0.562   3.112   1.551  0.00  0.00    -0.392 OA
ATOM     16  H   UNL     1       0.395   2.962   1.464  0.00  0.00    +0.210 HD
ENDBRANCH  14  15
ENDBRANCH   2  14
ENDBRANCH   1   2
BRANCH   1  17
ATOM     17  C   UNL     1      -0.969   5.838   0.629  0.00  0.00    +0.288 C 
BRANCH  17  18
ATOM     18  N   UNL     1      -1.558   7.161   0.725  0.00  0.00    -0.291 N 
ATOM     19  C   UNL     1      -1.016   8.219   1.399  0.00  0.00    +0.171 A 
ATOM     20  N   UNL     1       0.177   8.246   2.043  0.00  0.00    -0.196 NA
ATOM     21  C   UNL     1       0.415   9.384   2.639  0.00  0.00    +0.195 A 
ATOM     22  N   UNL     1       1.562   9.553   3.344  0.00  0.00    -0.329 N 
ATOM     23  H   UNL     1       1.955  10.483   3.393  0.00  0.00    +0.145 HD
ATOM     24  H   UNL     1       2.250   8.830   3.160  0.00  0.00    +0.145 HD
ATOM     25  N   UNL     1      -0.441  10.466   2.601  0.00  0.00    -0.293 N 
ATOM     26  H   UNL     1      -0.218  11.307   3.104  0.00  0.00    +0.172 HD
ATOM     27  C   UNL     1      -1.675  10.472   1.965  0.00  0.00    +0.280 A 
ATOM     28  O   UNL     1      -2.408  11.456   1.989  0.00  0.00    -0.265 OA
ATOM     29  C   UNL     1      -1.964   9.214   1.315  0.00  0.00    +0.172 A 
ATOM     30  N   UNL     1      -3.078   8.792   0.633  0.00  0.00    -0.229 NA
ATOM     31  C   UNL     1      -2.807   7.543   0.308  0.00  0.00    +0.203 A 
ENDBRANCH  17  18
ENDBRANCH   1  17
TORSDOF 11
