REMARK  Name = 
REMARK  13 active torsions:
REMARK  status: ('A' for Active; 'I' for Inactive)
REMARK    1  A    between atoms: C_1  and  C_2
REMARK    2  A    between atoms: C_2  and  C_3
REMARK    3  A    between atoms: C_2  and  C_4
REMARK    4  A    between atoms: C_4  and  C_5
REMARK    5  A    between atoms: C_4  and  N_26
REMARK    6  A    between atoms: C_5  and  O_7
REMARK    7  A    between atoms: O_7  and  C_8
REMARK    8  A    between atoms: C_8  and  C_9
REMARK    9  A    between atoms: C_9  and  C_11
REMARK   10  A    between atoms: C_9  and  O_13
REMARK   11  A    between atoms: C_11  and  O_12
REMARK   12  A    between atoms: O_13  and  C_14
REMARK   13  A    between atoms: C_14  and  N_15
REMARK                            x       y       z     vdW  Elec       q    Type
REMARK                         _______ _______ _______ _____ _____    ______ ____
ROOT
ATOM      1  O   UNL     1      -1.441  -4.960   1.044  0.00  0.00    -0.350 OA
ENDROOT
BRANCH   1   2
ATOM      2  C   UNL     1      -0.819  -3.663   1.136  0.00  0.00    +0.183 C 
BRANCH   2   3
ATOM      3  C   UNL     1      -1.279  -3.003   2.448  0.00  0.00    +0.266 C 
BRANCH   3   4
ATOM      4  O   UNL     1      -0.632  -1.732   2.662  0.00  0.00    -0.461 OA
BRANCH   4   5
ATOM      5  C   UNL     1       0.613  -1.793   3.213  0.00  0.00    +0.324 C 
ATOM      6  O   UNL     1       1.197  -2.831   3.502  0.00  0.00    -0.249 OA
BRANCH   5   7
ATOM      7  C   UNL     1       1.196  -0.383   3.430  0.00  0.00    +0.163 C 
BRANCH   7   9
ATOM      8  C   UNL     1       2.189  -0.351   1.081  0.00  0.00    +0.009 C 
ATOM      9  C   UNL     1       2.477  -0.193   2.579  0.00  0.00    +0.010 C 
ATOM     10  C   UNL     1       3.133   1.175   2.814  0.00  0.00    +0.009 C 
ENDBRANCH   7   9
BRANCH   7  11
ATOM     11  N   UNL     1       1.501  -0.220   4.870  0.00  0.00    -0.318 NA
ATOM     12  H   UNL     1       0.656  -0.388   5.416  0.00  0.00    +0.119 HD
ATOM     13  H   UNL     1       2.152  -0.961   5.145  0.00  0.00    +0.119 HD
ENDBRANCH   7  11
ENDBRANCH   5   7
ENDBRANCH   4   5
ENDBRANCH   3   4
ENDBRANCH   2   3
BRANCH   2  14
ATOM     14  C   UNL     1      -1.212  -2.760  -0.051  0.00  0.00    +0.190 C 
BRANCH  14  15
ATOM     15  O   UNL     1      -0.571  -3.168  -1.258  0.00  0.00    -0.392 OA
ATOM     16  H   UNL     1       0.377  -2.963  -1.178  0.00  0.00    +0.210 HD
ENDBRANCH  14  15
ENDBRANCH   2  14
ENDBRANCH   1   2
BRANCH   1  17
ATOM     17  C   UNL     1      -0.851  -5.792   0.039  0.00  0.00    +0.288 C 
BRANCH  17  18
ATOM     18  N   UNL     1      -1.462  -7.106   0.087  0.00  0.00    -0.291 N 
ATOM     19  C   UNL     1      -0.828  -8.316   0.136  0.00  0.00    +0.171 A 
ATOM     20  N   UNL     1       0.500  -8.543   0.296  0.00  0.00    -0.196 NA
ATOM     21  C   UNL     1       0.808  -9.813   0.321  0.00  0.00    +0.195 A 
ATOM     22  N   UNL     1       2.095 -10.201   0.503  0.00  0.00    -0.329 N 
ATOM     23  H   UNL     1       2.393 -11.073   0.089  0.00  0.00    +0.145 HD
ATOM     24  H   UNL     1       2.762  -9.444   0.389  0.00  0.00    +0.145 HD
ATOM     25  N   UNL     1      -0.111 -10.831   0.166  0.00  0.00    -0.293 N 
ATOM     26  H   UNL     1       0.180 -11.792   0.221  0.00  0.00    +0.172 HD
ATOM     27  C   UNL     1      -1.474 -10.644  -0.012  0.00  0.00    +0.280 A 
ATOM     28  O   UNL     1      -2.244 -11.589  -0.149  0.00  0.00    -0.265 OA
ATOM     29  C   UNL     1      -1.836  -9.244  -0.018  0.00  0.00    +0.172 A 
ATOM     30  N   UNL     1      -3.062  -8.645  -0.164  0.00  0.00    -0.229 NA
ATOM     31  C   UNL     1      -2.801  -7.355  -0.093  0.00  0.00    +0.203 A 
ENDBRANCH  17  18
ENDBRANCH   1  17
TORSDOF 11
