REMARK  Name = 
REMARK  4 active torsions:
REMARK  status: ('A' for Active; 'I' for Inactive)
REMARK    1  A    between atoms: C_3  and  N_12
REMARK    2  A    between atoms: C_6  and  O_11
REMARK    3  A    between atoms: C_7  and  C_9
REMARK    4  A    between atoms: C_9  and  O_10
REMARK                            x       y       z     vdW  Elec       q    Type
REMARK                         _______ _______ _______ _____ _____    ______ ____
ROOT
ATOM      1  N   UNL     1       3.808   1.437   1.602  0.00  0.00    -0.308 N 
ATOM      2  C   UNL     1       3.079   1.815   2.706  0.00  0.00    +0.170 A 
ATOM      3  N   UNL     1       1.745   2.052   2.770  0.00  0.00    -0.196 NA
ATOM      4  C   UNL     1       1.337   2.412   3.959  0.00  0.00    +0.195 A 
ATOM      5  N   UNL     1       0.033   2.721   4.171  0.00  0.00    -0.329 N 
ATOM      6  H   UNL     1      -0.350   2.586   5.096  0.00  0.00    +0.145 HD
ATOM      7  H   UNL     1      -0.583   2.429   3.420  0.00  0.00    +0.145 HD
ATOM      8  N   UNL     1       2.160   2.507   5.061  0.00  0.00    -0.293 N 
ATOM      9  H   UNL     1       1.796   2.808   5.948  0.00  0.00    +0.172 HD
ATOM     10  C   UNL     1       3.527   2.278   5.042  0.00  0.00    +0.280 A 
ATOM     11  O   UNL     1       4.216   2.386   6.054  0.00  0.00    -0.265 OA
ATOM     12  C   UNL     1       4.000   1.916   3.727  0.00  0.00    +0.172 A 
ATOM     13  N   UNL     1       5.270   1.674   3.286  0.00  0.00    -0.229 NA
ATOM     14  C   UNL     1       5.125   1.408   2.004  0.00  0.00    +0.202 A 
ENDROOT
BRANCH   1  20
ATOM     15  C   UNL     1       1.027   0.042   0.157  0.00  0.00    +0.010 C 
ATOM     16  C   UNL     1       2.366  -0.011   0.170  0.00  0.00    -0.046 C 
ATOM     17  C   UNL     1       3.155  -1.263  -0.170  0.00  0.00    +0.070 C 
ATOM     18  C   UNL     1       4.519  -0.713  -0.625  0.00  0.00    +0.126 C 
ATOM     19  C   UNL     1       4.320   0.797  -0.804  0.00  0.00    +0.061 C 
ATOM     20  C   UNL     1       3.290   1.195   0.260  0.00  0.00    +0.118 C 
BRANCH  18  21
ATOM     21  O   UNL     1       4.927  -1.287  -1.864  0.00  0.00    -0.391 OA
ATOM     22  H   UNL     1       4.237  -1.117  -2.529  0.00  0.00    +0.210 HD
ENDBRANCH  18  21
BRANCH  17  23
ATOM     23  C   UNL     1       3.269  -2.249   1.001  0.00  0.00    +0.166 C 
BRANCH  23  24
ATOM     24  O   UNL     1       3.865  -1.665   2.151  0.00  0.00    -0.394 OA
ATOM     25  H   UNL     1       3.208  -1.069   2.555  0.00  0.00    +0.209 HD
ENDBRANCH  23  24
ENDBRANCH  17  23
ENDBRANCH   1  20
TORSDOF 4
