REMARK  Name = 
REMARK  4 active torsions:
REMARK  status: ('A' for Active; 'I' for Inactive)
REMARK    1  A    between atoms: C_3  and  N_12
REMARK    2  A    between atoms: C_6  and  O_11
REMARK    3  A    between atoms: C_7  and  C_9
REMARK    4  A    between atoms: C_9  and  O_10
REMARK                            x       y       z     vdW  Elec       q    Type
REMARK                         _______ _______ _______ _____ _____    ______ ____
ROOT
ATOM      1  N   UNL     1       3.792   1.437   1.626  0.00  0.00    -0.308 N 
ATOM      2  C   UNL     1       3.081   1.862   2.724  0.00  0.00    +0.170 A 
ATOM      3  N   UNL     1       1.753   2.134   2.794  0.00  0.00    -0.196 NA
ATOM      4  C   UNL     1       1.363   2.531   3.977  0.00  0.00    +0.195 A 
ATOM      5  N   UNL     1       0.068   2.858   4.201  0.00  0.00    -0.329 N 
ATOM      6  H   UNL     1      -0.299   2.727   5.134  0.00  0.00    +0.145 HD
ATOM      7  H   UNL     1      -0.556   2.526   3.472  0.00  0.00    +0.145 HD
ATOM      8  N   UNL     1       2.202   2.653   5.065  0.00  0.00    -0.293 N 
ATOM      9  H   UNL     1       1.856   3.001   5.944  0.00  0.00    +0.172 HD
ATOM     10  C   UNL     1       3.565   2.393   5.041  0.00  0.00    +0.280 A 
ATOM     11  O   UNL     1       4.270   2.527   6.036  0.00  0.00    -0.265 OA
ATOM     12  C   UNL     1       4.015   1.967   3.734  0.00  0.00    +0.172 A 
ATOM     13  N   UNL     1       5.274   1.679   3.291  0.00  0.00    -0.229 NA
ATOM     14  C   UNL     1       5.112   1.409   2.013  0.00  0.00    +0.202 A 
ENDROOT
BRANCH   1  20
ATOM     15  C   UNL     1       1.033  -0.020   0.158  0.00  0.00    +0.010 C 
ATOM     16  C   UNL     1       2.373  -0.044   0.223  0.00  0.00    -0.046 C 
ATOM     17  C   UNL     1       3.201  -1.289  -0.038  0.00  0.00    +0.070 C 
ATOM     18  C   UNL     1       4.507  -0.713  -0.617  0.00  0.00    +0.126 C 
ATOM     19  C   UNL     1       4.279   0.795  -0.787  0.00  0.00    +0.061 C 
ATOM     20  C   UNL     1       3.259   1.182   0.291  0.00  0.00    +0.118 C 
BRANCH  18  21
ATOM     21  O   UNL     1       4.822  -1.289  -1.881  0.00  0.00    -0.391 OA
ATOM     22  H   UNL     1       4.043  -1.208  -2.462  0.00  0.00    +0.210 HD
ENDBRANCH  18  21
BRANCH  17  23
ATOM     23  C   UNL     1       3.476  -2.108   1.231  0.00  0.00    +0.166 C 
BRANCH  23  24
ATOM     24  O   UNL     1       2.285  -2.752   1.674  0.00  0.00    -0.394 OA
ATOM     25  H   UNL     1       2.493  -3.174   2.525  0.00  0.00    +0.209 HD
ENDBRANCH  23  24
ENDBRANCH  17  23
ENDBRANCH   1  20
TORSDOF 4
