REMARK  Name = 
REMARK  11 active torsions:
REMARK  status: ('A' for Active; 'I' for Inactive)
REMARK    1  A    between atoms: C_1  and  C_2
REMARK    2  A    between atoms: C_2  and  O_3
REMARK    3  A    between atoms: O_3  and  C_4
REMARK    4  A    between atoms: C_4  and  C_6
REMARK    5  A    between atoms: C_6  and  C_7
REMARK    6  A    between atoms: C_6  and  N_10
REMARK    7  A    between atoms: C_6  and  O_11
REMARK    8  A    between atoms: C_7  and  C_8
REMARK    9  A    between atoms: C_7  and  C_9
REMARK   10  A    between atoms: O_11  and  C_12
REMARK   11  A    between atoms: C_12  and  N_13
REMARK                            x       y       z     vdW  Elec       q    Type
REMARK                         _______ _______ _______ _____ _____    ______ ____
ROOT
ATOM      1  C   UNL     1       6.792   0.033   2.716  0.00  0.00    +0.290 C 
ENDROOT
BRANCH   1   2
ATOM      2  N   UNL     1       8.240   0.138   2.789  0.00  0.00    -0.291 N 
ATOM      3  C   UNL     1       9.134  -0.821   2.399  0.00  0.00    +0.171 A 
ATOM      4  N   UNL     1       8.848  -2.010   1.810  0.00  0.00    -0.196 NA
ATOM      5  C   UNL     1       9.906  -2.748   1.596  0.00  0.00    +0.195 A 
ATOM      6  N   UNL     1       9.778  -3.969   1.020  0.00  0.00    -0.329 N 
ATOM      7  H   UNL     1      10.544  -4.301   0.449  0.00  0.00    +0.145 HD
ATOM      8  H   UNL     1       8.868  -4.109   0.591  0.00  0.00    +0.145 HD
ATOM      9  N   UNL     1      11.191  -2.363   1.919  0.00  0.00    -0.293 N 
ATOM     10  H   UNL     1      11.962  -2.992   1.771  0.00  0.00    +0.172 HD
ATOM     11  C   UNL     1      11.527  -1.156   2.519  0.00  0.00    +0.280 A 
ATOM     12  O   UNL     1      12.686  -0.874   2.800  0.00  0.00    -0.265 OA
ATOM     13  C   UNL     1      10.367  -0.327   2.763  0.00  0.00    +0.172 A 
ATOM     14  N   UNL     1      10.262   0.907   3.352  0.00  0.00    -0.229 NA
ATOM     15  C   UNL     1       8.966   1.156   3.357  0.00  0.00    +0.203 A 
ENDBRANCH   1   2
BRANCH   1  16
ATOM     16  O   UNL     1       6.203   1.335   2.825  0.00  0.00    -0.328 OA
BRANCH  16  17
ATOM     17  C   UNL     1       4.777   1.325   2.730  0.00  0.00    +0.220 C 
BRANCH  17  18
ATOM     18  N   UNL     1       4.235   0.541   3.850  0.00  0.00    -0.294 NA
ATOM     19  H   UNL     1       4.435   1.018   4.724  0.00  0.00    +0.121 HD
ATOM     20  H   UNL     1       3.221   0.486   3.758  0.00  0.00    +0.121 HD
ENDBRANCH  17  18
BRANCH  17  21
ATOM     21  C   UNL     1       4.282   2.813   2.795  0.00  0.00    +0.041 C 
ATOM     22  C   UNL     1       4.799   3.581   4.022  0.00  0.00    +0.012 C 
ATOM     23  C   UNL     1       2.754   2.966   2.721  0.00  0.00    +0.012 C 
ENDBRANCH  17  21
BRANCH  17  24
ATOM     24  C   UNL     1       4.272   0.712   1.364  0.00  0.00    +0.355 C 
ATOM     25  O   UNL     1       3.470  -0.210   1.263  0.00  0.00    -0.246 OA
BRANCH  24  26
ATOM     26  O   UNL     1       4.856   1.352   0.306  0.00  0.00    -0.462 OA
BRANCH  26  28
ATOM     27  C   UNL     1       5.448  -0.304  -1.337  0.00  0.00    +0.048 C 
ATOM     28  C   UNL     1       4.517   0.842  -0.990  0.00  0.00    +0.229 C 
ENDBRANCH  26  28
ENDBRANCH  24  26
ENDBRANCH  17  24
ENDBRANCH  16  17
ENDBRANCH   1  16
TORSDOF 8
