REMARK  Name = 
REMARK  13 active torsions:
REMARK  status: ('A' for Active; 'I' for Inactive)
REMARK    1  A    between atoms: C_1  and  C_2
REMARK    2  A    between atoms: C_2  and  C_3
REMARK    3  A    between atoms: C_2  and  C_4
REMARK    4  A    between atoms: C_4  and  C_5
REMARK    5  A    between atoms: C_4  and  N_26
REMARK    6  A    between atoms: C_5  and  O_7
REMARK    7  A    between atoms: O_7  and  C_8
REMARK    8  A    between atoms: C_8  and  C_9
REMARK    9  A    between atoms: C_9  and  C_11
REMARK   10  A    between atoms: C_9  and  O_13
REMARK   11  A    between atoms: C_11  and  O_12
REMARK   12  A    between atoms: O_13  and  C_14
REMARK   13  A    between atoms: C_14  and  N_15
REMARK                            x       y       z     vdW  Elec       q    Type
REMARK                         _______ _______ _______ _____ _____    ______ ____
ROOT
ATOM      1  O   UNL     1      -1.348  -4.033  -3.088  0.00  0.00    -0.350 OA
ENDROOT
BRANCH   1   2
ATOM      2  C   UNL     1      -0.867  -3.206  -2.008  0.00  0.00    +0.183 C 
BRANCH   2   3
ATOM      3  C   UNL     1       0.667  -3.161  -1.919  0.00  0.00    +0.266 C 
BRANCH   3   4
ATOM      4  O   UNL     1       1.228  -2.699  -3.164  0.00  0.00    -0.461 OA
BRANCH   4   5
ATOM      5  C   UNL     1       2.092  -1.653  -3.082  0.00  0.00    +0.324 C 
ATOM      6  O   UNL     1       2.426  -1.102  -2.038  0.00  0.00    -0.249 OA
BRANCH   5   7
ATOM      7  C   UNL     1       2.579  -1.212  -4.473  0.00  0.00    +0.163 C 
BRANCH   7   9
ATOM      8  C   UNL     1       3.796  -3.411  -4.909  0.00  0.00    +0.009 C 
ATOM      9  C   UNL     1       3.922  -1.885  -4.840  0.00  0.00    +0.010 C 
ATOM     10  C   UNL     1       4.470  -1.373  -6.180  0.00  0.00    +0.009 C 
ENDBRANCH   7   9
BRANCH   7  11
ATOM     11  N   UNL     1       2.738   0.267  -4.456  0.00  0.00    -0.318 NA
ATOM     12  H   UNL     1       1.858   0.690  -4.157  0.00  0.00    +0.119 HD
ATOM     13  H   UNL     1       3.398   0.499  -3.708  0.00  0.00    +0.119 HD
ENDBRANCH   7  11
ENDBRANCH   5   7
ENDBRANCH   4   5
ENDBRANCH   3   4
ENDBRANCH   2   3
BRANCH   2  14
ATOM     14  C   UNL     1      -1.430  -1.796  -2.242  0.00  0.00    +0.190 C 
BRANCH  14  15
ATOM     15  O   UNL     1      -2.853  -1.820  -2.128  0.00  0.00    -0.392 OA
ATOM     16  H   UNL     1      -3.161  -2.501  -2.753  0.00  0.00    +0.210 HD
ENDBRANCH  14  15
ENDBRANCH   2  14
ENDBRANCH   1   2
BRANCH   1  17
ATOM     17  C   UNL     1      -1.035  -5.418  -2.920  0.00  0.00    +0.288 C 
BRANCH  17  18
ATOM     18  N   UNL     1      -1.551  -6.171  -4.045  0.00  0.00    -0.291 N 
ATOM     19  C   UNL     1      -1.004  -7.315  -4.555  0.00  0.00    +0.171 A 
ATOM     20  N   UNL     1       0.100  -7.960  -4.099  0.00  0.00    -0.196 NA
ATOM     21  C   UNL     1       0.384  -9.038  -4.782  0.00  0.00    +0.195 A 
ATOM     22  N   UNL     1       1.446  -9.806  -4.432  0.00  0.00    -0.329 N 
ATOM     23  H   UNL     1       1.895 -10.368  -5.142  0.00  0.00    +0.145 HD
ATOM     24  H   UNL     1       2.089  -9.350  -3.793  0.00  0.00    +0.145 HD
ATOM     25  N   UNL     1      -0.342  -9.469  -5.874  0.00  0.00    -0.293 N 
ATOM     26  H   UNL     1      -0.090 -10.317  -6.351  0.00  0.00    +0.172 HD
ATOM     27  C   UNL     1      -1.484  -8.844  -6.361  0.00  0.00    +0.280 A 
ATOM     28  O   UNL     1      -2.102  -9.287  -7.323  0.00  0.00    -0.265 OA
ATOM     29  C   UNL     1      -1.822  -7.659  -5.605  0.00  0.00    +0.172 A 
ATOM     30  N   UNL     1      -2.869  -6.782  -5.738  0.00  0.00    -0.229 NA
ATOM     31  C   UNL     1      -2.679  -5.900  -4.776  0.00  0.00    +0.203 A 
ENDBRANCH  17  18
ENDBRANCH   1  17
TORSDOF 11
