REMARK  Name = 
REMARK  11 active torsions:
REMARK  status: ('A' for Active; 'I' for Inactive)
REMARK    1  A    between atoms: C_1  and  C_2
REMARK    2  A    between atoms: C_2  and  O_3
REMARK    3  A    between atoms: O_3  and  C_4
REMARK    4  A    between atoms: C_4  and  C_6
REMARK    5  A    between atoms: C_6  and  C_7
REMARK    6  A    between atoms: C_6  and  N_10
REMARK    7  A    between atoms: C_6  and  O_11
REMARK    8  A    between atoms: C_7  and  C_8
REMARK    9  A    between atoms: C_7  and  C_9
REMARK   10  A    between atoms: O_11  and  C_12
REMARK   11  A    between atoms: C_12  and  N_13
REMARK                            x       y       z     vdW  Elec       q    Type
REMARK                         _______ _______ _______ _____ _____    ______ ____
ROOT
ATOM      1  C   UNL     1       6.937   1.052   2.576  0.00  0.00    +0.290 C 
ENDROOT
BRANCH   1   2
ATOM      2  N   UNL     1       8.383   1.189   2.604  0.00  0.00    -0.291 N 
ATOM      3  C   UNL     1       9.284   0.157   2.592  0.00  0.00    +0.171 A 
ATOM      4  N   UNL     1       9.006  -1.165   2.479  0.00  0.00    -0.196 NA
ATOM      5  C   UNL     1      10.067  -1.924   2.557  0.00  0.00    +0.195 A 
ATOM      6  N   UNL     1       9.950  -3.272   2.464  0.00  0.00    -0.329 N 
ATOM      7  H   UNL     1      10.721  -3.780   2.052  0.00  0.00    +0.145 HD
ATOM      8  H   UNL     1       9.044  -3.564   2.111  0.00  0.00    +0.145 HD
ATOM      9  N   UNL     1      11.349  -1.441   2.724  0.00  0.00    -0.293 N 
ATOM     10  H   UNL     1      12.122  -2.075   2.827  0.00  0.00    +0.172 HD
ATOM     11  C   UNL     1      11.676  -0.097   2.847  0.00  0.00    +0.280 A 
ATOM     12  O   UNL     1      12.833   0.275   3.019  0.00  0.00    -0.265 OA
ATOM     13  C   UNL     1      10.513   0.756   2.762  0.00  0.00    +0.172 A 
ATOM     14  N   UNL     1      10.401   2.122   2.856  0.00  0.00    -0.229 NA
ATOM     15  C   UNL     1       9.105   2.346   2.762  0.00  0.00    +0.203 A 
ENDBRANCH   1   2
BRANCH   1  16
ATOM     16  O   UNL     1       6.336   2.303   2.212  0.00  0.00    -0.328 OA
BRANCH  16  17
ATOM     17  C   UNL     1       4.910   2.248   2.128  0.00  0.00    +0.220 C 
BRANCH  17  18
ATOM     18  N   UNL     1       4.372   1.914   3.456  0.00  0.00    -0.294 NA
ATOM     19  H   UNL     1       4.559   2.679   4.099  0.00  0.00    +0.121 HD
ATOM     20  H   UNL     1       3.359   1.814   3.388  0.00  0.00    +0.121 HD
ENDBRANCH  17  18
BRANCH  17  21
ATOM     21  C   UNL     1       4.404   3.654   1.652  0.00  0.00    +0.041 C 
ATOM     22  C   UNL     1       4.912   4.817   2.519  0.00  0.00    +0.012 C 
ATOM     23  C   UNL     1       2.875   3.757   1.529  0.00  0.00    +0.012 C 
ENDBRANCH  17  21
BRANCH  17  24
ATOM     24  C   UNL     1       4.410   1.183   1.074  0.00  0.00    +0.355 C 
ATOM     25  O   UNL     1       3.608   0.286   1.311  0.00  0.00    -0.246 OA
BRANCH  24  26
ATOM     26  O   UNL     1       4.997   1.399  -0.141  0.00  0.00    -0.462 OA
BRANCH  26  28
ATOM     27  C   UNL     1       5.599  -0.733  -1.077  0.00  0.00    +0.048 C 
ATOM     28  C   UNL     1       4.662   0.455  -1.167  0.00  0.00    +0.229 C 
ENDBRANCH  26  28
ENDBRANCH  24  26
ENDBRANCH  17  24
ENDBRANCH  16  17
ENDBRANCH   1  16
TORSDOF 8
