REMARK  Name = 
REMARK  11 active torsions:
REMARK  status: ('A' for Active; 'I' for Inactive)
REMARK    1  A    between atoms: C_1  and  C_2
REMARK    2  A    between atoms: C_2  and  O_3
REMARK    3  A    between atoms: O_3  and  C_4
REMARK    4  A    between atoms: C_4  and  C_6
REMARK    5  A    between atoms: C_6  and  C_7
REMARK    6  A    between atoms: C_6  and  N_10
REMARK    7  A    between atoms: C_6  and  O_11
REMARK    8  A    between atoms: C_7  and  C_8
REMARK    9  A    between atoms: C_7  and  C_9
REMARK   10  A    between atoms: O_11  and  C_12
REMARK   11  A    between atoms: C_12  and  N_13
REMARK                            x       y       z     vdW  Elec       q    Type
REMARK                         _______ _______ _______ _____ _____    ______ ____
ROOT
ATOM      1  C   UNL     1       7.002   0.769  -2.401  0.00  0.00    +0.290 C 
ENDROOT
BRANCH   1   2
ATOM      2  N   UNL     1       8.431   1.061  -2.305  0.00  0.00    -0.291 N 
ATOM      3  C   UNL     1       9.104   1.621  -1.288  0.00  0.00    +0.171 A 
ATOM      4  N   UNL     1       8.617   2.062  -0.104  0.00  0.00    -0.196 NA
ATOM      5  C   UNL     1       9.498   2.601   0.798  0.00  0.00    +0.195 A 
ATOM      6  N   UNL     1       9.022   3.073   2.042  0.00  0.00    -0.329 N 
ATOM      7  H   UNL     1       9.669   3.483   2.731  0.00  0.00    +0.145 HD
ATOM      8  H   UNL     1       8.019   3.013   2.272  0.00  0.00    +0.145 HD
ATOM      9  N   UNL     1      10.838   2.680   0.498  0.00  0.00    -0.293 N 
ATOM     10  H   UNL     1      11.503   3.091   1.195  0.00  0.00    +0.172 HD
ATOM     11  C   UNL     1      11.326   2.226  -0.709  0.00  0.00    +0.280 A 
ATOM     12  O   UNL     1      12.514   2.294  -0.974  0.00  0.00    -0.265 OA
ATOM     13  C   UNL     1      10.419   1.689  -1.609  0.00  0.00    +0.172 A 
ATOM     14  N   UNL     1      10.625   1.178  -2.836  0.00  0.00    -0.229 NA
ATOM     15  C   UNL     1       9.381   0.801  -3.238  0.00  0.00    +0.203 A 
ENDBRANCH   1   2
BRANCH   1  16
ATOM     16  O   UNL     1       6.260   1.978  -2.302  0.00  0.00    -0.328 OA
BRANCH  16  17
ATOM     17  C   UNL     1       4.836   1.809  -2.344  0.00  0.00    +0.220 C 
BRANCH  17  18
ATOM     18  N   UNL     1       4.249   3.122  -2.038  0.00  0.00    -0.294 NA
ATOM     19  H   UNL     1       4.573   3.857  -2.705  0.00  0.00    +0.121 HD
ATOM     20  H   UNL     1       3.205   3.089  -2.019  0.00  0.00    +0.121 HD
ENDBRANCH  17  18
BRANCH  17  21
ATOM     21  C   UNL     1       4.363   1.316  -3.775  0.00  0.00    +0.041 C 
ATOM     22  C   UNL     1       4.947   2.179  -4.909  0.00  0.00    +0.012 C 
ATOM     23  C   UNL     1       2.830   1.248  -3.961  0.00  0.00    +0.012 C 
ENDBRANCH  17  21
BRANCH  17  24
ATOM     24  C   UNL     1       4.395   0.865  -1.227  0.00  0.00    +0.355 C 
ATOM     25  O   UNL     1       4.673   1.149  -0.069  0.00  0.00    -0.246 OA
BRANCH  24  26
ATOM     26  O   UNL     1       3.735  -0.288  -1.515  0.00  0.00    -0.462 OA
BRANCH  26  28
ATOM     27  C   UNL     1       1.811  -1.367  -0.632  0.00  0.00    +0.048 C 
ATOM     28  C   UNL     1       3.328  -1.243  -0.602  0.00  0.00    +0.229 C 
ENDBRANCH  26  28
ENDBRANCH  24  26
ENDBRANCH  17  24
ENDBRANCH  16  17
ENDBRANCH   1  16
TORSDOF 8
REMARK  Name = 
REMARK  11 active torsions:
REMARK  status: ('A' for Active; 'I' for Inactive)
REMARK    1  A    between atoms: C_1  and  C_2
REMARK    2  A    between atoms: C_2  and  O_3
REMARK    3  A    between atoms: O_3  and  C_4
REMARK    4  A    between atoms: C_4  and  C_6
REMARK    5  A    between atoms: C_6  and  C_7
REMARK    6  A    between atoms: C_6  and  N_10
REMARK    7  A    between atoms: C_6  and  O_11
REMARK    8  A    between atoms: C_7  and  C_8
REMARK    9  A    between atoms: C_7  and  C_9
REMARK   10  A    between atoms: O_11  and  C_12
REMARK   11  A    between atoms: C_12  and  N_13
REMARK                            x       y       z     vdW  Elec       q    Type
REMARK                         _______ _______ _______ _____ _____    ______ ____
ROOT
ATOM      1 CL   UNL     1       1.590   2.669   0.580  0.00  0.00    -0.145 Cl
ATOM      2  H   UNL     1       0.332   2.201   0.878  0.00  0.00    +0.145 HD
ENDROOT
TORSDOF 0
