REMARK  Name = 
REMARK  11 active torsions:
REMARK  status: ('A' for Active; 'I' for Inactive)
REMARK    1  A    between atoms: C_1  and  C_2
REMARK    2  A    between atoms: C_2  and  O_3
REMARK    3  A    between atoms: O_3  and  C_4
REMARK    4  A    between atoms: C_4  and  C_6
REMARK    5  A    between atoms: C_6  and  C_7
REMARK    6  A    between atoms: C_6  and  N_10
REMARK    7  A    between atoms: C_6  and  O_11
REMARK    8  A    between atoms: C_7  and  C_8
REMARK    9  A    between atoms: C_7  and  C_9
REMARK   10  A    between atoms: O_11  and  C_12
REMARK   11  A    between atoms: C_12  and  N_13
REMARK                            x       y       z     vdW  Elec       q    Type
REMARK                         _______ _______ _______ _____ _____    ______ ____
ROOT
ATOM      1  C   UNL     1       6.980  -1.168  -1.998  0.00  0.00    +0.290 C 
ENDROOT
BRANCH   1   2
ATOM      2  N   UNL     1       8.428  -1.030  -2.124  0.00  0.00    -0.291 N 
ATOM      3  C   UNL     1       9.194   0.060  -1.947  0.00  0.00    +0.171 A 
ATOM      4  N   UNL     1       8.803   1.317  -1.627  0.00  0.00    -0.196 NA
ATOM      5  C   UNL     1       9.769   2.278  -1.481  0.00  0.00    +0.195 A 
ATOM      6  N   UNL     1       9.393   3.602  -1.153  0.00  0.00    -0.329 N 
ATOM      7  H   UNL     1      10.108   4.338  -1.040  0.00  0.00    +0.145 HD
ATOM      8  H   UNL     1       8.402   3.846  -1.027  0.00  0.00    +0.145 HD
ATOM      9  N   UNL     1      11.098   1.964  -1.649  0.00  0.00    -0.293 N 
ATOM     10  H   UNL     1      11.829   2.702  -1.534  0.00  0.00    +0.172 HD
ATOM     11  C   UNL     1      11.487   0.676  -1.973  0.00  0.00    +0.280 A 
ATOM     12  O   UNL     1      12.664   0.396  -2.116  0.00  0.00    -0.265 OA
ATOM     13  C   UNL     1      10.494  -0.276  -2.125  0.00  0.00    +0.172 A 
ATOM     14  N   UNL     1      10.601  -1.582  -2.425  0.00  0.00    -0.229 NA
ATOM     15  C   UNL     1       9.315  -2.017  -2.417  0.00  0.00    +0.203 A 
ENDBRANCH   1   2
BRANCH   1  16
ATOM     16  O   UNL     1       6.322  -0.338  -2.944  0.00  0.00    -0.328 OA
BRANCH  16  17
ATOM     17  C   UNL     1       4.888  -0.411  -2.899  0.00  0.00    +0.220 C 
BRANCH  17  18
ATOM     18  N   UNL     1       4.380   0.657  -3.769  0.00  0.00    -0.294 NA
ATOM     19  H   UNL     1       4.713   0.540  -4.753  0.00  0.00    +0.121 HD
ATOM     20  H   UNL     1       3.335   0.700  -3.760  0.00  0.00    +0.121 HD
ENDBRANCH  17  18
BRANCH  17  21
ATOM     21  C   UNL     1       4.370  -1.826  -3.405  0.00  0.00    +0.041 C 
ATOM     22  C   UNL     1       5.006  -2.256  -4.739  0.00  0.00    +0.012 C 
ATOM     23  C   UNL     1       2.836  -1.935  -3.550  0.00  0.00    +0.012 C 
ENDBRANCH  17  21
BRANCH  17  24
ATOM     24  C   UNL     1       4.391  -0.104  -1.483  0.00  0.00    +0.355 C 
ATOM     25  O   UNL     1       3.701  -0.916  -0.883  0.00  0.00    -0.246 OA
BRANCH  24  26
ATOM     26  O   UNL     1       4.766   1.047  -0.864  0.00  0.00    -0.462 OA
BRANCH  26  28
ATOM     27  C   UNL     1       4.949   0.426   1.476  0.00  0.00    +0.048 C 
ATOM     28  C   UNL     1       4.401   1.402   0.426  0.00  0.00    +0.229 C 
ENDBRANCH  26  28
ENDBRANCH  24  26
ENDBRANCH  17  24
ENDBRANCH  16  17
ENDBRANCH   1  16
TORSDOF 8
REMARK  Name = 
REMARK  11 active torsions:
REMARK  status: ('A' for Active; 'I' for Inactive)
REMARK    1  A    between atoms: C_1  and  C_2
REMARK    2  A    between atoms: C_2  and  O_3
REMARK    3  A    between atoms: O_3  and  C_4
REMARK    4  A    between atoms: C_4  and  C_6
REMARK    5  A    between atoms: C_6  and  C_7
REMARK    6  A    between atoms: C_6  and  N_10
REMARK    7  A    between atoms: C_6  and  O_11
REMARK    8  A    between atoms: C_7  and  C_8
REMARK    9  A    between atoms: C_7  and  C_9
REMARK   10  A    between atoms: O_11  and  C_12
REMARK   11  A    between atoms: C_12  and  N_13
REMARK                            x       y       z     vdW  Elec       q    Type
REMARK                         _______ _______ _______ _____ _____    ______ ____
ROOT
ATOM      1 CL   UNL     1       1.372  -3.112  -0.502  0.00  0.00    -0.145 Cl
ATOM      2  H   UNL     1       1.842  -2.217   0.431  0.00  0.00    +0.145 HD
ENDROOT
TORSDOF 0
