REMARK  Name = 
REMARK  35 active torsions:
REMARK  status: ('A' for Active; 'I' for Inactive)
REMARK    1  A    between atoms: C_1  and  C_2
REMARK    2  A    between atoms: C_2  and  C_4
REMARK    3  A    between atoms: C_2  and  O_8
REMARK    4  A    between atoms: C_4  and  N_5
REMARK    5  A    between atoms: N_5  and  C_6
REMARK    6  A    between atoms: N_5  and  C_7
REMARK    7  A    between atoms: C_9  and  C_10
REMARK    8  A    between atoms: C_10  and  C_12
REMARK    9  A    between atoms: C_10  and  O_16
REMARK   10  A    between atoms: C_12  and  N_13
REMARK   11  A    between atoms: N_13  and  C_14
REMARK   12  A    between atoms: N_13  and  C_15
REMARK   13  A    between atoms: C_17  and  C_18
REMARK   14  A    between atoms: C_18  and  C_20
REMARK   15  A    between atoms: C_18  and  O_24
REMARK   16  A    between atoms: C_20  and  N_21
REMARK   17  A    between atoms: N_21  and  C_22
REMARK   18  A    between atoms: N_21  and  C_23
REMARK   19  A    between atoms: C_25  and  C_26
REMARK   20  A    between atoms: N_28  and  C_29
REMARK   21  A    between atoms: C_32  and  C_35
REMARK   22  A    between atoms: C_35  and  O_37
REMARK   23  A    between atoms: C_38  and  C_39
REMARK   24  A    between atoms: N_41  and  C_42
REMARK   25  A    between atoms: C_45  and  C_48
REMARK   26  A    between atoms: C_48  and  O_50
REMARK   27  A    between atoms: C_51  and  C_52
REMARK   28  A    between atoms: N_54  and  C_55
REMARK   29  A    between atoms: C_58  and  C_61
REMARK   30  A    between atoms: C_61  and  O_63
REMARK   31  A    between atoms: N9_73  and  C1*_74
REMARK   32  A    between atoms: C2*_76  and  O2*_86
REMARK   33  A    between atoms: C3*_78  and  O3*_85
REMARK   34  A    between atoms: C4*_80  and  C5*_83
REMARK   35  A    between atoms: C5*_83  and  O5*_84
REMARK                            x       y       z     vdW  Elec       q    Type
REMARK                         _______ _______ _______ _____ _____    ______ ____
ROOT
ATOM      1  C   UNL     1       0.815   0.582   0.038  0.00  0.00    +0.039 C 
ATOM      2  C   UNL     1       0.887   1.126   1.392  0.00  0.00    +0.125 C 
ENDROOT
BRANCH   2   3
ATOM      3  O   UNL     1       1.777   0.130   1.790  0.00  0.00    -0.391 OA
ATOM      4  H   UNL     1       1.953   0.340   2.687  0.00  0.00    +0.210 HD
ENDBRANCH   2   3
BRANCH   2   5
ATOM      5  C   UNL     1       1.618   2.329   2.033  0.00  0.00    +0.114 C 
BRANCH   5   6
ATOM      6  N   UNL     1       1.582   3.637   1.490  0.00  0.00    -0.306 NA
ATOM      7  C   UNL     1       2.354   4.600   2.255  0.00  0.00    +0.104 C 
ATOM      8  C   UNL     1       0.335   3.964   0.857  0.00  0.00    +0.104 C 
ENDBRANCH   5   6
ENDBRANCH   2   5
TORSDOF 3
REMARK  Name = 
REMARK  35 active torsions:
REMARK  status: ('A' for Active; 'I' for Inactive)
REMARK    1  A    between atoms: C_1  and  C_2
REMARK    2  A    between atoms: C_2  and  C_4
REMARK    3  A    between atoms: C_2  and  O_8
REMARK    4  A    between atoms: C_4  and  N_5
REMARK    5  A    between atoms: N_5  and  C_6
REMARK    6  A    between atoms: N_5  and  C_7
REMARK    7  A    between atoms: C_9  and  C_10
REMARK    8  A    between atoms: C_10  and  C_12
REMARK    9  A    between atoms: C_10  and  O_16
REMARK   10  A    between atoms: C_12  and  N_13
REMARK   11  A    between atoms: N_13  and  C_14
REMARK   12  A    between atoms: N_13  and  C_15
REMARK   13  A    between atoms: C_17  and  C_18
REMARK   14  A    between atoms: C_18  and  C_20
REMARK   15  A    between atoms: C_18  and  O_24
REMARK   16  A    between atoms: C_20  and  N_21
REMARK   17  A    between atoms: N_21  and  C_22
REMARK   18  A    between atoms: N_21  and  C_23
REMARK   19  A    between atoms: C_25  and  C_26
REMARK   20  A    between atoms: N_28  and  C_29
REMARK   21  A    between atoms: C_32  and  C_35
REMARK   22  A    between atoms: C_35  and  O_37
REMARK   23  A    between atoms: C_38  and  C_39
REMARK   24  A    between atoms: N_41  and  C_42
REMARK   25  A    between atoms: C_45  and  C_48
REMARK   26  A    between atoms: C_48  and  O_50
REMARK   27  A    between atoms: C_51  and  C_52
REMARK   28  A    between atoms: N_54  and  C_55
REMARK   29  A    between atoms: C_58  and  C_61
REMARK   30  A    between atoms: C_61  and  O_63
REMARK   31  A    between atoms: N9_73  and  C1*_74
REMARK   32  A    between atoms: C2*_76  and  O2*_86
REMARK   33  A    between atoms: C3*_78  and  O3*_85
REMARK   34  A    between atoms: C4*_80  and  C5*_83
REMARK   35  A    between atoms: C5*_83  and  O5*_84
REMARK                            x       y       z     vdW  Elec       q    Type
REMARK                         _______ _______ _______ _____ _____    ______ ____
ROOT
ATOM      1  C   UNL     1       2.284   0.405  -2.205  0.00  0.00    +0.039 C 
ATOM      2  C   UNL     1       2.869   1.653  -0.914  0.00  0.00    +0.125 C 
ENDROOT
BRANCH   2   3
ATOM      3  O   UNL     1       3.654   1.041   0.154  0.00  0.00    -0.391 OA
ATOM      4  H   UNL     1       3.079   0.521   0.740  0.00  0.00    +0.210 HD
ENDBRANCH   2   3
BRANCH   2   5
ATOM      5  C   UNL     1       3.045   3.459  -0.916  0.00  0.00    +0.114 C 
BRANCH   5   6
ATOM      6  N   UNL     1       3.584   4.355  -2.002  0.00  0.00    -0.306 NA
ATOM      7  C   UNL     1       4.361   5.504  -1.595  0.00  0.00    +0.104 C 
ATOM      8  C   UNL     1       2.678   4.770  -3.087  0.00  0.00    +0.104 C 
ENDBRANCH   5   6
ENDBRANCH   2   5
TORSDOF 3
REMARK  Name = 
REMARK  35 active torsions:
REMARK  status: ('A' for Active; 'I' for Inactive)
REMARK    1  A    between atoms: C_1  and  C_2
REMARK    2  A    between atoms: C_2  and  C_4
REMARK    3  A    between atoms: C_2  and  O_8
REMARK    4  A    between atoms: C_4  and  N_5
REMARK    5  A    between atoms: N_5  and  C_6
REMARK    6  A    between atoms: N_5  and  C_7
REMARK    7  A    between atoms: C_9  and  C_10
REMARK    8  A    between atoms: C_10  and  C_12
REMARK    9  A    between atoms: C_10  and  O_16
REMARK   10  A    between atoms: C_12  and  N_13
REMARK   11  A    between atoms: N_13  and  C_14
REMARK   12  A    between atoms: N_13  and  C_15
REMARK   13  A    between atoms: C_17  and  C_18
REMARK   14  A    between atoms: C_18  and  C_20
REMARK   15  A    between atoms: C_18  and  O_24
REMARK   16  A    between atoms: C_20  and  N_21
REMARK   17  A    between atoms: N_21  and  C_22
REMARK   18  A    between atoms: N_21  and  C_23
REMARK   19  A    between atoms: C_25  and  C_26
REMARK   20  A    between atoms: N_28  and  C_29
REMARK   21  A    between atoms: C_32  and  C_35
REMARK   22  A    between atoms: C_35  and  O_37
REMARK   23  A    between atoms: C_38  and  C_39
REMARK   24  A    between atoms: N_41  and  C_42
REMARK   25  A    between atoms: C_45  and  C_48
REMARK   26  A    between atoms: C_48  and  O_50
REMARK   27  A    between atoms: C_51  and  C_52
REMARK   28  A    between atoms: N_54  and  C_55
REMARK   29  A    between atoms: C_58  and  C_61
REMARK   30  A    between atoms: C_61  and  O_63
REMARK   31  A    between atoms: N9_73  and  C1*_74
REMARK   32  A    between atoms: C2*_76  and  O2*_86
REMARK   33  A    between atoms: C3*_78  and  O3*_85
REMARK   34  A    between atoms: C4*_80  and  C5*_83
REMARK   35  A    between atoms: C5*_83  and  O5*_84
REMARK                            x       y       z     vdW  Elec       q    Type
REMARK                         _______ _______ _______ _____ _____    ______ ____
ROOT
ATOM      1  C   UNL     1       4.379  -0.307   2.770  0.00  0.00    +0.039 C 
ATOM      2  C   UNL     1       4.793  -1.384   1.595  0.00  0.00    +0.125 C 
ENDROOT
BRANCH   2   3
ATOM      3  O   UNL     1       5.888  -0.664   1.149  0.00  0.00    -0.391 OA
ATOM      4  H   UNL     1       5.461   0.212   0.953  0.00  0.00    +0.210 HD
ENDBRANCH   2   3
BRANCH   2   5
ATOM      5  C   UNL     1       4.859  -3.080   0.921  0.00  0.00    +0.114 C 
BRANCH   5   6
ATOM      6  N   UNL     1       5.633  -4.428   0.765  0.00  0.00    -0.306 NA
ATOM      7  C   UNL     1       5.675  -4.854  -0.683  0.00  0.00    +0.104 C 
ATOM      8  C   UNL     1       5.154  -5.719   1.364  0.00  0.00    +0.104 C 
ENDBRANCH   5   6
ENDBRANCH   2   5
TORSDOF 3
REMARK  Name = 
REMARK  35 active torsions:
REMARK  status: ('A' for Active; 'I' for Inactive)
REMARK    1  A    between atoms: C_1  and  C_2
REMARK    2  A    between atoms: C_2  and  C_4
REMARK    3  A    between atoms: C_2  and  O_8
REMARK    4  A    between atoms: C_4  and  N_5
REMARK    5  A    between atoms: N_5  and  C_6
REMARK    6  A    between atoms: N_5  and  C_7
REMARK    7  A    between atoms: C_9  and  C_10
REMARK    8  A    between atoms: C_10  and  C_12
REMARK    9  A    between atoms: C_10  and  O_16
REMARK   10  A    between atoms: C_12  and  N_13
REMARK   11  A    between atoms: N_13  and  C_14
REMARK   12  A    between atoms: N_13  and  C_15
REMARK   13  A    between atoms: C_17  and  C_18
REMARK   14  A    between atoms: C_18  and  C_20
REMARK   15  A    between atoms: C_18  and  O_24
REMARK   16  A    between atoms: C_20  and  N_21
REMARK   17  A    between atoms: N_21  and  C_22
REMARK   18  A    between atoms: N_21  and  C_23
REMARK   19  A    between atoms: C_25  and  C_26
REMARK   20  A    between atoms: N_28  and  C_29
REMARK   21  A    between atoms: C_32  and  C_35
REMARK   22  A    between atoms: C_35  and  O_37
REMARK   23  A    between atoms: C_38  and  C_39
REMARK   24  A    between atoms: N_41  and  C_42
REMARK   25  A    between atoms: C_45  and  C_48
REMARK   26  A    between atoms: C_48  and  O_50
REMARK   27  A    between atoms: C_51  and  C_52
REMARK   28  A    between atoms: N_54  and  C_55
REMARK   29  A    between atoms: C_58  and  C_61
REMARK   30  A    between atoms: C_61  and  O_63
REMARK   31  A    between atoms: N9_73  and  C1*_74
REMARK   32  A    between atoms: C2*_76  and  O2*_86
REMARK   33  A    between atoms: C3*_78  and  O3*_85
REMARK   34  A    between atoms: C4*_80  and  C5*_83
REMARK   35  A    between atoms: C5*_83  and  O5*_84
REMARK                            x       y       z     vdW  Elec       q    Type
REMARK                         _______ _______ _______ _____ _____    ______ ____
ROOT
ATOM      1  C   UNL     1       4.773  -2.556   4.156  0.00  0.00    +0.033 A 
ATOM      2  C   UNL     1       5.513  -1.506   4.716  0.00  0.00    +0.024 A 
ATOM      3  C   UNL     1       6.923  -1.426   4.563  0.00  0.00    +0.017 A 
ATOM      4  C   UNL     1       7.649  -2.594   4.422  0.00  0.00    +0.059 A 
ATOM      5  C   UNL     1       7.001  -3.670   3.871  0.00  0.00    +0.017 A 
ATOM      6  C   UNL     1       5.614  -3.577   3.707  0.00  0.00    +0.024 A 
ENDROOT
BRANCH   1   9
ATOM      7  C   UNL     1       0.826  -1.579   3.263  0.00  0.00    +0.109 C 
ATOM      8  C   UNL     1       2.297  -2.062   3.081  0.00  0.00    +0.214 C 
ATOM      9  N   UNL     1       3.222  -2.700   3.868  0.00  0.00    -0.286 N 
ATOM     10  H   UNL     1       3.420  -3.404   3.092  0.00  0.00    +0.155 HD
ATOM     11  O   UNL     1       2.571  -2.177   1.790  0.00  0.00    -0.276 OA
ENDBRANCH   1   9
BRANCH   4  12
ATOM     12  C   UNL     1       8.738  -2.909   5.386  0.00  0.00    +0.337 C 
ATOM     13  O   UNL     1       9.080  -4.056   5.628  0.00  0.00    -0.245 OA
BRANCH  12  14
ATOM     14  O   UNL     1       9.142  -1.863   6.139  0.00  0.00    -0.477 OA
ATOM     15  H   UNL     1       8.828  -0.990   5.849  0.00  0.00    +0.295 HD
ENDBRANCH  12  14
ENDBRANCH   4  12
TORSDOF 3
REMARK  Name = 
REMARK  35 active torsions:
REMARK  status: ('A' for Active; 'I' for Inactive)
REMARK    1  A    between atoms: C_1  and  C_2
REMARK    2  A    between atoms: C_2  and  C_4
REMARK    3  A    between atoms: C_2  and  O_8
REMARK    4  A    between atoms: C_4  and  N_5
REMARK    5  A    between atoms: N_5  and  C_6
REMARK    6  A    between atoms: N_5  and  C_7
REMARK    7  A    between atoms: C_9  and  C_10
REMARK    8  A    between atoms: C_10  and  C_12
REMARK    9  A    between atoms: C_10  and  O_16
REMARK   10  A    between atoms: C_12  and  N_13
REMARK   11  A    between atoms: N_13  and  C_14
REMARK   12  A    between atoms: N_13  and  C_15
REMARK   13  A    between atoms: C_17  and  C_18
REMARK   14  A    between atoms: C_18  and  C_20
REMARK   15  A    between atoms: C_18  and  O_24
REMARK   16  A    between atoms: C_20  and  N_21
REMARK   17  A    between atoms: N_21  and  C_22
REMARK   18  A    between atoms: N_21  and  C_23
REMARK   19  A    between atoms: C_25  and  C_26
REMARK   20  A    between atoms: N_28  and  C_29
REMARK   21  A    between atoms: C_32  and  C_35
REMARK   22  A    between atoms: C_35  and  O_37
REMARK   23  A    between atoms: C_38  and  C_39
REMARK   24  A    between atoms: N_41  and  C_42
REMARK   25  A    between atoms: C_45  and  C_48
REMARK   26  A    between atoms: C_48  and  O_50
REMARK   27  A    between atoms: C_51  and  C_52
REMARK   28  A    between atoms: N_54  and  C_55
REMARK   29  A    between atoms: C_58  and  C_61
REMARK   30  A    between atoms: C_61  and  O_63
REMARK   31  A    between atoms: N9_73  and  C1*_74
REMARK   32  A    between atoms: C2*_76  and  O2*_86
REMARK   33  A    between atoms: C3*_78  and  O3*_85
REMARK   34  A    between atoms: C4*_80  and  C5*_83
REMARK   35  A    between atoms: C5*_83  and  O5*_84
REMARK                            x       y       z     vdW  Elec       q    Type
REMARK                         _______ _______ _______ _____ _____    ______ ____
ROOT
ATOM      1  C   UNL     1       5.139   1.886  -1.403  0.00  0.00    +0.033 A 
ATOM      2  C   UNL     1       5.801   2.684  -0.389  0.00  0.00    +0.024 A 
ATOM      3  C   UNL     1       7.011   2.265   0.522  0.00  0.00    +0.017 A 
ATOM      4  C   UNL     1       7.715   1.057   0.394  0.00  0.00    +0.059 A 
ATOM      5  C   UNL     1       7.166   0.351  -0.606  0.00  0.00    +0.017 A 
ATOM      6  C   UNL     1       6.009   0.771  -1.320  0.00  0.00    +0.024 A 
ENDROOT
BRANCH   1   9
ATOM      7  C   UNL     1       0.422   1.934  -2.855  0.00  0.00    +0.109 C 
ATOM      8  C   UNL     1       2.222   2.308  -3.314  0.00  0.00    +0.214 C 
ATOM      9  N   UNL     1       3.855   2.129  -2.740  0.00  0.00    -0.286 N 
ATOM     10  H   UNL     1       4.034   3.126  -2.764  0.00  0.00    +0.155 HD
ATOM     11  O   UNL     1       2.144   2.332  -4.572  0.00  0.00    -0.276 OA
ENDBRANCH   1   9
BRANCH   4  12
ATOM     12  C   UNL     1       8.729   0.342   1.243  0.00  0.00    +0.337 C 
ATOM     13  O   UNL     1       9.172   0.832   2.289  0.00  0.00    -0.245 OA
BRANCH  12  14
ATOM     14  O   UNL     1       9.139  -0.881   0.783  0.00  0.00    -0.477 OA
ATOM     15  H   UNL     1       8.733  -1.377   0.106  0.00  0.00    +0.295 HD
ENDBRANCH  12  14
ENDBRANCH   4  12
TORSDOF 3
REMARK  Name = 
REMARK  35 active torsions:
REMARK  status: ('A' for Active; 'I' for Inactive)
REMARK    1  A    between atoms: C_1  and  C_2
REMARK    2  A    between atoms: C_2  and  C_4
REMARK    3  A    between atoms: C_2  and  O_8
REMARK    4  A    between atoms: C_4  and  N_5
REMARK    5  A    between atoms: N_5  and  C_6
REMARK    6  A    between atoms: N_5  and  C_7
REMARK    7  A    between atoms: C_9  and  C_10
REMARK    8  A    between atoms: C_10  and  C_12
REMARK    9  A    between atoms: C_10  and  O_16
REMARK   10  A    between atoms: C_12  and  N_13
REMARK   11  A    between atoms: N_13  and  C_14
REMARK   12  A    between atoms: N_13  and  C_15
REMARK   13  A    between atoms: C_17  and  C_18
REMARK   14  A    between atoms: C_18  and  C_20
REMARK   15  A    between atoms: C_18  and  O_24
REMARK   16  A    between atoms: C_20  and  N_21
REMARK   17  A    between atoms: N_21  and  C_22
REMARK   18  A    between atoms: N_21  and  C_23
REMARK   19  A    between atoms: C_25  and  C_26
REMARK   20  A    between atoms: N_28  and  C_29
REMARK   21  A    between atoms: C_32  and  C_35
REMARK   22  A    between atoms: C_35  and  O_37
REMARK   23  A    between atoms: C_38  and  C_39
REMARK   24  A    between atoms: N_41  and  C_42
REMARK   25  A    between atoms: C_45  and  C_48
REMARK   26  A    between atoms: C_48  and  O_50
REMARK   27  A    between atoms: C_51  and  C_52
REMARK   28  A    between atoms: N_54  and  C_55
REMARK   29  A    between atoms: C_58  and  C_61
REMARK   30  A    between atoms: C_61  and  O_63
REMARK   31  A    between atoms: N9_73  and  C1*_74
REMARK   32  A    between atoms: C2*_76  and  O2*_86
REMARK   33  A    between atoms: C3*_78  and  O3*_85
REMARK   34  A    between atoms: C4*_80  and  C5*_83
REMARK   35  A    between atoms: C5*_83  and  O5*_84
REMARK                            x       y       z     vdW  Elec       q    Type
REMARK                         _______ _______ _______ _____ _____    ______ ____
ROOT
ATOM      1  C   UNL     1       5.941   0.561  -3.998  0.00  0.00    +0.033 A 
ATOM      2  C   UNL     1       6.354   1.978  -3.754  0.00  0.00    +0.024 A 
ATOM      3  C   UNL     1       7.396   2.668  -4.330  0.00  0.00    +0.017 A 
ATOM      4  C   UNL     1       8.040   1.961  -5.279  0.00  0.00    +0.059 A 
ATOM      5  C   UNL     1       7.710   0.568  -5.564  0.00  0.00    +0.017 A 
ATOM      6  C   UNL     1       6.706  -0.108  -4.879  0.00  0.00    +0.024 A 
ENDROOT
BRANCH   1   9
ATOM      7  C   UNL     1       3.476  -1.804  -1.475  0.00  0.00    +0.109 C 
ATOM      8  C   UNL     1       4.766  -1.466  -2.507  0.00  0.00    +0.214 C 
ATOM      9  N   UNL     1       4.765  -0.205  -3.390  0.00  0.00    -0.286 N 
ATOM     10  H   UNL     1       4.225   0.565  -3.004  0.00  0.00    +0.155 HD
ATOM     11  O   UNL     1       5.784  -2.159  -2.411  0.00  0.00    -0.276 OA
ENDBRANCH   1   9
BRANCH   4  12
ATOM     12  C   UNL     1       9.137   2.715  -5.933  0.00  0.00    +0.337 C 
ATOM     13  O   UNL     1       9.162   3.915  -6.054  0.00  0.00    -0.245 OA
BRANCH  12  14
ATOM     14  O   UNL     1      10.131   1.872  -6.256  0.00  0.00    -0.477 OA
ATOM     15  H   UNL     1      10.032   0.989  -5.859  0.00  0.00    +0.295 HD
ENDBRANCH  12  14
ENDBRANCH   4  12
TORSDOF 3
REMARK  Name = 
REMARK  35 active torsions:
REMARK  status: ('A' for Active; 'I' for Inactive)
REMARK    1  A    between atoms: C_1  and  C_2
REMARK    2  A    between atoms: C_2  and  C_4
REMARK    3  A    between atoms: C_2  and  O_8
REMARK    4  A    between atoms: C_4  and  N_5
REMARK    5  A    between atoms: N_5  and  C_6
REMARK    6  A    between atoms: N_5  and  C_7
REMARK    7  A    between atoms: C_9  and  C_10
REMARK    8  A    between atoms: C_10  and  C_12
REMARK    9  A    between atoms: C_10  and  O_16
REMARK   10  A    between atoms: C_12  and  N_13
REMARK   11  A    between atoms: N_13  and  C_14
REMARK   12  A    between atoms: N_13  and  C_15
REMARK   13  A    between atoms: C_17  and  C_18
REMARK   14  A    between atoms: C_18  and  C_20
REMARK   15  A    between atoms: C_18  and  O_24
REMARK   16  A    between atoms: C_20  and  N_21
REMARK   17  A    between atoms: N_21  and  C_22
REMARK   18  A    between atoms: N_21  and  C_23
REMARK   19  A    between atoms: C_25  and  C_26
REMARK   20  A    between atoms: N_28  and  C_29
REMARK   21  A    between atoms: C_32  and  C_35
REMARK   22  A    between atoms: C_35  and  O_37
REMARK   23  A    between atoms: C_38  and  C_39
REMARK   24  A    between atoms: N_41  and  C_42
REMARK   25  A    between atoms: C_45  and  C_48
REMARK   26  A    between atoms: C_48  and  O_50
REMARK   27  A    between atoms: C_51  and  C_52
REMARK   28  A    between atoms: N_54  and  C_55
REMARK   29  A    between atoms: C_58  and  C_61
REMARK   30  A    between atoms: C_61  and  O_63
REMARK   31  A    between atoms: N9_73  and  C1*_74
REMARK   32  A    between atoms: C2*_76  and  O2*_86
REMARK   33  A    between atoms: C3*_78  and  O3*_85
REMARK   34  A    between atoms: C4*_80  and  C5*_83
REMARK   35  A    between atoms: C5*_83  and  O5*_84
REMARK                            x       y       z     vdW  Elec       q    Type
REMARK                         _______ _______ _______ _____ _____    ______ ____
ROOT
ATOM      1  C1*   I A   1       0.248  -3.317   0.667  0.00  0.00    +0.253 C 
ATOM      2  O4*   I A   1       0.843  -4.083  -0.465  0.00  0.00    -0.346 OA
ATOM      3  C4*   I A   1       1.573  -5.249   0.037  0.00  0.00    +0.177 C 
ATOM      4  C3*   I A   1       1.656  -5.190   1.544  0.00  0.00    +0.178 C 
ATOM      5  C2*   I A   1       0.404  -4.393   1.895  0.00  0.00    +0.195 C 
ENDROOT
BRANCH   1  14
ATOM      6  C2    I A   1      -4.105  -1.122   0.074  0.00  0.00    +0.201 A 
ATOM      7  N1    I A   1      -3.749   0.256   0.128  0.00  0.00    -0.312 N 
ATOM      8  H1    I A   1      -4.399   0.992  -0.106  0.00  0.00    +0.170 HD
ATOM      9  C6    I A   1      -2.566   0.666   0.716  0.00  0.00    +0.279 A 
ATOM     10  O6    I A   1      -2.276   1.808   1.017  0.00  0.00    -0.265 OA
ATOM     11  C5    I A   1      -1.648  -0.556   0.492  0.00  0.00    +0.172 A 
ATOM     12  N7    I A   1      -1.306  -0.586  -0.800  0.00  0.00    -0.229 NA
ATOM     13  C8    I A   1      -0.861  -1.816  -1.005  0.00  0.00    +0.203 A 
ATOM     14  N9    I A   1      -1.005  -2.607   0.144  0.00  0.00    -0.285 N 
ATOM     15  C4    I A   1      -2.114  -1.894   0.790  0.00  0.00    +0.169 A 
ATOM     16  N3    I A   1      -3.454  -2.122   0.519  0.00  0.00    -0.218 NA
ENDBRANCH   1  14
BRANCH   4  17
ATOM     17  O3*   I A   1       2.800  -4.610   2.145  0.00  0.00    -0.386 OA
ATOM     18  H3*   I A   1       3.049  -5.145   2.926  0.00  0.00    +0.210 HD
ENDBRANCH   4  17
BRANCH   5  19
ATOM     19  O2*   I A   1       0.608  -4.155   3.293  0.00  0.00    -0.385 OA
ATOM     20  H2*   I A   1       1.585  -4.101   3.491  0.00  0.00    +0.210 HD
ENDBRANCH   5  19
BRANCH   3  21
ATOM     21  C5*   I A   1       0.693  -6.451  -0.319  0.00  0.00    +0.190 C 
BRANCH  21  22
ATOM     22  O5*   I A   1       0.878  -7.569   0.543  0.00  0.00    -0.392 OA
ATOM     23  H5*   I A   1       0.431  -7.387   1.391  0.00  0.00    +0.210 HD
ENDBRANCH  21  22
ENDBRANCH   3  21
TORSDOF 5
