REMARK  Name = 
REMARK  23 active torsions:
REMARK  status: ('A' for Active; 'I' for Inactive)
REMARK    1  A    between atoms: C_1  and  C_2
REMARK    2  A    between atoms: C_2  and  C_3
REMARK    3  A    between atoms: C_2  and  O_7
REMARK    4  A    between atoms: C_3  and  N_4
REMARK    5  A    between atoms: N_4  and  C_5
REMARK    6  A    between atoms: N_4  and  C_6
REMARK    7  A    between atoms: C_8  and  C_9
REMARK    8  A    between atoms: C_9  and  C_10
REMARK    9  A    between atoms: C_9  and  O_14
REMARK   10  A    between atoms: C_10  and  N_11
REMARK   11  A    between atoms: N_11  and  C_12
REMARK   12  A    between atoms: N_11  and  C_13
REMARK   13  A    between atoms: C_15  and  C_16
REMARK   14  A    between atoms: C_16  and  C_17
REMARK   15  A    between atoms: C_16  and  O_21
REMARK   16  A    between atoms: C_17  and  N_18
REMARK   17  A    between atoms: N_18  and  C_19
REMARK   18  A    between atoms: N_18  and  C_20
REMARK   19  A    between atoms: N9_31  and  C1*_32
REMARK   20  A    between atoms: C2*_34  and  O2*_44
REMARK   21  A    between atoms: C3*_36  and  O3*_43
REMARK   22  A    between atoms: C4*_38  and  C5*_41
REMARK   23  A    between atoms: C5*_41  and  O5*_42
REMARK                            x       y       z     vdW  Elec       q    Type
REMARK                         _______ _______ _______ _____ _____    ______ ____
ROOT
ATOM      1  C   UNL     1       1.721  -0.584  -3.132  0.00  0.00    +0.039 C 
ATOM      2  C   UNL     1       3.247  -0.560  -3.122  0.00  0.00    +0.125 C 
ENDROOT
BRANCH   2   3
ATOM      3  O   UNL     1       3.625   0.037  -4.360  0.00  0.00    -0.391 OA
ATOM      4  H   UNL     1       3.383   0.983  -4.263  0.00  0.00    +0.210 HD
ENDBRANCH   2   3
BRANCH   2   5
ATOM      5  C   UNL     1       3.954  -1.896  -2.713  0.00  0.00    +0.114 C 
BRANCH   5   6
ATOM      6  N   UNL     1       5.439  -1.804  -2.722  0.00  0.00    -0.306 NA
ATOM      7  C   UNL     1       5.899  -1.802  -4.104  0.00  0.00    +0.104 C 
ATOM      8  C   UNL     1       6.106  -2.841  -1.928  0.00  0.00    +0.104 C 
ENDBRANCH   5   6
ENDBRANCH   2   5
TORSDOF 3
REMARK  Name = 
REMARK  23 active torsions:
REMARK  status: ('A' for Active; 'I' for Inactive)
REMARK    1  A    between atoms: C_1  and  C_2
REMARK    2  A    between atoms: C_2  and  C_3
REMARK    3  A    between atoms: C_2  and  O_7
REMARK    4  A    between atoms: C_3  and  N_4
REMARK    5  A    between atoms: N_4  and  C_5
REMARK    6  A    between atoms: N_4  and  C_6
REMARK    7  A    between atoms: C_8  and  C_9
REMARK    8  A    between atoms: C_9  and  C_10
REMARK    9  A    between atoms: C_9  and  O_14
REMARK   10  A    between atoms: C_10  and  N_11
REMARK   11  A    between atoms: N_11  and  C_12
REMARK   12  A    between atoms: N_11  and  C_13
REMARK   13  A    between atoms: C_15  and  C_16
REMARK   14  A    between atoms: C_16  and  C_17
REMARK   15  A    between atoms: C_16  and  O_21
REMARK   16  A    between atoms: C_17  and  N_18
REMARK   17  A    between atoms: N_18  and  C_19
REMARK   18  A    between atoms: N_18  and  C_20
REMARK   19  A    between atoms: N9_31  and  C1*_32
REMARK   20  A    between atoms: C2*_34  and  O2*_44
REMARK   21  A    between atoms: C3*_36  and  O3*_43
REMARK   22  A    between atoms: C4*_38  and  C5*_41
REMARK   23  A    between atoms: C5*_41  and  O5*_42
REMARK                            x       y       z     vdW  Elec       q    Type
REMARK                         _______ _______ _______ _____ _____    ______ ____
ROOT
ATOM      1  C   UNL     1       0.242   0.615   3.040  0.00  0.00    +0.039 C 
ATOM      2  C   UNL     1       1.730   0.807   2.884  0.00  0.00    +0.125 C 
ENDROOT
BRANCH   2   3
ATOM      3  O   UNL     1       2.361   0.144   3.983  0.00  0.00    -0.391 OA
ATOM      4  H   UNL     1       2.471  -0.783   3.700  0.00  0.00    +0.210 HD
ENDBRANCH   2   3
BRANCH   2   5
ATOM      5  C   UNL     1       2.432   2.144   2.602  0.00  0.00    +0.114 C 
BRANCH   5   6
ATOM      6  N   UNL     1       1.998   3.479   2.858  0.00  0.00    -0.306 NA
ATOM      7  C   UNL     1       2.439   3.983   4.117  0.00  0.00    +0.104 C 
ATOM      8  C   UNL     1       0.959   4.093   2.084  0.00  0.00    +0.104 C 
ENDBRANCH   5   6
ENDBRANCH   2   5
TORSDOF 3
REMARK  Name = 
REMARK  23 active torsions:
REMARK  status: ('A' for Active; 'I' for Inactive)
REMARK    1  A    between atoms: C_1  and  C_2
REMARK    2  A    between atoms: C_2  and  C_3
REMARK    3  A    between atoms: C_2  and  O_7
REMARK    4  A    between atoms: C_3  and  N_4
REMARK    5  A    between atoms: N_4  and  C_5
REMARK    6  A    between atoms: N_4  and  C_6
REMARK    7  A    between atoms: C_8  and  C_9
REMARK    8  A    between atoms: C_9  and  C_10
REMARK    9  A    between atoms: C_9  and  O_14
REMARK   10  A    between atoms: C_10  and  N_11
REMARK   11  A    between atoms: N_11  and  C_12
REMARK   12  A    between atoms: N_11  and  C_13
REMARK   13  A    between atoms: C_15  and  C_16
REMARK   14  A    between atoms: C_16  and  C_17
REMARK   15  A    between atoms: C_16  and  O_21
REMARK   16  A    between atoms: C_17  and  N_18
REMARK   17  A    between atoms: N_18  and  C_19
REMARK   18  A    between atoms: N_18  and  C_20
REMARK   19  A    between atoms: N9_31  and  C1*_32
REMARK   20  A    between atoms: C2*_34  and  O2*_44
REMARK   21  A    between atoms: C3*_36  and  O3*_43
REMARK   22  A    between atoms: C4*_38  and  C5*_41
REMARK   23  A    between atoms: C5*_41  and  O5*_42
REMARK                            x       y       z     vdW  Elec       q    Type
REMARK                         _______ _______ _______ _____ _____    ______ ____
ROOT
ATOM      1  C   UNL     1       3.290   1.566  -0.636  0.00  0.00    +0.039 C 
ATOM      2  C   UNL     1       4.258   0.483   0.004  0.00  0.00    +0.125 C 
ENDROOT
BRANCH   2   3
ATOM      3  O   UNL     1       3.552  -0.763   0.013  0.00  0.00    -0.391 OA
ATOM      4  H   UNL     1       2.793  -0.655  -0.584  0.00  0.00    +0.210 HD
ENDBRANCH   2   3
BRANCH   2   5
ATOM      5  C   UNL     1       4.863   0.577   1.446  0.00  0.00    +0.114 C 
BRANCH   5   6
ATOM      6  N   UNL     1       5.755  -0.492   2.016  0.00  0.00    -0.306 NA
ATOM      7  C   UNL     1       5.787  -0.383   3.491  0.00  0.00    +0.104 C 
ATOM      8  C   UNL     1       7.132  -0.433   1.541  0.00  0.00    +0.104 C 
ENDBRANCH   5   6
ENDBRANCH   2   5
TORSDOF 3
REMARK  Name = 
REMARK  23 active torsions:
REMARK  status: ('A' for Active; 'I' for Inactive)
REMARK    1  A    between atoms: C_1  and  C_2
REMARK    2  A    between atoms: C_2  and  C_3
REMARK    3  A    between atoms: C_2  and  O_7
REMARK    4  A    between atoms: C_3  and  N_4
REMARK    5  A    between atoms: N_4  and  C_5
REMARK    6  A    between atoms: N_4  and  C_6
REMARK    7  A    between atoms: C_8  and  C_9
REMARK    8  A    between atoms: C_9  and  C_10
REMARK    9  A    between atoms: C_9  and  O_14
REMARK   10  A    between atoms: C_10  and  N_11
REMARK   11  A    between atoms: N_11  and  C_12
REMARK   12  A    between atoms: N_11  and  C_13
REMARK   13  A    between atoms: C_15  and  C_16
REMARK   14  A    between atoms: C_16  and  C_17
REMARK   15  A    between atoms: C_16  and  O_21
REMARK   16  A    between atoms: C_17  and  N_18
REMARK   17  A    between atoms: N_18  and  C_19
REMARK   18  A    between atoms: N_18  and  C_20
REMARK   19  A    between atoms: N9_31  and  C1*_32
REMARK   20  A    between atoms: C2*_34  and  O2*_44
REMARK   21  A    between atoms: C3*_36  and  O3*_43
REMARK   22  A    between atoms: C4*_38  and  C5*_41
REMARK   23  A    between atoms: C5*_41  and  O5*_42
REMARK                            x       y       z     vdW  Elec       q    Type
REMARK                         _______ _______ _______ _____ _____    ______ ____
ROOT
ATOM      1  C1*   I A   1       0.544  -3.535  -0.121  0.00  0.00    +0.253 C 
ATOM      2  O4*   I A   1       0.884  -3.842  -1.476  0.00  0.00    -0.346 OA
ATOM      3  C4*   I A   1       1.309  -5.222  -1.460  0.00  0.00    +0.177 C 
ATOM      4  C3*   I A   1       0.588  -5.891  -0.281  0.00  0.00    +0.178 C 
ATOM      5  C2*   I A   1      -0.135  -4.756   0.461  0.00  0.00    +0.195 C 
ENDROOT
BRANCH   1  14
ATOM      6  C2    I A   1      -3.359  -1.087  -0.299  0.00  0.00    +0.201 A 
ATOM      7  N1    I A   1      -3.127   0.285  -0.281  0.00  0.00    -0.312 N 
ATOM      8  H1    I A   1      -3.879   0.956  -0.270  0.00  0.00    +0.170 HD
ATOM      9  C6    I A   1      -1.848   0.830  -0.300  0.00  0.00    +0.279 A 
ATOM     10  O6    I A   1      -1.663   2.043  -0.276  0.00  0.00    -0.265 OA
ATOM     11  C5    I A   1      -0.841  -0.191  -0.228  0.00  0.00    +0.172 A 
ATOM     12  N7    I A   1       0.457  -0.017   0.103  0.00  0.00    -0.229 NA
ATOM     13  C8    I A   1       0.838  -1.225   0.427  0.00  0.00    +0.203 A 
ATOM     14  N9    I A   1      -0.008  -2.203  -0.021  0.00  0.00    -0.285 N 
ATOM     15  C4    I A   1      -1.192  -1.536  -0.244  0.00  0.00    +0.169 A 
ATOM     16  N3    I A   1      -2.468  -2.020  -0.338  0.00  0.00    -0.218 NA
ENDBRANCH   1  14
BRANCH   4  17
ATOM     17  O3*   I A   1       1.555  -6.543   0.551  0.00  0.00    -0.386 OA
ATOM     18  H3*   I A   1       1.199  -6.496   1.463  0.00  0.00    +0.210 HD
ENDBRANCH   4  17
BRANCH   5  19
ATOM     19  O2*   I A   1       0.061  -4.917   1.872  0.00  0.00    -0.385 OA
ATOM     20  H2*   I A   1      -0.355  -4.162   2.326  0.00  0.00    +0.210 HD
ENDBRANCH   5  19
BRANCH   3  21
ATOM     21  C5*   I A   1       0.971  -5.885  -2.794  0.00  0.00    +0.190 C 
BRANCH  21  22
ATOM     22  O5*   I A   1       1.697  -5.319  -3.883  0.00  0.00    -0.392 OA
ATOM     23  H5*   I A   1       2.541  -4.969  -3.550  0.00  0.00    +0.210 HD
ENDBRANCH  21  22
ENDBRANCH   3  21
TORSDOF 5
