REMARK  Name = 
REMARK  35 active torsions:
REMARK  status: ('A' for Active; 'I' for Inactive)
REMARK    1  A    between atoms: C_1  and  C_2
REMARK    2  A    between atoms: C_2  and  C_4
REMARK    3  A    between atoms: C_2  and  O_8
REMARK    4  A    between atoms: C_4  and  N_5
REMARK    5  A    between atoms: N_5  and  C_6
REMARK    6  A    between atoms: N_5  and  C_7
REMARK    7  A    between atoms: C_9  and  C_10
REMARK    8  A    between atoms: C_10  and  C_12
REMARK    9  A    between atoms: C_10  and  O_16
REMARK   10  A    between atoms: C_12  and  N_13
REMARK   11  A    between atoms: N_13  and  C_14
REMARK   12  A    between atoms: N_13  and  C_15
REMARK   13  A    between atoms: C_17  and  C_18
REMARK   14  A    between atoms: C_18  and  C_20
REMARK   15  A    between atoms: C_18  and  O_24
REMARK   16  A    between atoms: C_20  and  N_21
REMARK   17  A    between atoms: N_21  and  C_22
REMARK   18  A    between atoms: N_21  and  C_23
REMARK   19  A    between atoms: C_25  and  C_26
REMARK   20  A    between atoms: N_28  and  C_29
REMARK   21  A    between atoms: C_32  and  C_35
REMARK   22  A    between atoms: C_35  and  O_37
REMARK   23  A    between atoms: C_38  and  C_39
REMARK   24  A    between atoms: N_41  and  C_42
REMARK   25  A    between atoms: C_45  and  C_48
REMARK   26  A    between atoms: C_48  and  O_50
REMARK   27  A    between atoms: C_51  and  C_52
REMARK   28  A    between atoms: N_54  and  C_55
REMARK   29  A    between atoms: C_58  and  C_61
REMARK   30  A    between atoms: C_61  and  O_63
REMARK   31  A    between atoms: N9_73  and  C1*_74
REMARK   32  A    between atoms: C2*_76  and  O2*_86
REMARK   33  A    between atoms: C3*_78  and  O3*_85
REMARK   34  A    between atoms: C4*_80  and  C5*_83
REMARK   35  A    between atoms: C5*_83  and  O5*_84
REMARK                            x       y       z     vdW  Elec       q    Type
REMARK                         _______ _______ _______ _____ _____    ______ ____
ROOT
ATOM      1  C   UNL     1       0.728   1.527   1.756  0.00  0.00    +0.039 C 
ATOM      2  C   UNL     1       0.976   0.015   0.418  0.00  0.00    +0.125 C 
ENDROOT
BRANCH   2   3
ATOM      3  O   UNL     1       1.123   0.178  -1.434  0.00  0.00    -0.391 OA
ATOM      4  H   UNL     1       1.275   1.018  -2.012  0.00  0.00    +0.210 HD
ENDBRANCH   2   3
BRANCH   2   5
ATOM      5  C   UNL     1       1.582  -1.783   0.595  0.00  0.00    +0.114 C 
BRANCH   5   6
ATOM      6  N   UNL     1       2.672  -2.965  -0.258  0.00  0.00    -0.306 NA
ATOM      7  C   UNL     1       2.387  -4.383  -0.998  0.00  0.00    +0.104 C 
ATOM      8  C   UNL     1       3.956  -2.408  -0.510  0.00  0.00    +0.104 C 
ENDBRANCH   5   6
ENDBRANCH   2   5
TORSDOF 3
REMARK  Name = 
REMARK  35 active torsions:
REMARK  status: ('A' for Active; 'I' for Inactive)
REMARK    1  A    between atoms: C_1  and  C_2
REMARK    2  A    between atoms: C_2  and  C_4
REMARK    3  A    between atoms: C_2  and  O_8
REMARK    4  A    between atoms: C_4  and  N_5
REMARK    5  A    between atoms: N_5  and  C_6
REMARK    6  A    between atoms: N_5  and  C_7
REMARK    7  A    between atoms: C_9  and  C_10
REMARK    8  A    between atoms: C_10  and  C_12
REMARK    9  A    between atoms: C_10  and  O_16
REMARK   10  A    between atoms: C_12  and  N_13
REMARK   11  A    between atoms: N_13  and  C_14
REMARK   12  A    between atoms: N_13  and  C_15
REMARK   13  A    between atoms: C_17  and  C_18
REMARK   14  A    between atoms: C_18  and  C_20
REMARK   15  A    between atoms: C_18  and  O_24
REMARK   16  A    between atoms: C_20  and  N_21
REMARK   17  A    between atoms: N_21  and  C_22
REMARK   18  A    between atoms: N_21  and  C_23
REMARK   19  A    between atoms: C_25  and  C_26
REMARK   20  A    between atoms: N_28  and  C_29
REMARK   21  A    between atoms: C_32  and  C_35
REMARK   22  A    between atoms: C_35  and  O_37
REMARK   23  A    between atoms: C_38  and  C_39
REMARK   24  A    between atoms: N_41  and  C_42
REMARK   25  A    between atoms: C_45  and  C_48
REMARK   26  A    between atoms: C_48  and  O_50
REMARK   27  A    between atoms: C_51  and  C_52
REMARK   28  A    between atoms: N_54  and  C_55
REMARK   29  A    between atoms: C_58  and  C_61
REMARK   30  A    between atoms: C_61  and  O_63
REMARK   31  A    between atoms: N9_73  and  C1*_74
REMARK   32  A    between atoms: C2*_76  and  O2*_86
REMARK   33  A    between atoms: C3*_78  and  O3*_85
REMARK   34  A    between atoms: C4*_80  and  C5*_83
REMARK   35  A    between atoms: C5*_83  and  O5*_84
REMARK                            x       y       z     vdW  Elec       q    Type
REMARK                         _______ _______ _______ _____ _____    ______ ____
ROOT
ATOM      1  C   UNL     1       5.154   0.454  -2.545  0.00  0.00    +0.039 C 
ATOM      2  C   UNL     1       6.031   1.630  -1.099  0.00  0.00    +0.125 C 
ENDROOT
BRANCH   2   3
ATOM      3  O   UNL     1       5.624   0.829   0.385  0.00  0.00    -0.391 OA
ATOM      4  H   UNL     1       6.151   0.718   1.260  0.00  0.00    +0.210 HD
ENDBRANCH   2   3
BRANCH   2   5
ATOM      5  C   UNL     1       5.940   3.546  -0.688  0.00  0.00    +0.114 C 
BRANCH   5   6
ATOM      6  N   UNL     1       5.427   4.784  -1.405  0.00  0.00    -0.306 NA
ATOM      7  C   UNL     1       4.077   5.329  -0.777  0.00  0.00    +0.104 C 
ATOM      8  C   UNL     1       5.628   4.739  -2.865  0.00  0.00    +0.104 C 
ENDBRANCH   5   6
ENDBRANCH   2   5
TORSDOF 3
REMARK  Name = 
REMARK  35 active torsions:
REMARK  status: ('A' for Active; 'I' for Inactive)
REMARK    1  A    between atoms: C_1  and  C_2
REMARK    2  A    between atoms: C_2  and  C_4
REMARK    3  A    between atoms: C_2  and  O_8
REMARK    4  A    between atoms: C_4  and  N_5
REMARK    5  A    between atoms: N_5  and  C_6
REMARK    6  A    between atoms: N_5  and  C_7
REMARK    7  A    between atoms: C_9  and  C_10
REMARK    8  A    between atoms: C_10  and  C_12
REMARK    9  A    between atoms: C_10  and  O_16
REMARK   10  A    between atoms: C_12  and  N_13
REMARK   11  A    between atoms: N_13  and  C_14
REMARK   12  A    between atoms: N_13  and  C_15
REMARK   13  A    between atoms: C_17  and  C_18
REMARK   14  A    between atoms: C_18  and  C_20
REMARK   15  A    between atoms: C_18  and  O_24
REMARK   16  A    between atoms: C_20  and  N_21
REMARK   17  A    between atoms: N_21  and  C_22
REMARK   18  A    between atoms: N_21  and  C_23
REMARK   19  A    between atoms: C_25  and  C_26
REMARK   20  A    between atoms: N_28  and  C_29
REMARK   21  A    between atoms: C_32  and  C_35
REMARK   22  A    between atoms: C_35  and  O_37
REMARK   23  A    between atoms: C_38  and  C_39
REMARK   24  A    between atoms: N_41  and  C_42
REMARK   25  A    between atoms: C_45  and  C_48
REMARK   26  A    between atoms: C_48  and  O_50
REMARK   27  A    between atoms: C_51  and  C_52
REMARK   28  A    between atoms: N_54  and  C_55
REMARK   29  A    between atoms: C_58  and  C_61
REMARK   30  A    between atoms: C_61  and  O_63
REMARK   31  A    between atoms: N9_73  and  C1*_74
REMARK   32  A    between atoms: C2*_76  and  O2*_86
REMARK   33  A    between atoms: C3*_78  and  O3*_85
REMARK   34  A    between atoms: C4*_80  and  C5*_83
REMARK   35  A    between atoms: C5*_83  and  O5*_84
REMARK                            x       y       z     vdW  Elec       q    Type
REMARK                         _______ _______ _______ _____ _____    ______ ____
ROOT
ATOM      1  C   UNL     1       2.850   2.185   1.622  0.00  0.00    +0.039 C 
ATOM      2  C   UNL     1       3.190   0.186   1.045  0.00  0.00    +0.125 C 
ENDROOT
BRANCH   2   3
ATOM      3  O   UNL     1       2.679  -0.573  -0.231  0.00  0.00    -0.391 OA
ATOM      4  H   UNL     1       2.290  -0.223  -1.140  0.00  0.00    +0.210 HD
ENDBRANCH   2   3
BRANCH   2   5
ATOM      5  C   UNL     1       3.785  -1.170   2.385  0.00  0.00    +0.114 C 
BRANCH   5   6
ATOM      6  N   UNL     1       3.700  -1.009   3.991  0.00  0.00    -0.306 NA
ATOM      7  C   UNL     1       4.538  -1.962   4.610  0.00  0.00    +0.104 C 
ATOM      8  C   UNL     1       2.493  -0.727   4.900  0.00  0.00    +0.104 C 
ENDBRANCH   5   6
ENDBRANCH   2   5
TORSDOF 3
REMARK  Name = 
REMARK  35 active torsions:
REMARK  status: ('A' for Active; 'I' for Inactive)
REMARK    1  A    between atoms: C_1  and  C_2
REMARK    2  A    between atoms: C_2  and  C_4
REMARK    3  A    between atoms: C_2  and  O_8
REMARK    4  A    between atoms: C_4  and  N_5
REMARK    5  A    between atoms: N_5  and  C_6
REMARK    6  A    between atoms: N_5  and  C_7
REMARK    7  A    between atoms: C_9  and  C_10
REMARK    8  A    between atoms: C_10  and  C_12
REMARK    9  A    between atoms: C_10  and  O_16
REMARK   10  A    between atoms: C_12  and  N_13
REMARK   11  A    between atoms: N_13  and  C_14
REMARK   12  A    between atoms: N_13  and  C_15
REMARK   13  A    between atoms: C_17  and  C_18
REMARK   14  A    between atoms: C_18  and  C_20
REMARK   15  A    between atoms: C_18  and  O_24
REMARK   16  A    between atoms: C_20  and  N_21
REMARK   17  A    between atoms: N_21  and  C_22
REMARK   18  A    between atoms: N_21  and  C_23
REMARK   19  A    between atoms: C_25  and  C_26
REMARK   20  A    between atoms: N_28  and  C_29
REMARK   21  A    between atoms: C_32  and  C_35
REMARK   22  A    between atoms: C_35  and  O_37
REMARK   23  A    between atoms: C_38  and  C_39
REMARK   24  A    between atoms: N_41  and  C_42
REMARK   25  A    between atoms: C_45  and  C_48
REMARK   26  A    between atoms: C_48  and  O_50
REMARK   27  A    between atoms: C_51  and  C_52
REMARK   28  A    between atoms: N_54  and  C_55
REMARK   29  A    between atoms: C_58  and  C_61
REMARK   30  A    between atoms: C_61  and  O_63
REMARK   31  A    between atoms: N9_73  and  C1*_74
REMARK   32  A    between atoms: C2*_76  and  O2*_86
REMARK   33  A    between atoms: C3*_78  and  O3*_85
REMARK   34  A    between atoms: C4*_80  and  C5*_83
REMARK   35  A    between atoms: C5*_83  and  O5*_84
REMARK                            x       y       z     vdW  Elec       q    Type
REMARK                         _______ _______ _______ _____ _____    ______ ____
ROOT
ATOM      1  C   UNL     1       4.113  -3.773  -2.768  0.00  0.00    +0.033 A 
ATOM      2  C   UNL     1       4.985  -4.369  -1.441  0.00  0.00    +0.024 A 
ATOM      3  C   UNL     1       5.842  -5.469  -1.004  0.00  0.00    +0.017 A 
ATOM      4  C   UNL     1       5.804  -6.486  -1.861  0.00  0.00    +0.059 A 
ATOM      5  C   UNL     1       5.061  -6.175  -3.090  0.00  0.00    +0.017 A 
ATOM      6  C   UNL     1       4.271  -4.890  -3.534  0.00  0.00    +0.024 A 
ENDROOT
BRANCH   1   9
ATOM      7  C   UNL     1       0.156  -1.039  -3.753  0.00  0.00    +0.109 C 
ATOM      8  C   UNL     1       1.937  -1.513  -3.640  0.00  0.00    +0.214 C 
ATOM      9  N   UNL     1       2.563  -2.858  -3.060  0.00  0.00    -0.286 N 
ATOM     10  H   UNL     1       1.829  -3.154  -2.452  0.00  0.00    +0.155 HD
ATOM     11  O   UNL     1       2.660  -0.598  -4.053  0.00  0.00    -0.276 OA
ENDBRANCH   1   9
BRANCH   4  12
ATOM     12  C   UNL     1       6.588  -7.731  -1.517  0.00  0.00    +0.337 C 
ATOM     13  O   UNL     1       7.118  -8.344  -2.431  0.00  0.00    -0.245 OA
BRANCH  12  14
ATOM     14  O   UNL     1       6.806  -8.120  -0.226  0.00  0.00    -0.477 OA
ATOM     15  H   UNL     1       6.367  -7.779   0.578  0.00  0.00    +0.295 HD
ENDBRANCH  12  14
ENDBRANCH   4  12
TORSDOF 3
REMARK  Name = 
REMARK  35 active torsions:
REMARK  status: ('A' for Active; 'I' for Inactive)
REMARK    1  A    between atoms: C_1  and  C_2
REMARK    2  A    between atoms: C_2  and  C_4
REMARK    3  A    between atoms: C_2  and  O_8
REMARK    4  A    between atoms: C_4  and  N_5
REMARK    5  A    between atoms: N_5  and  C_6
REMARK    6  A    between atoms: N_5  and  C_7
REMARK    7  A    between atoms: C_9  and  C_10
REMARK    8  A    between atoms: C_10  and  C_12
REMARK    9  A    between atoms: C_10  and  O_16
REMARK   10  A    between atoms: C_12  and  N_13
REMARK   11  A    between atoms: N_13  and  C_14
REMARK   12  A    between atoms: N_13  and  C_15
REMARK   13  A    between atoms: C_17  and  C_18
REMARK   14  A    between atoms: C_18  and  C_20
REMARK   15  A    between atoms: C_18  and  O_24
REMARK   16  A    between atoms: C_20  and  N_21
REMARK   17  A    between atoms: N_21  and  C_22
REMARK   18  A    between atoms: N_21  and  C_23
REMARK   19  A    between atoms: C_25  and  C_26
REMARK   20  A    between atoms: N_28  and  C_29
REMARK   21  A    between atoms: C_32  and  C_35
REMARK   22  A    between atoms: C_35  and  O_37
REMARK   23  A    between atoms: C_38  and  C_39
REMARK   24  A    between atoms: N_41  and  C_42
REMARK   25  A    between atoms: C_45  and  C_48
REMARK   26  A    between atoms: C_48  and  O_50
REMARK   27  A    between atoms: C_51  and  C_52
REMARK   28  A    between atoms: N_54  and  C_55
REMARK   29  A    between atoms: C_58  and  C_61
REMARK   30  A    between atoms: C_61  and  O_63
REMARK   31  A    between atoms: N9_73  and  C1*_74
REMARK   32  A    between atoms: C2*_76  and  O2*_86
REMARK   33  A    between atoms: C3*_78  and  O3*_85
REMARK   34  A    between atoms: C4*_80  and  C5*_83
REMARK   35  A    between atoms: C5*_83  and  O5*_84
REMARK                            x       y       z     vdW  Elec       q    Type
REMARK                         _______ _______ _______ _____ _____    ______ ____
ROOT
ATOM      1  C   UNL     1       4.170   2.638  -1.810  0.00  0.00    +0.033 A 
ATOM      2  C   UNL     1       3.131   3.339  -2.529  0.00  0.00    +0.024 A 
ATOM      3  C   UNL     1       2.615   3.391  -3.884  0.00  0.00    +0.017 A 
ATOM      4  C   UNL     1       3.228   2.690  -4.882  0.00  0.00    +0.059 A 
ATOM      5  C   UNL     1       4.388   2.081  -4.504  0.00  0.00    +0.017 A 
ATOM      6  C   UNL     1       4.953   2.348  -3.137  0.00  0.00    +0.024 A 
ENDROOT
BRANCH   1   9
ATOM      7  C   UNL     1       2.668   0.437   2.699  0.00  0.00    +0.109 C 
ATOM      8  C   UNL     1       4.388   1.281   1.915  0.00  0.00    +0.214 C 
ATOM      9  N   UNL     1       4.242   2.261   0.159  0.00  0.00    -0.286 N 
ATOM     10  H   UNL     1       4.464   1.302  -0.145  0.00  0.00    +0.155 HD
ATOM     11  O   UNL     1       5.454   1.486   2.577  0.00  0.00    -0.276 OA
ENDBRANCH   1   9
BRANCH   4  12
ATOM     12  C   UNL     1       3.107   3.279  -6.219  0.00  0.00    +0.337 C 
ATOM     13  O   UNL     1       2.061   3.730  -6.651  0.00  0.00    -0.245 OA
BRANCH  12  14
ATOM     14  O   UNL     1       4.315   3.561  -6.766  0.00  0.00    -0.477 OA
ATOM     15  H   UNL     1       5.016   2.918  -6.556  0.00  0.00    +0.295 HD
ENDBRANCH  12  14
ENDBRANCH   4  12
TORSDOF 3
REMARK  Name = 
REMARK  35 active torsions:
REMARK  status: ('A' for Active; 'I' for Inactive)
REMARK    1  A    between atoms: C_1  and  C_2
REMARK    2  A    between atoms: C_2  and  C_4
REMARK    3  A    between atoms: C_2  and  O_8
REMARK    4  A    between atoms: C_4  and  N_5
REMARK    5  A    between atoms: N_5  and  C_6
REMARK    6  A    between atoms: N_5  and  C_7
REMARK    7  A    between atoms: C_9  and  C_10
REMARK    8  A    between atoms: C_10  and  C_12
REMARK    9  A    between atoms: C_10  and  O_16
REMARK   10  A    between atoms: C_12  and  N_13
REMARK   11  A    between atoms: N_13  and  C_14
REMARK   12  A    between atoms: N_13  and  C_15
REMARK   13  A    between atoms: C_17  and  C_18
REMARK   14  A    between atoms: C_18  and  C_20
REMARK   15  A    between atoms: C_18  and  O_24
REMARK   16  A    between atoms: C_20  and  N_21
REMARK   17  A    between atoms: N_21  and  C_22
REMARK   18  A    between atoms: N_21  and  C_23
REMARK   19  A    between atoms: C_25  and  C_26
REMARK   20  A    between atoms: N_28  and  C_29
REMARK   21  A    between atoms: C_32  and  C_35
REMARK   22  A    between atoms: C_35  and  O_37
REMARK   23  A    between atoms: C_38  and  C_39
REMARK   24  A    between atoms: N_41  and  C_42
REMARK   25  A    between atoms: C_45  and  C_48
REMARK   26  A    between atoms: C_48  and  O_50
REMARK   27  A    between atoms: C_51  and  C_52
REMARK   28  A    between atoms: N_54  and  C_55
REMARK   29  A    between atoms: C_58  and  C_61
REMARK   30  A    between atoms: C_61  and  O_63
REMARK   31  A    between atoms: N9_73  and  C1*_74
REMARK   32  A    between atoms: C2*_76  and  O2*_86
REMARK   33  A    between atoms: C3*_78  and  O3*_85
REMARK   34  A    between atoms: C4*_80  and  C5*_83
REMARK   35  A    between atoms: C5*_83  and  O5*_84
REMARK                            x       y       z     vdW  Elec       q    Type
REMARK                         _______ _______ _______ _____ _____    ______ ____
ROOT
ATOM      1  C   UNL     1       5.660  -0.707  -0.787  0.00  0.00    +0.033 A 
ATOM      2  C   UNL     1       6.476  -1.206  -1.884  0.00  0.00    +0.024 A 
ATOM      3  C   UNL     1       7.695  -0.444  -2.319  0.00  0.00    +0.017 A 
ATOM      4  C   UNL     1       8.319   0.546  -1.522  0.00  0.00    +0.059 A 
ATOM      5  C   UNL     1       8.057   0.392  -0.204  0.00  0.00    +0.017 A 
ATOM      6  C   UNL     1       6.993  -0.584   0.081  0.00  0.00    +0.024 A 
ENDROOT
BRANCH   1   9
ATOM      7  C   UNL     1       0.415   1.866  -0.352  0.00  0.00    +0.109 C 
ATOM      8  C   UNL     1       2.427   1.524  -0.534  0.00  0.00    +0.214 C 
ATOM      9  N   UNL     1       3.934   0.329  -1.049  0.00  0.00    -0.286 N 
ATOM     10  H   UNL     1       3.567  -0.545  -1.179  0.00  0.00    +0.155 HD
ATOM     11  O   UNL     1       2.373   2.823  -0.606  0.00  0.00    -0.276 OA
ENDBRANCH   1   9
BRANCH   4  12
ATOM     12  C   UNL     1       9.215   1.620  -2.040  0.00  0.00    +0.337 C 
ATOM     13  O   UNL     1       9.878   1.373  -3.031  0.00  0.00    -0.245 OA
BRANCH  12  14
ATOM     14  O   UNL     1       9.297   2.831  -1.432  0.00  0.00    -0.477 OA
ATOM     15  H   UNL     1       8.592   3.239  -0.895  0.00  0.00    +0.295 HD
ENDBRANCH  12  14
ENDBRANCH   4  12
TORSDOF 3
REMARK  Name = 
REMARK  35 active torsions:
REMARK  status: ('A' for Active; 'I' for Inactive)
REMARK    1  A    between atoms: C_1  and  C_2
REMARK    2  A    between atoms: C_2  and  C_4
REMARK    3  A    between atoms: C_2  and  O_8
REMARK    4  A    between atoms: C_4  and  N_5
REMARK    5  A    between atoms: N_5  and  C_6
REMARK    6  A    between atoms: N_5  and  C_7
REMARK    7  A    between atoms: C_9  and  C_10
REMARK    8  A    between atoms: C_10  and  C_12
REMARK    9  A    between atoms: C_10  and  O_16
REMARK   10  A    between atoms: C_12  and  N_13
REMARK   11  A    between atoms: N_13  and  C_14
REMARK   12  A    between atoms: N_13  and  C_15
REMARK   13  A    between atoms: C_17  and  C_18
REMARK   14  A    between atoms: C_18  and  C_20
REMARK   15  A    between atoms: C_18  and  O_24
REMARK   16  A    between atoms: C_20  and  N_21
REMARK   17  A    between atoms: N_21  and  C_22
REMARK   18  A    between atoms: N_21  and  C_23
REMARK   19  A    between atoms: C_25  and  C_26
REMARK   20  A    between atoms: N_28  and  C_29
REMARK   21  A    between atoms: C_32  and  C_35
REMARK   22  A    between atoms: C_35  and  O_37
REMARK   23  A    between atoms: C_38  and  C_39
REMARK   24  A    between atoms: N_41  and  C_42
REMARK   25  A    between atoms: C_45  and  C_48
REMARK   26  A    between atoms: C_48  and  O_50
REMARK   27  A    between atoms: C_51  and  C_52
REMARK   28  A    between atoms: N_54  and  C_55
REMARK   29  A    between atoms: C_58  and  C_61
REMARK   30  A    between atoms: C_61  and  O_63
REMARK   31  A    between atoms: N9_73  and  C1*_74
REMARK   32  A    between atoms: C2*_76  and  O2*_86
REMARK   33  A    between atoms: C3*_78  and  O3*_85
REMARK   34  A    between atoms: C4*_80  and  C5*_83
REMARK   35  A    between atoms: C5*_83  and  O5*_84
REMARK                            x       y       z     vdW  Elec       q    Type
REMARK                         _______ _______ _______ _____ _____    ______ ____
ROOT
ATOM      1  C1*   I A   1       0.390  -3.794   0.511  0.00  0.00    +0.253 C 
ATOM      2  O4*   I A   1      -0.036  -5.153   0.300  0.00  0.00    -0.346 OA
ATOM      3  C4*   I A   1       0.764  -5.981   1.235  0.00  0.00    +0.177 C 
ATOM      4  C3*   I A   1       2.219  -5.644   1.553  0.00  0.00    +0.178 C 
ATOM      5  C2*   I A   1       2.058  -4.092   1.572  0.00  0.00    +0.195 C 
ENDROOT
BRANCH   1  14
ATOM      6  C2    I A   1      -3.942  -1.104   0.821  0.00  0.00    +0.201 A 
ATOM      7  N1    I A   1      -3.801   0.263   0.629  0.00  0.00    -0.312 N 
ATOM      8  H1    I A   1      -4.528   0.905   0.371  0.00  0.00    +0.170 HD
ATOM      9  C6    I A   1      -2.681   0.702   0.045  0.00  0.00    +0.279 A 
ATOM     10  O6    I A   1      -2.521   1.897  -0.181  0.00  0.00    -0.265 OA
ATOM     11  C5    I A   1      -1.840  -0.463  -0.208  0.00  0.00    +0.172 A 
ATOM     12  N7    I A   1      -1.292  -0.711  -1.389  0.00  0.00    -0.229 NA
ATOM     13  C8    I A   1      -0.584  -1.806  -1.173  0.00  0.00    +0.203 A 
ATOM     14  N9    I A   1      -0.750  -2.519   0.054  0.00  0.00    -0.285 N 
ATOM     15  C4    I A   1      -1.818  -1.673   0.539  0.00  0.00    +0.169 A 
ATOM     16  N3    I A   1      -3.031  -2.042   1.014  0.00  0.00    -0.218 NA
ENDBRANCH   1  14
BRANCH   4  17
ATOM     17  O3*   I A   1       3.130  -6.475   0.752  0.00  0.00    -0.386 OA
ATOM     18  H3*   I A   1       3.845  -6.004   0.300  0.00  0.00    +0.210 HD
ENDBRANCH   4  17
BRANCH   5  19
ATOM     19  O2*   I A   1       3.560  -4.025   1.712  0.00  0.00    -0.385 OA
ATOM     20  H2*   I A   1       4.103  -3.334   1.326  0.00  0.00    +0.210 HD
ENDBRANCH   5  19
BRANCH   3  21
ATOM     21  C5*   I A   1       0.088  -5.579   2.516  0.00  0.00    +0.190 C 
BRANCH  21  22
ATOM     22  O5*   I A   1       0.653  -6.157   3.657  0.00  0.00    -0.392 OA
ATOM     23  H5*   I A   1       1.504  -5.710   3.842  0.00  0.00    +0.210 HD
ENDBRANCH  21  22
ENDBRANCH   3  21
TORSDOF 5
