REMARK  Name = 
REMARK  23 active torsions:
REMARK  status: ('A' for Active; 'I' for Inactive)
REMARK    1  A    between atoms: C_1  and  C_2
REMARK    2  A    between atoms: C_2  and  C_3
REMARK    3  A    between atoms: C_2  and  O_7
REMARK    4  A    between atoms: C_3  and  N_4
REMARK    5  A    between atoms: N_4  and  C_5
REMARK    6  A    between atoms: N_4  and  C_6
REMARK    7  A    between atoms: C_8  and  C_9
REMARK    8  A    between atoms: C_9  and  C_10
REMARK    9  A    between atoms: C_9  and  O_14
REMARK   10  A    between atoms: C_10  and  N_11
REMARK   11  A    between atoms: N_11  and  C_12
REMARK   12  A    between atoms: N_11  and  C_13
REMARK   13  A    between atoms: C_15  and  C_16
REMARK   14  A    between atoms: C_16  and  C_17
REMARK   15  A    between atoms: C_16  and  O_21
REMARK   16  A    between atoms: C_17  and  N_18
REMARK   17  A    between atoms: N_18  and  C_19
REMARK   18  A    between atoms: N_18  and  C_20
REMARK   19  A    between atoms: N9_31  and  C1*_32
REMARK   20  A    between atoms: C2*_34  and  O2*_44
REMARK   21  A    between atoms: C3*_36  and  O3*_43
REMARK   22  A    between atoms: C4*_38  and  C5*_41
REMARK   23  A    between atoms: C5*_41  and  O5*_42
REMARK                            x       y       z     vdW  Elec       q    Type
REMARK                         _______ _______ _______ _____ _____    ______ ____
ROOT
ATOM      1  C   UNL     1       2.914   0.783  -2.408  0.00  0.00    +0.039 C 
ATOM      2  C   UNL     1       4.161  -0.121  -2.033  0.00  0.00    +0.125 C 
ENDROOT
BRANCH   2   3
ATOM      3  O   UNL     1       4.597  -0.493  -3.374  0.00  0.00    -0.391 OA
ATOM      4  H   UNL     1       4.461   0.295  -3.941  0.00  0.00    +0.210 HD
ENDBRANCH   2   3
BRANCH   2   5
ATOM      5  C   UNL     1       4.491  -1.533  -0.934  0.00  0.00    +0.114 C 
BRANCH   5   6
ATOM      6  N   UNL     1       4.503  -2.194   0.618  0.00  0.00    -0.306 NA
ATOM      7  C   UNL     1       5.427  -3.350   0.468  0.00  0.00    +0.104 C 
ATOM      8  C   UNL     1       3.553  -3.008   1.526  0.00  0.00    +0.104 C 
ENDBRANCH   5   6
ENDBRANCH   2   5
TORSDOF 3
REMARK  Name = 
REMARK  23 active torsions:
REMARK  status: ('A' for Active; 'I' for Inactive)
REMARK    1  A    between atoms: C_1  and  C_2
REMARK    2  A    between atoms: C_2  and  C_3
REMARK    3  A    between atoms: C_2  and  O_7
REMARK    4  A    between atoms: C_3  and  N_4
REMARK    5  A    between atoms: N_4  and  C_5
REMARK    6  A    between atoms: N_4  and  C_6
REMARK    7  A    between atoms: C_8  and  C_9
REMARK    8  A    between atoms: C_9  and  C_10
REMARK    9  A    between atoms: C_9  and  O_14
REMARK   10  A    between atoms: C_10  and  N_11
REMARK   11  A    between atoms: N_11  and  C_12
REMARK   12  A    between atoms: N_11  and  C_13
REMARK   13  A    between atoms: C_15  and  C_16
REMARK   14  A    between atoms: C_16  and  C_17
REMARK   15  A    between atoms: C_16  and  O_21
REMARK   16  A    between atoms: C_17  and  N_18
REMARK   17  A    between atoms: N_18  and  C_19
REMARK   18  A    between atoms: N_18  and  C_20
REMARK   19  A    between atoms: N9_31  and  C1*_32
REMARK   20  A    between atoms: C2*_34  and  O2*_44
REMARK   21  A    between atoms: C3*_36  and  O3*_43
REMARK   22  A    between atoms: C4*_38  and  C5*_41
REMARK   23  A    between atoms: C5*_41  and  O5*_42
REMARK                            x       y       z     vdW  Elec       q    Type
REMARK                         _______ _______ _______ _____ _____    ______ ____
ROOT
ATOM      1  C   UNL     1       1.733   1.979   0.226  0.00  0.00    +0.039 C 
ATOM      2  C   UNL     1       3.217   1.612   0.529  0.00  0.00    +0.125 C 
ENDROOT
BRANCH   2   3
ATOM      3  O   UNL     1       3.530   0.675   1.527  0.00  0.00    -0.391 OA
ATOM      4  H   UNL     1       4.076  -0.055   1.136  0.00  0.00    +0.210 HD
ENDBRANCH   2   3
BRANCH   2   5
ATOM      5  C   UNL     1       4.075   2.825   0.673  0.00  0.00    +0.114 C 
BRANCH   5   6
ATOM      6  N   UNL     1       5.449   2.459   1.064  0.00  0.00    -0.306 NA
ATOM      7  C   UNL     1       5.553   2.106   2.494  0.00  0.00    +0.104 C 
ATOM      8  C   UNL     1       6.340   3.570   0.784  0.00  0.00    +0.104 C 
ENDBRANCH   5   6
ENDBRANCH   2   5
TORSDOF 3
REMARK  Name = 
REMARK  23 active torsions:
REMARK  status: ('A' for Active; 'I' for Inactive)
REMARK    1  A    between atoms: C_1  and  C_2
REMARK    2  A    between atoms: C_2  and  C_3
REMARK    3  A    between atoms: C_2  and  O_7
REMARK    4  A    between atoms: C_3  and  N_4
REMARK    5  A    between atoms: N_4  and  C_5
REMARK    6  A    between atoms: N_4  and  C_6
REMARK    7  A    between atoms: C_8  and  C_9
REMARK    8  A    between atoms: C_9  and  C_10
REMARK    9  A    between atoms: C_9  and  O_14
REMARK   10  A    between atoms: C_10  and  N_11
REMARK   11  A    between atoms: N_11  and  C_12
REMARK   12  A    between atoms: N_11  and  C_13
REMARK   13  A    between atoms: C_15  and  C_16
REMARK   14  A    between atoms: C_16  and  C_17
REMARK   15  A    between atoms: C_16  and  O_21
REMARK   16  A    between atoms: C_17  and  N_18
REMARK   17  A    between atoms: N_18  and  C_19
REMARK   18  A    between atoms: N_18  and  C_20
REMARK   19  A    between atoms: N9_31  and  C1*_32
REMARK   20  A    between atoms: C2*_34  and  O2*_44
REMARK   21  A    between atoms: C3*_36  and  O3*_43
REMARK   22  A    between atoms: C4*_38  and  C5*_41
REMARK   23  A    between atoms: C5*_41  and  O5*_42
REMARK                            x       y       z     vdW  Elec       q    Type
REMARK                         _______ _______ _______ _____ _____    ______ ____
ROOT
ATOM      1  C   UNL     1       0.396  -0.905  -1.022  0.00  0.00    +0.039 C 
ATOM      2  C   UNL     1       1.604  -1.091   0.114  0.00  0.00    +0.125 C 
ENDROOT
BRANCH   2   3
ATOM      3  O   UNL     1       2.336  -2.012  -0.732  0.00  0.00    -0.391 OA
ATOM      4  H   UNL     1       2.417  -2.859  -0.285  0.00  0.00    +0.210 HD
ENDBRANCH   2   3
BRANCH   2   5
ATOM      5  C   UNL     1       1.781  -1.006   2.054  0.00  0.00    +0.114 C 
BRANCH   5   6
ATOM      6  N   UNL     1       1.014  -1.408   3.463  0.00  0.00    -0.306 NA
ATOM      7  C   UNL     1       1.944  -1.256   4.616  0.00  0.00    +0.104 C 
ATOM      8  C   UNL     1      -0.247  -0.751   3.986  0.00  0.00    +0.104 C 
ENDBRANCH   5   6
ENDBRANCH   2   5
TORSDOF 3
REMARK  Name = 
REMARK  23 active torsions:
REMARK  status: ('A' for Active; 'I' for Inactive)
REMARK    1  A    between atoms: C_1  and  C_2
REMARK    2  A    between atoms: C_2  and  C_3
REMARK    3  A    between atoms: C_2  and  O_7
REMARK    4  A    between atoms: C_3  and  N_4
REMARK    5  A    between atoms: N_4  and  C_5
REMARK    6  A    between atoms: N_4  and  C_6
REMARK    7  A    between atoms: C_8  and  C_9
REMARK    8  A    between atoms: C_9  and  C_10
REMARK    9  A    between atoms: C_9  and  O_14
REMARK   10  A    between atoms: C_10  and  N_11
REMARK   11  A    between atoms: N_11  and  C_12
REMARK   12  A    between atoms: N_11  and  C_13
REMARK   13  A    between atoms: C_15  and  C_16
REMARK   14  A    between atoms: C_16  and  C_17
REMARK   15  A    between atoms: C_16  and  O_21
REMARK   16  A    between atoms: C_17  and  N_18
REMARK   17  A    between atoms: N_18  and  C_19
REMARK   18  A    between atoms: N_18  and  C_20
REMARK   19  A    between atoms: N9_31  and  C1*_32
REMARK   20  A    between atoms: C2*_34  and  O2*_44
REMARK   21  A    between atoms: C3*_36  and  O3*_43
REMARK   22  A    between atoms: C4*_38  and  C5*_41
REMARK   23  A    between atoms: C5*_41  and  O5*_42
REMARK                            x       y       z     vdW  Elec       q    Type
REMARK                         _______ _______ _______ _____ _____    ______ ____
ROOT
ATOM      1  C1*   I A   1      -0.328  -2.794   1.086  0.00  0.00    +0.253 C 
ATOM      2  O4*   I A   1       0.776  -3.198   0.147  0.00  0.00    -0.346 OA
ATOM      3  C4*   I A   1       0.778  -4.530  -0.453  0.00  0.00    +0.177 C 
ATOM      4  C3*   I A   1      -0.514  -5.084   0.045  0.00  0.00    +0.178 C 
ATOM      5  C2*   I A   1      -1.316  -3.872   0.612  0.00  0.00    +0.195 C 
ENDROOT
BRANCH   1  14
ATOM      6  C2    I A   1      -3.875  -0.846  -0.205  0.00  0.00    +0.201 A 
ATOM      7  N1    I A   1      -3.899   0.524  -0.319  0.00  0.00    -0.312 N 
ATOM      8  H1    I A   1      -4.409   1.019  -1.040  0.00  0.00    +0.170 HD
ATOM      9  C6    I A   1      -3.139   1.378   0.431  0.00  0.00    +0.279 A 
ATOM     10  O6    I A   1      -3.125   2.604   0.321  0.00  0.00    -0.265 OA
ATOM     11  C5    I A   1      -2.249   0.604   1.183  0.00  0.00    +0.172 A 
ATOM     12  N7    I A   1      -1.136   1.089   1.649  0.00  0.00    -0.229 NA
ATOM     13  C8    I A   1      -0.389   0.030   1.522  0.00  0.00    +0.203 A 
ATOM     14  N9    I A   1      -0.885  -1.212   1.253  0.00  0.00    -0.285 N 
ATOM     15  C4    I A   1      -2.182  -0.808   1.093  0.00  0.00    +0.169 A 
ATOM     16  N3    I A   1      -3.141  -1.518   0.571  0.00  0.00    -0.218 NA
ENDBRANCH   1  14
BRANCH   4  17
ATOM     17  O3*   I A   1      -0.160  -5.994   1.089  0.00  0.00    -0.386 OA
ATOM     18  H3*   I A   1      -1.000  -6.194   1.549  0.00  0.00    +0.210 HD
ENDBRANCH   4  17
BRANCH   5  19
ATOM     19  O2*   I A   1      -2.094  -4.332   1.707  0.00  0.00    -0.385 OA
ATOM     20  H2*   I A   1      -1.621  -4.045   2.514  0.00  0.00    +0.210 HD
ENDBRANCH   5  19
BRANCH   3  21
ATOM     21  C5*   I A   1       1.027  -4.672  -2.001  0.00  0.00    +0.190 C 
BRANCH  21  22
ATOM     22  O5*   I A   1       0.238  -3.795  -2.786  0.00  0.00    -0.392 OA
ATOM     23  H5*   I A   1       0.857  -3.109  -3.105  0.00  0.00    +0.210 HD
ENDBRANCH  21  22
ENDBRANCH   3  21
TORSDOF 5
