REMARK  Name = 
REMARK  1 active torsions:
REMARK  status: ('A' for Active; 'I' for Inactive)
REMARK    1  A    between atoms: N_8  and  C_9
REMARK                            x       y       z     vdW  Elec       q    Type
REMARK                         _______ _______ _______ _____ _____    ______ ____
ROOT
ATOM      1  C   UNL     1       0.762   1.254  -0.094  0.00  0.00    +0.215 C 
ATOM      2  N   UNL     1       1.505   0.085   0.396  0.00  0.00    -0.220 N 
ATOM      3  C   UNL     1       2.696   0.077   1.087  0.00  0.00    +0.376 C 
ATOM      4  N   UNL     1       3.293   1.297   1.206  0.00  0.00    -0.251 N 
ATOM      5  H   UNL     1       4.287   1.233   1.415  0.00  0.00    +0.241 HD
ATOM      6  H   UNL     1       3.151   1.916   0.421  0.00  0.00    +0.241 HD
ATOM      7  N   UNL     1       3.160  -1.032   1.579  0.00  0.00    -0.008 NA
ATOM      8  C   UNL     1       0.893  -1.186  -0.047  0.00  0.00    +0.215 C 
ATOM      9  C   UNL     1      -0.592  -1.218   0.332  0.00  0.00    +0.195 C 
ATOM     10  O   UNL     1      -1.294  -0.092  -0.218  0.00  0.00    -0.374 OA
ATOM     11  C   UNL     1      -0.725   1.129   0.276  0.00  0.00    +0.195 C 
ENDROOT
BRANCH   7  12
ATOM     12  C   UNL     1       4.326  -1.126   2.256  0.00  0.00    +0.422 C 
ATOM     13  N   UNL     1       5.096  -2.218   2.076  0.00  0.00    -0.286 N 
ATOM     14  H   UNL     1       5.691  -2.368   2.880  0.00  0.00    +0.255 HD
ATOM     15  H   UNL     1       4.536  -3.024   1.834  0.00  0.00    +0.255 HD
ATOM     16  N   UNL     1       4.677  -0.235   3.120  0.00  0.00    -0.127 NA
ATOM     17  H   UNL     1       3.910   0.446   3.153  0.00  0.00    +0.306 HD
ENDBRANCH   7  12
TORSDOF 1
