REMARK  Name = 
REMARK  1 active torsions:
REMARK  status: ('A' for Active; 'I' for Inactive)
REMARK    1  A    between atoms: N_8  and  C_9
REMARK                            x       y       z     vdW  Elec       q    Type
REMARK                         _______ _______ _______ _____ _____    ______ ____
ROOT
ATOM      1  C   UNL     1       0.756   1.257  -0.093  0.00  0.00    +0.215 C 
ATOM      2  N   UNL     1       1.496   0.088   0.401  0.00  0.00    -0.220 N 
ATOM      3  C   UNL     1       2.686   0.082   1.088  0.00  0.00    +0.376 C 
ATOM      4  N   UNL     1       3.293   1.299   1.187  0.00  0.00    -0.251 N 
ATOM      5  H   UNL     1       4.287   1.229   1.399  0.00  0.00    +0.241 HD
ATOM      6  H   UNL     1       3.155   1.908   0.395  0.00  0.00    +0.241 HD
ATOM      7  N   UNL     1       3.142  -1.022   1.597  0.00  0.00    -0.008 NA
ATOM      8  C   UNL     1       0.881  -1.182  -0.035  0.00  0.00    +0.215 C 
ATOM      9  C   UNL     1      -0.605  -1.210   0.342  0.00  0.00    +0.195 C 
ATOM     10  O   UNL     1      -1.303  -0.083  -0.212  0.00  0.00    -0.374 OA
ATOM     11  C   UNL     1      -0.730   1.138   0.279  0.00  0.00    +0.195 C 
ENDROOT
BRANCH   7  12
ATOM     12  C   UNL     1       4.311  -1.111   2.269  0.00  0.00    +0.422 C 
ATOM     13  N   UNL     1       5.068  -2.214   2.110  0.00  0.00    -0.286 N 
ATOM     14  H   UNL     1       5.667  -2.350   2.913  0.00  0.00    +0.255 HD
ATOM     15  H   UNL     1       4.497  -3.021   1.894  0.00  0.00    +0.255 HD
ATOM     16  N   UNL     1       4.671  -0.208   3.114  0.00  0.00    -0.127 NA
ATOM     17  H   UNL     1       3.906   0.476   3.147  0.00  0.00    +0.306 HD
ENDBRANCH   7  12
TORSDOF 1
