REMARK  Name = 
REMARK  16 active torsions:
REMARK  status: ('A' for Active; 'I' for Inactive)
REMARK    1  A    between atoms: C_1  and  C_2
REMARK    2  A    between atoms: C_3  and  C_9
REMARK    3  A    between atoms: C_7  and  O_8
REMARK    4  A    between atoms: N_11  and  C_12
REMARK    5  A    between atoms: C_12  and  C_13
REMARK    6  A    between atoms: C_12  and  C_21
REMARK    7  A    between atoms: C_13  and  S_14
REMARK    8  A    between atoms: S_14  and  C_15
REMARK    9  A    between atoms: C_21  and  C_22
REMARK   10  A    between atoms: C_21  and  O_42
REMARK   11  A    between atoms: C_22  and  N_23
REMARK   12  A    between atoms: C_34  and  C_35
REMARK   13  A    between atoms: N_37  and  C_38
REMARK   14  A    between atoms: C_38  and  C_39
REMARK   15  A    between atoms: C_38  and  C_40
REMARK   16  A    between atoms: C_38  and  C_41
REMARK                            x       y       z     vdW  Elec       q    Type
REMARK                         _______ _______ _______ _____ _____    ______ ____
ROOT
ATOM      1  C   UNL     1      -1.316   3.636  -1.033  0.00  0.00    +0.113 C 
ENDROOT
BRANCH   1   3
ATOM      2  C   UNL     1      -3.765   2.967  -1.541  0.00  0.00    +0.245 C 
ATOM      3  N   UNL     1      -2.727   3.897  -1.544  0.00  0.00    -0.305 N 
ATOM      4  H   UNL     1      -2.944   4.830  -1.872  0.00  0.00    +0.149 HD
ATOM      5  O   UNL     1      -3.646   1.835  -1.086  0.00  0.00    -0.270 OA
BRANCH   2  12
ATOM      6  C   UNL     1      -4.375   4.290  -4.311  0.00  0.00    +0.048 C 
ATOM      7  C   UNL     1      -5.418   4.008  -3.272  0.00  0.00    +0.003 A 
ATOM      8  C   UNL     1      -6.763   4.346  -3.571  0.00  0.00    +0.120 A 
ATOM      9  C   UNL     1      -7.824   3.990  -2.737  0.00  0.00    +0.046 A 
ATOM     10  C   UNL     1      -7.555   3.292  -1.573  0.00  0.00    +0.004 A 
ATOM     11  C   UNL     1      -6.227   2.993  -1.228  0.00  0.00    +0.013 A 
ATOM     12  C   UNL     1      -5.136   3.378  -2.041  0.00  0.00    +0.043 A 
BRANCH   8  13
ATOM     13  O   UNL     1      -7.025   5.031  -4.730  0.00  0.00    -0.506 OA
ATOM     14  H   UNL     1      -7.946   5.345  -4.711  0.00  0.00    +0.292 HD
ENDBRANCH   8  13
ENDBRANCH   2  12
ENDBRANCH   1   3
BRANCH   1  15
ATOM     15  C   UNL     1      -1.190   3.733   0.539  0.00  0.00    +0.149 C 
BRANCH  15  16
ATOM     16  O   UNL     1       0.133   3.974   1.030  0.00  0.00    -0.389 OA
ATOM     17  H   UNL     1       0.730   3.333   0.598  0.00  0.00    +0.210 HD
ENDBRANCH  15  16
BRANCH  15  18
ATOM     18  C   UNL     1      -1.742   2.576   1.389  0.00  0.00    +0.118 C 
BRANCH  18  19
ATOM     19  N   UNL     1      -1.429   1.180   1.026  0.00  0.00    -0.289 NA
ATOM     20  C   UNL     1      -2.477   0.309   1.607  0.00  0.00    +0.143 C 
ATOM     21  C   UNL     1      -2.412  -1.108   1.072  0.00  0.00    +0.032 C 
ATOM     22  C   UNL     1      -1.027  -1.727   1.272  0.00  0.00    -0.005 C 
ATOM     23  C   UNL     1       0.044  -0.787   0.696  0.00  0.00    +0.006 C 
ATOM     24  C   UNL     1       1.428  -1.443   0.897  0.00  0.00    +0.005 C 
ATOM     25  C   UNL     1       1.478  -2.848   0.268  0.00  0.00    +0.000 C 
ATOM     26  C   UNL     1       0.357  -3.758   0.766  0.00  0.00    +0.000 C 
ATOM     27  C   UNL     1      -1.003  -3.098   0.607  0.00  0.00    +0.004 C 
ATOM     28  C   UNL     1      -0.072   0.659   1.255  0.00  0.00    +0.089 C 
BRANCH  20  29
ATOM     29  C   UNL     1      -2.550   0.311   3.155  0.00  0.00    +0.231 C 
ATOM     30  N   UNL     1      -3.853   0.146   3.599  0.00  0.00    -0.309 N 
ATOM     31  H   UNL     1      -4.572   0.099   2.889  0.00  0.00    +0.149 HD
ATOM     32  O   UNL     1      -1.581   0.412   3.899  0.00  0.00    -0.274 OA
BRANCH  30  33
ATOM     33  C   UNL     1      -4.295   0.137   4.995  0.00  0.00    +0.026 C 
ATOM     34  C   UNL     1      -3.686  -1.045   5.762  0.00  0.00    +0.031 C 
ATOM     35  C   UNL     1      -5.825  -0.030   4.978  0.00  0.00    +0.031 C 
ATOM     36  C   UNL     1      -3.952   1.464   5.688  0.00  0.00    +0.031 C 
ENDBRANCH  30  33
ENDBRANCH  20  29
ENDBRANCH  18  19
ENDBRANCH  15  18
ENDBRANCH   1  15
BRANCH   1  37
ATOM     37  C   UNL     1      -0.320   4.643  -1.715  0.00  0.00    +0.099 C 
BRANCH  37  38
ATOM     38  S   UNL     1       1.476   4.283  -1.421  0.00  0.00    -0.123 S 
BRANCH  38  39
ATOM     39  C   UNL     1       2.267   5.827  -1.862  0.00  0.00    +0.008 A 
ATOM     40  C   UNL     1       2.577   6.037  -3.206  0.00  0.00    +0.015 A 
ATOM     41  C   UNL     1       3.351   7.133  -3.598  0.00  0.00    +0.001 A 
ATOM     42  C   UNL     1       3.822   8.034  -2.644  0.00  0.00    +0.000 A 
ATOM     43  C   UNL     1       3.514   7.840  -1.298  0.00  0.00    +0.001 A 
ATOM     44  C   UNL     1       2.742   6.737  -0.904  0.00  0.00    +0.015 A 
ENDBRANCH  38  39
ENDBRANCH  37  38
ENDBRANCH   1  37
TORSDOF 12
