REMARK  Name = 
REMARK  21 active torsions:
REMARK  status: ('A' for Active; 'I' for Inactive)
REMARK    1  A    between atoms: C_1  and  C_2
REMARK    2  A    between atoms: C_2  and  C_3
REMARK    3  A    between atoms: C_2  and  C_4
REMARK    4  A    between atoms: C_2  and  C_5
REMARK    5  A    between atoms: C_5  and  C_6
REMARK    6  A    between atoms: C_5  and  N_44
REMARK    7  A    between atoms: C_10  and  O_30
REMARK    8  A    between atoms: C_12  and  C_13
REMARK    9  A    between atoms: N_15  and  C_16
REMARK   10  A    between atoms: C_16  and  C_21
REMARK   11  A    between atoms: C_18  and  C_19
REMARK   12  A    between atoms: N_23  and  S_24
REMARK   13  A    between atoms: S_24  and  C_27
REMARK   14  A    between atoms: O_30  and  C_31
REMARK   15  A    between atoms: C_34  and  O_42
REMARK   16  A    between atoms: O_42  and  C_43
REMARK   17  A    between atoms: C_45  and  O_47
REMARK   18  A    between atoms: O_47  and  C_48
REMARK   19  A    between atoms: C_48  and  C_49
REMARK   20  A    between atoms: C_48  and  C_50
REMARK   21  A    between atoms: C_48  and  C_51
REMARK                            x       y       z     vdW  Elec       q    Type
REMARK                         _______ _______ _______ _____ _____    ______ ____
ROOT
ATOM      1  C   UNL     1       4.285   3.231  -3.012  0.00  0.00    +0.237 C 
ATOM      2  N   UNL     1       4.762   3.252  -1.702  0.00  0.00    -0.285 N 
ATOM      3  C   UNL     1       4.688   2.115  -0.710  0.00  0.00    +0.166 C 
ATOM      4  C   UNL     1       6.105   2.236   0.006  0.00  0.00    +0.078 C 
ATOM      5  C   UNL     1       6.788   3.421  -0.689  0.00  0.00    +0.195 C 
ATOM      6  C   UNL     1       5.590   4.260  -1.072  0.00  0.00    +0.153 C 
ATOM      7  O   UNL     1       3.491   2.313  -3.284  0.00  0.00    -0.274 OA
ENDROOT
BRANCH   3   8
ATOM      8  C   UNL     1       4.347   0.576  -0.889  0.00  0.00    +0.234 C 
ATOM      9  N   UNL     1       5.417  -0.192  -1.316  0.00  0.00    -0.299 N 
ATOM     10  H   UNL     1       6.090   0.361  -1.815  0.00  0.00    +0.150 HD
ATOM     11  O   UNL     1       3.258   0.104  -0.571  0.00  0.00    -0.274 OA
BRANCH   9  12
ATOM     12  C   UNL     1       5.732  -1.636  -1.097  0.00  0.00    +0.119 C 
ATOM     13  C   UNL     1       5.468  -2.381   0.209  0.00  0.00    +0.046 C 
ATOM     14  C   UNL     1       4.674  -2.706  -1.036  0.00  0.00    +0.046 C 
BRANCH  12  15
ATOM     15  C   UNL     1       7.021  -2.141  -1.755  0.00  0.00    +0.256 C 
ATOM     16  N   UNL     1       7.895  -1.218  -2.209  0.00  0.00    -0.188 N 
ATOM     17  H   UNL     1       7.677  -0.231  -2.222  0.00  0.00    +0.176 HD
ATOM     18  O   UNL     1       7.243  -3.330  -1.915  0.00  0.00    -0.272 OA
BRANCH  16  19
ATOM     19  S   UNL     1       8.704  -1.477  -3.611  0.00  0.00    +0.048 S 
ATOM     20  O   UNL     1      10.113  -1.570  -3.317  0.00  0.00    -0.155 OA
ATOM     21  O   UNL     1       8.100  -0.384  -4.331  0.00  0.00    -0.155 OA
BRANCH  19  22
ATOM     22  C   UNL     1       8.316  -2.866  -4.665  0.00  0.00    +0.151 C 
ATOM     23  C   UNL     1       8.391  -2.531  -6.154  0.00  0.00    +0.030 C 
ATOM     24  C   UNL     1       7.061  -2.703  -5.484  0.00  0.00    +0.030 C 
ENDBRANCH  19  22
ENDBRANCH  16  19
ENDBRANCH  12  15
BRANCH  13  25
ATOM     25  C   UNL     1       4.685  -1.970   1.370  0.00  0.00    -0.028 C 
ATOM     26  C   UNL     1       5.039  -2.187   2.645  0.00  0.00    +0.004 C 
ENDBRANCH  13  25
ENDBRANCH   9  12
ENDBRANCH   3   8
BRANCH   1  27
ATOM     27  C   UNL     1       4.889   4.110  -4.318  0.00  0.00    +0.168 C 
BRANCH  27  29
ATOM     28  C   UNL     1       7.226   5.402  -3.874  0.00  0.00    +0.013 C 
ATOM     29  C   UNL     1       5.743   5.482  -4.348  0.00  0.00    -0.011 C 
ATOM     30  C   UNL     1       5.964   5.981  -5.820  0.00  0.00    +0.013 C 
ATOM     31  C   UNL     1       5.042   6.589  -3.549  0.00  0.00    +0.013 C 
ENDBRANCH  27  29
BRANCH  27  32
ATOM     32  N   UNL     1       3.954   3.982  -5.521  0.00  0.00    -0.269 N 
ATOM     33  H   UNL     1       3.894   3.068  -5.950  0.00  0.00    +0.153 HD
ATOM     34  C   UNL     1       3.092   4.912  -6.055  0.00  0.00    +0.401 C 
ATOM     35  O   UNL     1       2.837   5.983  -5.530  0.00  0.00    -0.226 OA
BRANCH  34  36
ATOM     36  O   UNL     1       2.608   4.529  -7.287  0.00  0.00    -0.445 OA
BRANCH  36  37
ATOM     37  C   UNL     1       1.694   5.414  -8.040  0.00  0.00    +0.107 C 
ATOM     38  C   UNL     1       0.436   5.711  -7.213  0.00  0.00    +0.055 C 
ATOM     39  C   UNL     1       1.225   4.685  -9.323  0.00  0.00    +0.055 C 
ATOM     40  C   UNL     1       2.370   6.716  -8.509  0.00  0.00    +0.055 C 
ENDBRANCH  36  37
ENDBRANCH  34  36
ENDBRANCH  27  32
ENDBRANCH   1  27
BRANCH   5  41
ATOM     41  O   UNL     1       7.323   3.009  -1.963  0.00  0.00    -0.471 OA
BRANCH  41  42
ATOM     42  C   UNL     1       8.642   2.663  -2.011  0.00  0.00    +0.223 A 
ATOM     43  C   UNL     1       9.143   2.214  -3.251  0.00  0.00    +0.049 A 
ATOM     44  C   UNL     1       8.396   2.256  -4.459  0.00  0.00    +0.034 A 
ATOM     45  C   UNL     1       8.839   1.673  -5.647  0.00  0.00    +0.042 A 
ATOM     46 CL   UNL     1       7.710   1.451  -6.943  0.00  0.00    -0.084 Cl
ATOM     47  C   UNL     1      10.055   1.003  -5.647  0.00  0.00    +0.021 A 
ATOM     48  C   UNL     1      10.822   0.964  -4.464  0.00  0.00    +0.014 A 
ATOM     49  C   UNL     1      10.387   1.561  -3.241  0.00  0.00    +0.030 A 
ATOM     50  C   UNL     1      11.046   1.424  -1.988  0.00  0.00    +0.146 A 
ATOM     51  C   UNL     1      10.480   2.018  -0.860  0.00  0.00    +0.160 A 
ATOM     52  N   UNL     1       9.286   2.622  -0.840  0.00  0.00    -0.217 NA
BRANCH  50  53
ATOM     53  O   UNL     1      12.176   0.648  -1.935  0.00  0.00    -0.493 OA
ATOM     54  C   UNL     1      12.823   0.575  -0.665  0.00  0.00    +0.277 C 
ENDBRANCH  50  53
ENDBRANCH  41  42
ENDBRANCH   5  41
TORSDOF 14
