REMARK  Name = 
REMARK  16 active torsions:
REMARK  status: ('A' for Active; 'I' for Inactive)
REMARK    1  A    between atoms: C_1  and  C_2
REMARK    2  A    between atoms: C_2  and  C_3
REMARK    3  A    between atoms: C_2  and  C_4
REMARK    4  A    between atoms: C_4  and  N_5
REMARK    5  A    between atoms: N_5  and  C_6
REMARK    6  A    between atoms: N_5  and  S_31
REMARK    7  A    between atoms: C_6  and  C_7
REMARK    8  A    between atoms: C_7  and  C_8
REMARK    9  A    between atoms: C_7  and  O_30
REMARK   10  A    between atoms: C_8  and  C_9
REMARK   11  A    between atoms: C_8  and  N_16
REMARK   12  A    between atoms: C_9  and  C_10
REMARK   13  A    between atoms: C_17  and  O_19
REMARK   14  A    between atoms: O_19  and  C_20
REMARK   15  A    between atoms: S_31  and  C_34
REMARK   16  A    between atoms: C_37  and  N_40
REMARK                            x       y       z     vdW  Elec       q    Type
REMARK                         _______ _______ _______ _____ _____    ______ ____
ROOT
ATOM      1  C   UNL     1       3.853  -2.058   0.026  0.00  0.00    +0.151 C 
ENDROOT
BRANCH   1   2
ATOM      2  O   UNL     1       3.994  -2.435  -1.355  0.00  0.00    -0.389 OA
ATOM      3  H   UNL     1       3.980  -3.405  -1.388  0.00  0.00    +0.210 HD
ENDBRANCH   1   2
BRANCH   1   4
ATOM      4  C   UNL     1       4.973  -1.079   0.411  0.00  0.00    +0.142 C 
BRANCH   4   5
ATOM      5  N   UNL     1       6.415  -1.595   0.074  0.00  0.00    -0.174 NA
BRANCH   5   6
ATOM      6  S   UNL     1       7.547  -0.255   0.403  0.00  0.00    +0.061 S 
ATOM      7  O   UNL     1       7.837  -0.297   1.825  0.00  0.00    -0.153 OA
ATOM      8  O   UNL     1       7.026   0.947  -0.211  0.00  0.00    -0.153 OA
BRANCH   6   9
ATOM      9  C   UNL     1       9.038  -0.667  -0.476  0.00  0.00    +0.106 A 
ATOM     10  C   UNL     1      10.266  -0.759   0.191  0.00  0.00    +0.030 A 
ATOM     11  C   UNL     1      11.429  -1.046  -0.537  0.00  0.00    +0.024 A 
ATOM     12  C   UNL     1      11.370  -1.280  -1.915  0.00  0.00    +0.025 A 
ATOM     13  C   UNL     1      10.155  -1.076  -2.576  0.00  0.00    +0.024 A 
ATOM     14  C   UNL     1       8.986  -0.788  -1.863  0.00  0.00    +0.030 A 
BRANCH  12  15
ATOM     15  N   UNL     1      12.544  -1.481  -2.651  0.00  0.00    -0.358 N 
ATOM     16  H   UNL     1      13.292  -1.921  -2.124  0.00  0.00    +0.142 HD
ATOM     17  H   UNL     1      12.389  -1.941  -3.544  0.00  0.00    +0.142 HD
ENDBRANCH  12  15
ENDBRANCH   6   9
ENDBRANCH   5   6
BRANCH   5  18
ATOM     18  C   UNL     1       6.894  -2.862   0.781  0.00  0.00    +0.112 C 
BRANCH  18  20
ATOM     19  C   UNL     1       6.474  -4.682  -1.022  0.00  0.00    +0.008 C 
ATOM     20  C   UNL     1       6.228  -4.209   0.407  0.00  0.00    -0.001 C 
ATOM     21  C   UNL     1       6.582  -5.317   1.408  0.00  0.00    +0.008 C 
ENDBRANCH  18  20
ENDBRANCH   5  18
ENDBRANCH   4   5
ENDBRANCH   1   4
BRANCH   1  22
ATOM     22  C   UNL     1       2.343  -1.811   0.290  0.00  0.00    +0.110 C 
BRANCH  22  23
ATOM     23  N   UNL     1       1.670  -0.999  -0.724  0.00  0.00    -0.275 N 
ATOM     24  H   UNL     1       1.611  -1.424  -1.642  0.00  0.00    +0.152 HD
ATOM     25  C   UNL     1       1.070   0.215  -0.686  0.00  0.00    +0.401 C 
ATOM     26  O   UNL     1       1.059   1.008   0.235  0.00  0.00    -0.226 OA
BRANCH  25  27
ATOM     27  O   UNL     1       0.452   0.364  -1.883  0.00  0.00    -0.444 OA
BRANCH  27  28
ATOM     28  C   UNL     1      -0.236   1.572  -2.239  0.00  0.00    +0.212 C 
ATOM     29  C   UNL     1      -1.029   1.278  -3.484  0.00  0.00    +0.090 C 
ATOM     30  C   UNL     1      -0.547   1.295  -4.900  0.00  0.00    +0.040 C 
ATOM     31  C   UNL     1      -1.894   1.531  -5.607  0.00  0.00    +0.163 C 
ATOM     32  O   UNL     1      -2.787   2.162  -4.644  0.00  0.00    -0.351 OA
ATOM     33  C   UNL     1      -1.976   2.435  -3.506  0.00  0.00    +0.257 C 
ATOM     34  O   UNL     1      -2.526   2.407  -2.198  0.00  0.00    -0.347 OA
ATOM     35  C   UNL     1      -1.405   2.027  -1.329  0.00  0.00    +0.208 C 
ENDBRANCH  27  28
ENDBRANCH  25  27
ENDBRANCH  22  23
BRANCH  22  36
ATOM     36  C   UNL     1       1.925  -1.644   1.769  0.00  0.00    +0.060 C 
BRANCH  36  37
ATOM     37  C   UNL     1       2.310  -2.827   2.662  0.00  0.00    -0.046 A 
ATOM     38  C   UNL     1       1.870  -4.135   2.389  0.00  0.00    +0.004 A 
ATOM     39  C   UNL     1       2.248  -5.214   3.203  0.00  0.00    +0.000 A 
ATOM     40  C   UNL     1       3.056  -5.003   4.314  0.00  0.00    +0.000 A 
ATOM     41  C   UNL     1       3.469  -3.704   4.613  0.00  0.00    +0.000 A 
ATOM     42  C   UNL     1       3.107  -2.630   3.798  0.00  0.00    +0.004 A 
ENDBRANCH  36  37
ENDBRANCH  22  36
ENDBRANCH   1  22
TORSDOF 14
