REMARK  Name = 
REMARK  16 active torsions:
REMARK  status: ('A' for Active; 'I' for Inactive)
REMARK    1  A    between atoms: C_1  and  C_2
REMARK    2  A    between atoms: C_3  and  C_9
REMARK    3  A    between atoms: C_7  and  O_8
REMARK    4  A    between atoms: N_11  and  C_12
REMARK    5  A    between atoms: C_12  and  C_13
REMARK    6  A    between atoms: C_12  and  C_21
REMARK    7  A    between atoms: C_13  and  S_14
REMARK    8  A    between atoms: S_14  and  C_15
REMARK    9  A    between atoms: C_21  and  C_22
REMARK   10  A    between atoms: C_21  and  O_42
REMARK   11  A    between atoms: C_22  and  N_23
REMARK   12  A    between atoms: C_34  and  C_35
REMARK   13  A    between atoms: N_37  and  C_38
REMARK   14  A    between atoms: C_38  and  C_39
REMARK   15  A    between atoms: C_38  and  C_40
REMARK   16  A    between atoms: C_38  and  C_41
REMARK                            x       y       z     vdW  Elec       q    Type
REMARK                         _______ _______ _______ _____ _____    ______ ____
ROOT
ATOM      1  C   UNL     1      -1.132   5.179   0.757  0.00  0.00    +0.113 C 
ENDROOT
BRANCH   1   3
ATOM      2  C   UNL     1      -1.725   6.175   3.048  0.00  0.00    +0.245 C 
ATOM      3  N   UNL     1      -0.783   5.784   2.096  0.00  0.00    -0.305 N 
ATOM      4  H   UNL     1       0.194   5.805   2.343  0.00  0.00    +0.149 HD
ATOM      5  O   UNL     1      -2.925   5.998   2.837  0.00  0.00    -0.270 OA
BRANCH   2  12
ATOM      6  C   UNL     1       1.080   7.559   3.785  0.00  0.00    +0.048 C 
ATOM      7  C   UNL     1      -0.041   7.311   4.754  0.00  0.00    +0.003 A 
ATOM      8  C   UNL     1       0.192   7.671   6.108  0.00  0.00    +0.120 A 
ATOM      9  C   UNL     1      -0.794   7.623   7.083  0.00  0.00    +0.046 A 
ATOM     10  C   UNL     1      -2.062   7.193   6.718  0.00  0.00    +0.004 A 
ATOM     11  C   UNL     1      -2.299   6.759   5.404  0.00  0.00    +0.013 A 
ATOM     12  C   UNL     1      -1.293   6.762   4.402  0.00  0.00    +0.043 A 
BRANCH   8  13
ATOM     13  O   UNL     1       1.455   8.083   6.469  0.00  0.00    -0.506 OA
ATOM     14  H   UNL     1       1.534   8.044   7.438  0.00  0.00    +0.292 HD
ENDBRANCH   8  13
ENDBRANCH   2  12
ENDBRANCH   1   3
BRANCH   1  15
ATOM     15  C   UNL     1      -0.740   3.653   0.673  0.00  0.00    +0.149 C 
BRANCH  15  16
ATOM     16  O   UNL     1      -0.929   3.131  -0.646  0.00  0.00    -0.389 OA
ATOM     17  H   UNL     1      -1.883   2.974  -0.770  0.00  0.00    +0.210 HD
ENDBRANCH  15  16
BRANCH  15  18
ATOM     18  C   UNL     1      -1.503   2.712   1.633  0.00  0.00    +0.118 C 
BRANCH  18  19
ATOM     19  N   UNL     1      -1.317   1.283   1.275  0.00  0.00    -0.289 NA
ATOM     20  C   UNL     1      -2.365   0.388   1.798  0.00  0.00    +0.143 C 
ATOM     21  C   UNL     1      -2.246  -1.029   1.236  0.00  0.00    +0.032 C 
ATOM     22  C   UNL     1      -0.851  -1.624   1.395  0.00  0.00    -0.005 C 
ATOM     23  C   UNL     1       0.198  -0.665   0.816  0.00  0.00    +0.006 C 
ATOM     24  C   UNL     1       1.600  -1.282   0.992  0.00  0.00    +0.005 C 
ATOM     25  C   UNL     1       1.684  -2.684   0.367  0.00  0.00    +0.000 C 
ATOM     26  C   UNL     1       0.590  -3.622   0.873  0.00  0.00    +0.000 C 
ATOM     27  C   UNL     1      -0.789  -2.997   0.719  0.00  0.00    +0.004 C 
ATOM     28  C   UNL     1       0.051   0.750   1.436  0.00  0.00    +0.089 C 
BRANCH  20  29
ATOM     29  C   UNL     1      -2.428   0.384   3.339  0.00  0.00    +0.231 C 
ATOM     30  N   UNL     1      -3.302   1.344   3.824  0.00  0.00    -0.309 N 
ATOM     31  H   UNL     1      -3.752   1.955   3.151  0.00  0.00    +0.149 HD
ATOM     32  O   UNL     1      -1.781  -0.368   4.060  0.00  0.00    -0.274 OA
BRANCH  30  33
ATOM     33  C   UNL     1      -3.609   1.561   5.238  0.00  0.00    +0.026 C 
ATOM     34  C   UNL     1      -4.275   0.310   5.827  0.00  0.00    +0.031 C 
ATOM     35  C   UNL     1      -4.604   2.732   5.308  0.00  0.00    +0.031 C 
ATOM     36  C   UNL     1      -2.345   1.928   6.025  0.00  0.00    +0.031 C 
ENDBRANCH  30  33
ENDBRANCH  20  29
ENDBRANCH  18  19
ENDBRANCH  15  18
ENDBRANCH   1  15
BRANCH   1  37
ATOM     37  C   UNL     1      -0.438   5.973  -0.414  0.00  0.00    +0.099 C 
BRANCH  37  38
ATOM     38  S   UNL     1      -1.068   5.537  -2.105  0.00  0.00    -0.123 S 
BRANCH  38  39
ATOM     39  C   UNL     1       0.233   6.100  -3.185  0.00  0.00    +0.008 A 
ATOM     40  C   UNL     1       0.179   7.432  -3.611  0.00  0.00    +0.015 A 
ATOM     41  C   UNL     1       1.043   7.907  -4.602  0.00  0.00    +0.001 A 
ATOM     42  C   UNL     1       1.978   7.049  -5.177  0.00  0.00    +0.000 A 
ATOM     43  C   UNL     1       2.048   5.717  -4.765  0.00  0.00    +0.001 A 
ATOM     44  C   UNL     1       1.176   5.242  -3.768  0.00  0.00    +0.015 A 
ENDBRANCH  38  39
ENDBRANCH  37  38
ENDBRANCH   1  37
TORSDOF 12
