REMARK  Name = 
REMARK  21 active torsions:
REMARK  status: ('A' for Active; 'I' for Inactive)
REMARK    1  A    between atoms: C_1  and  C_2
REMARK    2  A    between atoms: C_2  and  C_3
REMARK    3  A    between atoms: C_2  and  C_4
REMARK    4  A    between atoms: C_2  and  C_5
REMARK    5  A    between atoms: C_5  and  C_6
REMARK    6  A    between atoms: C_5  and  N_44
REMARK    7  A    between atoms: C_10  and  O_30
REMARK    8  A    between atoms: C_12  and  C_13
REMARK    9  A    between atoms: N_15  and  C_16
REMARK   10  A    between atoms: C_16  and  C_21
REMARK   11  A    between atoms: C_18  and  C_19
REMARK   12  A    between atoms: N_23  and  S_24
REMARK   13  A    between atoms: S_24  and  C_27
REMARK   14  A    between atoms: O_30  and  C_31
REMARK   15  A    between atoms: C_34  and  O_42
REMARK   16  A    between atoms: O_42  and  C_43
REMARK   17  A    between atoms: C_45  and  O_47
REMARK   18  A    between atoms: O_47  and  C_48
REMARK   19  A    between atoms: C_48  and  C_49
REMARK   20  A    between atoms: C_48  and  C_50
REMARK   21  A    between atoms: C_48  and  C_51
REMARK                            x       y       z     vdW  Elec       q    Type
REMARK                         _______ _______ _______ _____ _____    ______ ____
ROOT
ATOM      1  C   UNL     1       5.502   8.293  -2.036  0.00  0.00    +0.237 C 
ATOM      2  N   UNL     1       5.163   7.866  -0.708  0.00  0.00    -0.285 N 
ATOM      3  C   UNL     1       5.205   6.492  -0.145  0.00  0.00    +0.166 C 
ATOM      4  C   UNL     1       6.337   6.493   0.905  0.00  0.00    +0.078 C 
ATOM      5  C   UNL     1       6.773   7.965   1.003  0.00  0.00    +0.195 C 
ATOM      6  C   UNL     1       5.566   8.721   0.427  0.00  0.00    +0.153 C 
ATOM      7  O   UNL     1       6.038   9.389  -2.223  0.00  0.00    -0.274 OA
ENDROOT
BRANCH   3   8
ATOM      8  C   UNL     1       4.931   5.227  -0.973  0.00  0.00    +0.234 C 
ATOM      9  N   UNL     1       5.970   4.340  -1.170  0.00  0.00    -0.299 N 
ATOM     10  H   UNL     1       6.866   4.561  -0.754  0.00  0.00    +0.150 HD
ATOM     11  O   UNL     1       3.831   5.119  -1.502  0.00  0.00    -0.274 OA
BRANCH   9  12
ATOM     12  C   UNL     1       6.038   3.408  -2.304  0.00  0.00    +0.119 C 
ATOM     13  C   UNL     1       5.464   1.991  -2.279  0.00  0.00    +0.046 C 
ATOM     14  C   UNL     1       4.790   3.046  -3.097  0.00  0.00    +0.046 C 
BRANCH  12  15
ATOM     15  C   UNL     1       7.337   3.515  -3.082  0.00  0.00    +0.256 C 
ATOM     16  N   UNL     1       8.396   2.789  -2.520  0.00  0.00    -0.188 N 
ATOM     17  H   UNL     1       8.236   2.060  -1.841  0.00  0.00    +0.176 HD
ATOM     18  O   UNL     1       7.435   4.234  -4.059  0.00  0.00    -0.272 OA
BRANCH  16  19
ATOM     19  S   UNL     1       9.891   2.679  -3.266  0.00  0.00    +0.048 S 
ATOM     20  O   UNL     1       9.764   1.683  -4.305  0.00  0.00    -0.155 OA
ATOM     21  O   UNL     1      10.841   2.511  -2.186  0.00  0.00    -0.155 OA
BRANCH  19  22
ATOM     22  C   UNL     1      10.211   4.268  -4.074  0.00  0.00    +0.151 C 
ATOM     23  C   UNL     1      11.508   4.961  -3.781  0.00  0.00    +0.030 C 
ATOM     24  C   UNL     1      10.253   5.412  -3.087  0.00  0.00    +0.030 C 
ENDBRANCH  19  22
ENDBRANCH  16  19
ENDBRANCH  12  15
BRANCH  13  25
ATOM     25  C   UNL     1       4.747   1.447  -1.129  0.00  0.00    -0.028 C 
ATOM     26  C   UNL     1       5.225   1.285   0.110  0.00  0.00    +0.004 C 
ENDBRANCH  13  25
ENDBRANCH   9  12
ENDBRANCH   3   8
BRANCH   1  27
ATOM     27  C   UNL     1       5.074   7.394  -3.277  0.00  0.00    +0.168 C 
BRANCH  27  29
ATOM     28  C   UNL     1       7.239   7.423  -4.751  0.00  0.00    +0.013 C 
ATOM     29  C   UNL     1       5.695   7.455  -4.750  0.00  0.00    -0.011 C 
ATOM     30  C   UNL     1       5.228   6.172  -5.512  0.00  0.00    +0.013 C 
ATOM     31  C   UNL     1       5.265   8.629  -5.647  0.00  0.00    +0.013 C 
ENDBRANCH  27  29
BRANCH  27  32
ATOM     32  N   UNL     1       3.611   7.315  -3.310  0.00  0.00    -0.269 N 
ATOM     33  H   UNL     1       3.202   6.390  -3.260  0.00  0.00    +0.153 HD
ATOM     34  C   UNL     1       2.710   8.293  -3.614  0.00  0.00    +0.401 C 
ATOM     35  O   UNL     1       1.540   8.013  -3.839  0.00  0.00    -0.226 OA
BRANCH  34  36
ATOM     36  O   UNL     1       3.232   9.541  -3.609  0.00  0.00    -0.445 OA
BRANCH  36  37
ATOM     37  C   UNL     1       2.392  10.711  -3.819  0.00  0.00    +0.107 C 
ATOM     38  C   UNL     1       1.793  10.749  -5.231  0.00  0.00    +0.055 C 
ATOM     39  C   UNL     1       3.342  11.911  -3.665  0.00  0.00    +0.055 C 
ATOM     40  C   UNL     1       1.293  10.827  -2.754  0.00  0.00    +0.055 C 
ENDBRANCH  36  37
ENDBRANCH  34  36
ENDBRANCH  27  32
ENDBRANCH   1  27
BRANCH   5  41
ATOM     41  O   UNL     1       7.809   8.280   0.083  0.00  0.00    -0.471 OA
BRANCH  41  42
ATOM     42  C   UNL     1       9.079   7.854   0.344  0.00  0.00    +0.223 A 
ATOM     43  C   UNL     1      10.050   8.286  -0.566  0.00  0.00    +0.049 A 
ATOM     44  C   UNL     1       9.750   9.189  -1.614  0.00  0.00    +0.034 A 
ATOM     45  C   UNL     1      10.730   9.572  -2.517  0.00  0.00    +0.042 A 
ATOM     46 CL   UNL     1      10.340  10.661  -3.789  0.00  0.00    -0.084 Cl
ATOM     47  C   UNL     1      12.018   9.070  -2.392  0.00  0.00    +0.021 A 
ATOM     48  C   UNL     1      12.326   8.182  -1.354  0.00  0.00    +0.014 A 
ATOM     49  C   UNL     1      11.350   7.769  -0.417  0.00  0.00    +0.030 A 
ATOM     50  C   UNL     1      11.596   6.861   0.644  0.00  0.00    +0.146 A 
ATOM     51  C   UNL     1      10.534   6.520   1.482  0.00  0.00    +0.160 A 
ATOM     52  N   UNL     1       9.276   6.990   1.356  0.00  0.00    -0.217 NA
BRANCH  50  53
ATOM     53  O   UNL     1      12.870   6.368   0.771  0.00  0.00    -0.493 OA
ATOM     54  C   UNL     1      13.096   5.474   1.858  0.00  0.00    +0.277 C 
ENDBRANCH  50  53
ENDBRANCH  41  42
ENDBRANCH   5  41
TORSDOF 14
