REMARK  Name = 
REMARK  3 active torsions:
REMARK  status: ('A' for Active; 'I' for Inactive)
REMARK    1  A    between atoms: N_18  and  N_21
REMARK    2  A    between atoms: C_22  and  C_24
REMARK    3  A    between atoms: C_27  and  C_30
REMARK                            x       y       z     vdW  Elec       q    Type
REMARK                         _______ _______ _______ _____ _____    ______ ____
ROOT
ATOM      1  C   UNL     1       0.000   0.000   0.000  0.00  0.00    +0.009 C 
ATOM      2  C   UNL     1      -0.000  -0.000  -0.000  0.00  0.00    +0.001 C 
ATOM      3  C   UNL     1      -0.000  -0.000  -0.000  0.00  0.00    +0.027 C 
ATOM      4  C   UNL     1      -0.000  -0.000  -0.000  0.00  0.00    +0.097 C 
ATOM      5  C   UNL     1      -0.000  -0.000  -0.000  0.00  0.00    +0.243 C 
ATOM      6  N   UNL     1      -0.000  -0.000  -0.000  0.00  0.00    -0.155 N 
ATOM      7  C   UNL     1      -0.000  -0.000  -0.000  0.00  0.00    +0.243 C 
ATOM      8  O   UNL     1      -0.000  -0.000  -0.000  0.00  0.00    -0.273 OA
ATOM      9  O   UNL     1      -0.000  -0.000  -0.000  0.00  0.00    -0.273 OA
ATOM     10  C   UNL     1      -0.000  -0.000  -0.000  0.00  0.00    +0.097 C 
ATOM     11  C   UNL     1      -0.000  -0.000  -0.000  0.00  0.00    +0.027 C 
ATOM     12  C   UNL     1      -0.000  -0.000  -0.000  0.00  0.00    -0.026 C 
ATOM     13  C   UNL     1      -0.000  -0.000  -0.000  0.00  0.00    -0.026 C 
ATOM     14  C   UNL     1      -0.000  -0.000  -0.000  0.00  0.00    +0.001 C 
ENDROOT
BRANCH   6  15
ATOM     15  N   UNL     1      -0.000  -0.000  -0.000  0.00  0.00    -0.221 N 
ATOM     16  H   UNL     1      -0.000  -0.000  -0.000  0.00  0.00    +0.174 HD
ATOM     17  C   UNL     1      -0.000  -0.000  -0.000  0.00  0.00    +0.261 C 
ATOM     18  O   UNL     1      -0.000  -0.000  -0.000  0.00  0.00    -0.269 OA
BRANCH  17  19
ATOM     19  C   UNL     1      -0.000  -0.000  -0.000  0.00  0.00    +0.038 A 
ATOM     20  C   UNL     1      -0.000  -0.000  -0.000  0.00  0.00    +0.013 A 
ATOM     21  C   UNL     1      -0.000  -0.000  -0.000  0.00  0.00    +0.013 A 
ATOM     22  C   UNL     1      -0.000  -0.000  -0.000  0.00  0.00    +0.055 A 
ATOM     23  C   UNL     1      -0.000  -0.000  -0.000  0.00  0.00    +0.013 A 
ATOM     24  C   UNL     1      -0.000  -0.000  -0.000  0.00  0.00    +0.013 A 
BRANCH  22  25
ATOM     25  C   UNL     1      -0.000  -0.000  -0.000  0.00  0.00    +0.417 C 
ATOM     26  F   UNL     1      -0.000  -0.000  -0.000  0.00  0.00    -0.166 F 
ATOM     27  F   UNL     1      -0.000  -0.000  -0.000  0.00  0.00    -0.166 F 
ATOM     28  F   UNL     1      -0.000  -0.000  -0.000  0.00  0.00    -0.166 F 
ENDBRANCH  22  25
ENDBRANCH  17  19
ENDBRANCH   6  15
TORSDOF 3
