REMARK  Name = 
REMARK  21 active torsions:
REMARK  status: ('A' for Active; 'I' for Inactive)
REMARK    1  A    between atoms: C_1  and  C_2
REMARK    2  A    between atoms: C_2  and  C_3
REMARK    3  A    between atoms: C_2  and  C_4
REMARK    4  A    between atoms: C_2  and  C_5
REMARK    5  A    between atoms: C_5  and  C_6
REMARK    6  A    between atoms: C_5  and  N_47
REMARK    7  A    between atoms: C_10  and  O_33
REMARK    8  A    between atoms: C_13  and  C_15
REMARK    9  A    between atoms: N_17  and  C_18
REMARK   10  A    between atoms: C_18  and  C_24
REMARK   11  A    between atoms: C_20  and  C_22
REMARK   12  A    between atoms: N_26  and  S_27
REMARK   13  A    between atoms: S_27  and  C_30
REMARK   14  A    between atoms: O_33  and  C_34
REMARK   15  A    between atoms: C_37  and  O_45
REMARK   16  A    between atoms: O_45  and  C_46
REMARK   17  A    between atoms: C_48  and  O_50
REMARK   18  A    between atoms: O_50  and  C_51
REMARK   19  A    between atoms: C_51  and  C_52
REMARK   20  A    between atoms: C_51  and  C_53
REMARK   21  A    between atoms: C_51  and  C_54
REMARK                            x       y       z     vdW  Elec       q    Type
REMARK                         _______ _______ _______ _____ _____    ______ ____
ROOT
ATOM      1  C   UNL     1      -4.870   3.777   0.738  0.00  0.00    +0.237 C 
ATOM      2  N   UNL     1      -3.786   4.591   0.443  0.00  0.00    -0.285 N 
ATOM      3  C   UNL     1      -2.573   4.275  -0.313  0.00  0.00    +0.166 C 
ATOM      4  C   UNL     1      -2.250   5.564  -1.102  0.00  0.00    +0.078 C 
ATOM      5  C   UNL     1      -3.281   6.619  -0.669  0.00  0.00    +0.195 C 
ATOM      6  C   UNL     1      -3.896   6.036   0.599  0.00  0.00    +0.153 C 
ATOM      7  O   UNL     1      -5.955   4.274   1.052  0.00  0.00    -0.274 OA
ENDROOT
BRANCH   3   8
ATOM      8  C   UNL     1      -1.347   3.890   0.551  0.00  0.00    +0.234 C 
ATOM      9  N   UNL     1      -1.489   4.057   1.906  0.00  0.00    -0.299 N 
ATOM     10  H   UNL     1      -2.439   4.155   2.273  0.00  0.00    +0.150 HD
ATOM     11  O   UNL     1      -0.297   3.487   0.044  0.00  0.00    -0.274 OA
BRANCH   9  12
ATOM     12  C   UNL     1      -0.461   3.764   2.898  0.00  0.00    +0.119 C 
ATOM     13  C   UNL     1       0.501   4.857   3.378  0.00  0.00    +0.046 C 
ATOM     14  C   UNL     1      -0.650   4.467   4.252  0.00  0.00    +0.046 C 
BRANCH  12  15
ATOM     15  C   UNL     1       0.024   2.316   3.032  0.00  0.00    +0.256 C 
ATOM     16  N   UNL     1       0.024   1.518   1.885  0.00  0.00    -0.188 N 
ATOM     17  H   UNL     1       0.054   1.987   0.975  0.00  0.00    +0.176 HD
ATOM     18  O   UNL     1       0.372   1.883   4.125  0.00  0.00    -0.272 OA
BRANCH  16  19
ATOM     19  S   UNL     1       0.584  -0.046   1.863  0.00  0.00    +0.048 S 
ATOM     20  O   UNL     1       2.028   0.011   1.799  0.00  0.00    -0.155 OA
ATOM     21  O   UNL     1      -0.175  -0.725   0.833  0.00  0.00    -0.155 OA
BRANCH  19  22
ATOM     22  C   UNL     1       0.174  -0.826   3.457  0.00  0.00    +0.151 C 
ATOM     23  C   UNL     1      -0.449  -2.191   3.402  0.00  0.00    +0.030 C 
ATOM     24  C   UNL     1      -1.307  -0.989   3.685  0.00  0.00    +0.030 C 
ENDBRANCH  19  22
ENDBRANCH  16  19
ENDBRANCH  12  15
BRANCH  13  25
ATOM     25  C   UNL     1       0.468   6.232   2.867  0.00  0.00    -0.028 C 
ATOM     26  C   UNL     1       1.007   6.661   1.722  0.00  0.00    +0.004 C 
ENDBRANCH  13  25
ENDBRANCH   9  12
ENDBRANCH   3   8
BRANCH   1  27
ATOM     27  C   UNL     1      -4.671   2.220   0.835  0.00  0.00    +0.168 C 
BRANCH  27  29
ATOM     28  C   UNL     1      -5.011   1.755  -1.642  0.00  0.00    +0.013 C 
ATOM     29  C   UNL     1      -5.483   1.397  -0.224  0.00  0.00    -0.011 C 
ATOM     30  C   UNL     1      -5.240  -0.121  -0.027  0.00  0.00    +0.013 C 
ATOM     31  C   UNL     1      -7.006   1.633  -0.134  0.00  0.00    +0.013 C 
ENDBRANCH  27  29
BRANCH  27  32
ATOM     32  N   UNL     1      -5.073   1.834   2.194  0.00  0.00    -0.269 N 
ATOM     33  H   UNL     1      -5.704   1.063   2.357  0.00  0.00    +0.153 HD
ATOM     34  C   UNL     1      -4.493   2.346   3.307  0.00  0.00    +0.401 C 
ATOM     35  O   UNL     1      -3.649   3.229   3.290  0.00  0.00    -0.226 OA
BRANCH  34  36
ATOM     36  O   UNL     1      -4.982   1.718   4.402  0.00  0.00    -0.445 OA
BRANCH  36  37
ATOM     37  C   UNL     1      -4.512   2.107   5.718  0.00  0.00    +0.107 C 
ATOM     38  C   UNL     1      -2.999   1.905   5.840  0.00  0.00    +0.055 C 
ATOM     39  C   UNL     1      -5.194   1.155   6.714  0.00  0.00    +0.055 C 
ATOM     40  C   UNL     1      -4.939   3.543   6.043  0.00  0.00    +0.055 C 
ENDBRANCH  36  37
ENDBRANCH  34  36
ENDBRANCH  27  32
ENDBRANCH   1  27
BRANCH   5  41
ATOM     41  O   UNL     1      -4.265   6.797  -1.706  0.00  0.00    -0.471 OA
BRANCH  41  42
ATOM     42  C   UNL     1      -4.894   8.033  -1.605  0.00  0.00    +0.223 A 
ATOM     43  C   UNL     1      -5.380   8.643  -2.774  0.00  0.00    +0.049 A 
ATOM     44  C   UNL     1      -5.345   8.032  -4.048  0.00  0.00    +0.034 A 
ATOM     45  C   UNL     1      -5.765   8.727  -5.182  0.00  0.00    +0.042 A 
ATOM     46 CL   UNL     1      -5.683   7.976  -6.728  0.00  0.00    -0.084 Cl
ATOM     47  C   UNL     1      -6.234  10.029  -5.074  0.00  0.00    +0.021 A 
ATOM     48  C   UNL     1      -6.308  10.634  -3.818  0.00  0.00    +0.014 A 
ATOM     49  C   UNL     1      -5.893   9.959  -2.649  0.00  0.00    +0.030 A 
ATOM     50  C   UNL     1      -5.953  10.561  -1.372  0.00  0.00    +0.146 A 
ATOM     51  C   UNL     1      -5.492   9.828  -0.289  0.00  0.00    +0.160 A 
ATOM     52  N   UNL     1      -4.954   8.595  -0.377  0.00  0.00    -0.217 NA
BRANCH  50  53
ATOM     53  O   UNL     1      -6.458  11.834  -1.298  0.00  0.00    -0.493 OA
ATOM     54  C   UNL     1      -6.482  12.449  -0.014  0.00  0.00    +0.277 C 
ENDBRANCH  50  53
ENDBRANCH  41  42
ENDBRANCH   5  41
TORSDOF 14
