REMARK  Name = 
REMARK  21 active torsions:
REMARK  status: ('A' for Active; 'I' for Inactive)
REMARK    1  A    between atoms: C_1  and  C_2
REMARK    2  A    between atoms: C_2  and  C_3
REMARK    3  A    between atoms: C_2  and  C_4
REMARK    4  A    between atoms: C_2  and  C_5
REMARK    5  A    between atoms: C_5  and  C_6
REMARK    6  A    between atoms: C_5  and  N_47
REMARK    7  A    between atoms: C_10  and  O_33
REMARK    8  A    between atoms: C_13  and  C_15
REMARK    9  A    between atoms: N_17  and  C_18
REMARK   10  A    between atoms: C_18  and  C_24
REMARK   11  A    between atoms: C_20  and  C_22
REMARK   12  A    between atoms: N_26  and  S_27
REMARK   13  A    between atoms: S_27  and  C_30
REMARK   14  A    between atoms: O_33  and  C_34
REMARK   15  A    between atoms: C_37  and  O_45
REMARK   16  A    between atoms: O_45  and  C_46
REMARK   17  A    between atoms: C_48  and  O_50
REMARK   18  A    between atoms: O_50  and  C_51
REMARK   19  A    between atoms: C_51  and  C_52
REMARK   20  A    between atoms: C_51  and  C_53
REMARK   21  A    between atoms: C_51  and  C_54
REMARK                            x       y       z     vdW  Elec       q    Type
REMARK                         _______ _______ _______ _____ _____    ______ ____
ROOT
ATOM      1  C   UNL     1      -5.721   0.364   4.277  0.00  0.00    +0.237 C 
ATOM      2  N   UNL     1      -5.312   1.681   4.148  0.00  0.00    -0.285 N 
ATOM      3  C   UNL     1      -4.284   2.288   3.293  0.00  0.00    +0.166 C 
ATOM      4  C   UNL     1      -4.687   3.772   3.179  0.00  0.00    +0.078 C 
ATOM      5  C   UNL     1      -6.075   3.881   3.827  0.00  0.00    +0.195 C 
ATOM      6  C   UNL     1      -6.041   2.739   4.840  0.00  0.00    +0.153 C 
ATOM      7  O   UNL     1      -6.715   0.090   4.966  0.00  0.00    -0.274 OA
ENDROOT
BRANCH   3   8
ATOM      8  C   UNL     1      -2.846   2.199   3.841  0.00  0.00    +0.234 C 
ATOM      9  N   UNL     1      -1.883   2.790   3.034  0.00  0.00    -0.299 N 
ATOM     10  H   UNL     1      -2.159   3.201   2.149  0.00  0.00    +0.150 HD
ATOM     11  O   UNL     1      -2.567   1.679   4.918  0.00  0.00    -0.274 OA
BRANCH   9  12
ATOM     12  C   UNL     1      -0.438   2.688   3.286  0.00  0.00    +0.119 C 
ATOM     13  C   UNL     1       0.338   1.460   2.805  0.00  0.00    +0.046 C 
ATOM     14  C   UNL     1       0.452   2.739   2.036  0.00  0.00    +0.046 C 
BRANCH  12  15
ATOM     15  C   UNL     1       0.127   3.384   4.529  0.00  0.00    +0.256 C 
ATOM     16  N   UNL     1      -0.676   3.356   5.669  0.00  0.00    -0.188 N 
ATOM     17  H   UNL     1      -1.438   2.670   5.704  0.00  0.00    +0.176 HD
ATOM     18  O   UNL     1       1.216   3.942   4.487  0.00  0.00    -0.272 OA
BRANCH  16  19
ATOM     19  S   UNL     1      -0.217   3.891   7.164  0.00  0.00    +0.048 S 
ATOM     20  O   UNL     1       0.577   2.845   7.772  0.00  0.00    -0.155 OA
ATOM     21  O   UNL     1      -1.427   4.362   7.809  0.00  0.00    -0.155 OA
BRANCH  19  22
ATOM     22  C   UNL     1       0.895   5.311   6.958  0.00  0.00    +0.151 C 
ATOM     23  C   UNL     1       0.579   6.529   7.780  0.00  0.00    +0.030 C 
ATOM     24  C   UNL     1       0.245   6.509   6.313  0.00  0.00    +0.030 C 
ENDBRANCH  19  22
ENDBRANCH  16  19
ENDBRANCH  12  15
BRANCH  13  25
ATOM     25  C   UNL     1      -0.357   0.330   2.184  0.00  0.00    -0.028 C 
ATOM     26  C   UNL     1      -1.020  -0.614   2.861  0.00  0.00    +0.004 C 
ENDBRANCH  13  25
ENDBRANCH   9  12
ENDBRANCH   3   8
BRANCH   1  27
ATOM     27  C   UNL     1      -4.968  -0.798   3.558  0.00  0.00    +0.168 C 
BRANCH  27  29
ATOM     28  C   UNL     1      -5.345  -0.078   1.100  0.00  0.00    +0.013 C 
ATOM     29  C   UNL     1      -5.504  -1.200   2.135  0.00  0.00    -0.011 C 
ATOM     30  C   UNL     1      -4.686  -2.404   1.603  0.00  0.00    +0.013 C 
ATOM     31  C   UNL     1      -6.992  -1.606   2.160  0.00  0.00    +0.013 C 
ENDBRANCH  27  29
BRANCH  27  32
ATOM     32  N   UNL     1      -5.076  -1.969   4.454  0.00  0.00    -0.269 N 
ATOM     33  H   UNL     1      -5.996  -2.242   4.778  0.00  0.00    +0.153 HD
ATOM     34  C   UNL     1      -4.022  -2.565   5.073  0.00  0.00    +0.401 C 
ATOM     35  O   UNL     1      -2.864  -2.204   4.947  0.00  0.00    -0.226 OA
BRANCH  34  36
ATOM     36  O   UNL     1      -4.446  -3.631   5.802  0.00  0.00    -0.445 OA
BRANCH  36  37
ATOM     37  C   UNL     1      -3.478  -4.457   6.512  0.00  0.00    +0.107 C 
ATOM     38  C   UNL     1      -2.429  -5.060   5.566  0.00  0.00    +0.055 C 
ATOM     39  C   UNL     1      -4.278  -5.624   7.121  0.00  0.00    +0.055 C 
ATOM     40  C   UNL     1      -2.825  -3.672   7.655  0.00  0.00    +0.055 C 
ENDBRANCH  36  37
ENDBRANCH  34  36
ENDBRANCH  27  32
ENDBRANCH   1  27
BRANCH   5  41
ATOM     41  O   UNL     1      -7.141   3.607   2.902  0.00  0.00    -0.471 OA
BRANCH  41  42
ATOM     42  C   UNL     1      -7.367   4.591   1.958  0.00  0.00    +0.223 A 
ATOM     43  C   UNL     1      -8.333   4.334   0.969  0.00  0.00    +0.049 A 
ATOM     44  C   UNL     1      -9.180   3.201   0.976  0.00  0.00    +0.034 A 
ATOM     45  C   UNL     1     -10.088   2.982  -0.058  0.00  0.00    +0.042 A 
ATOM     46 CL   UNL     1     -11.099   1.591  -0.035  0.00  0.00    -0.084 Cl
ATOM     47  C   UNL     1     -10.177   3.879  -1.114  0.00  0.00    +0.021 A 
ATOM     48  C   UNL     1      -9.358   5.010  -1.129  0.00  0.00    +0.014 A 
ATOM     49  C   UNL     1      -8.429   5.264  -0.094  0.00  0.00    +0.030 A 
ATOM     50  C   UNL     1      -7.586   6.397  -0.097  0.00  0.00    +0.146 A 
ATOM     51  C   UNL     1      -6.705   6.555   0.964  0.00  0.00    +0.160 A 
ATOM     52  N   UNL     1      -6.574   5.684   1.985  0.00  0.00    -0.217 NA
BRANCH  50  53
ATOM     53  O   UNL     1      -7.697   7.256  -1.160  0.00  0.00    -0.493 OA
ATOM     54  C   UNL     1      -6.805   8.365  -1.194  0.00  0.00    +0.277 C 
ENDBRANCH  50  53
ENDBRANCH  41  42
ENDBRANCH   5  41
TORSDOF 14
