REMARK  Name = 
REMARK  21 active torsions:
REMARK  status: ('A' for Active; 'I' for Inactive)
REMARK    1  A    between atoms: C_1  and  C_2
REMARK    2  A    between atoms: C_2  and  C_3
REMARK    3  A    between atoms: C_2  and  C_4
REMARK    4  A    between atoms: C_9  and  C_12
REMARK    5  A    between atoms: C_18  and  O_21
REMARK    6  A    between atoms: O_21  and  C_22
REMARK    7  A    between atoms: C_23  and  O_25
REMARK    8  A    between atoms: O_25  and  C_26
REMARK    9  A    between atoms: C_28  and  C_47
REMARK   10  A    between atoms: C_31  and  C_33
REMARK   11  A    between atoms: C_33  and  C_34
REMARK   12  A    between atoms: C_33  and  N_38
REMARK   13  A    between atoms: C_34  and  C_35
REMARK   14  A    between atoms: C_34  and  C_36
REMARK   15  A    between atoms: C_34  and  C_37
REMARK   16  A    between atoms: C_39  and  O_41
REMARK   17  A    between atoms: O_41  and  C_42
REMARK   18  A    between atoms: N_49  and  C_50
REMARK   19  A    between atoms: C_50  and  C_55
REMARK   20  A    between atoms: C_52  and  C_53
REMARK   21  A    between atoms: C_55  and  O_57
REMARK                            x       y       z     vdW  Elec       q    Type
REMARK                         _______ _______ _______ _____ _____    ______ ____
ROOT
ATOM      1  C   UNL     1      13.749  11.025   0.281  0.00  0.00    +0.193 C 
ATOM      2  C   UNL     1      12.860  11.760  -0.756  0.00  0.00    +0.153 C 
ATOM      3  N   UNL     1      12.358  10.723  -1.662  0.00  0.00    -0.285 N 
ATOM      4  C   UNL     1      11.515  10.885  -2.755  0.00  0.00    +0.237 C 
ATOM      5  O   UNL     1      11.157   9.882  -3.380  0.00  0.00    -0.274 OA
ATOM      6  C   UNL     1      12.768   9.390  -1.176  0.00  0.00    +0.166 C 
ATOM      7  C   UNL     1      13.122   9.630   0.291  0.00  0.00    +0.078 C 
ENDROOT
BRANCH   6   8
ATOM      8  C   UNL     1      13.981   8.784  -1.928  0.00  0.00    +0.235 C 
ATOM      9  N   UNL     1      13.871   8.775  -3.294  0.00  0.00    -0.298 N 
ATOM     10  H   UNL     1      12.963   8.998  -3.707  0.00  0.00    +0.150 HD
ATOM     11  O   UNL     1      14.923   8.230  -1.363  0.00  0.00    -0.274 OA
BRANCH   9  12
ATOM     12  C   UNL     1      14.910   8.280  -4.177  0.00  0.00    +0.138 C 
ATOM     13  C   UNL     1      15.588   9.341  -5.047  0.00  0.00    +0.048 C 
ATOM     14  C   UNL     1      16.396   8.598  -4.027  0.00  0.00    +0.048 C 
BRANCH  12  15
ATOM     15  C   UNL     1      14.712   6.859  -4.640  0.00  0.00    +0.329 C 
ATOM     16  O   UNL     1      14.366   6.564  -5.771  0.00  0.00    -0.249 OA
BRANCH  15  17
ATOM     17  O   UNL     1      14.980   5.959  -3.659  0.00  0.00    -0.479 OA
ATOM     18  H   UNL     1      15.242   6.418  -2.828  0.00  0.00    +0.295 HD
ENDBRANCH  15  17
ENDBRANCH  12  15
BRANCH  13  19
ATOM     19  C   UNL     1      15.494  10.782  -4.744  0.00  0.00    -0.028 C 
ATOM     20  C   UNL     1      15.903  11.785  -5.530  0.00  0.00    +0.004 C 
ENDBRANCH  13  19
ENDBRANCH   9  12
ENDBRANCH   6   8
BRANCH   1  21
ATOM     21  O   UNL     1      13.623  11.630   1.565  0.00  0.00    -0.486 OA
BRANCH  21  24
ATOM     22  C   UNL     1      16.580  10.676   3.550  0.00  0.00    +0.094 A 
ATOM     23  C   UNL     1      15.771  10.797   2.422  0.00  0.00    +0.076 A 
ATOM     24  C   UNL     1      14.494  11.322   2.584  0.00  0.00    +0.132 A 
ATOM     25  C   UNL     1      14.036  11.616   3.891  0.00  0.00    +0.043 A 
ATOM     26  C   UNL     1      12.712  12.018   4.142  0.00  0.00    +0.017 A 
ATOM     27  C   UNL     1      12.244  12.199   5.441  0.00  0.00    +0.047 A 
ATOM     28  C   UNL     1      13.104  12.039   6.523  0.00  0.00    +0.136 A 
ATOM     29  C   UNL     1      14.447  11.711   6.276  0.00  0.00    +0.085 A 
ATOM     30 BR   UNL     1      15.665  11.569   7.754  0.00  0.00    -0.044 Br
ATOM     31  C   UNL     1      14.920  11.453   4.980  0.00  0.00    +0.093 A 
ATOM     32  N   UNL     1      16.179  11.026   4.790  0.00  0.00    -0.244 NA
BRANCH  22  39
ATOM     33  C   UNL     1      20.179   9.065   0.105  0.00  0.00    +0.221 C 
ATOM     34  N   UNL     1      20.546   8.936   1.429  0.00  0.00    -0.264 N 
ATOM     35  H   UNL     1      21.476   8.654   1.704  0.00  0.00    +0.157 HD
ATOM     36  C   UNL     1      19.688   9.348   2.409  0.00  0.00    +0.165 A 
ATOM     37  S   UNL     1      20.329   9.437   3.983  0.00  0.00    -0.060 S 
ATOM     38  C   UNL     1      18.832  10.101   4.518  0.00  0.00    +0.078 A 
ATOM     39  C   UNL     1      17.939  10.157   3.459  0.00  0.00    +0.098 A 
ATOM     40  N   UNL     1      18.438   9.691   2.265  0.00  0.00    -0.223 NA
ATOM     41  O   UNL     1      19.150   9.596  -0.309  0.00  0.00    -0.275 OA
BRANCH  33  43
ATOM     42  C   UNL     1      21.241   6.965  -0.740  0.00  0.00    +0.017 C 
ATOM     43  C   UNL     1      21.200   8.485  -0.865  0.00  0.00    +0.069 C 
ATOM     44  C   UNL     1      20.836   8.894  -2.294  0.00  0.00    +0.017 C 
ENDBRANCH  33  43
ENDBRANCH  22  39
BRANCH  28  45
ATOM     45  O   UNL     1      12.721  12.175   7.832  0.00  0.00    -0.494 OA
ATOM     46  C   UNL     1      11.326  12.227   8.099  0.00  0.00    +0.277 C 
ENDBRANCH  28  45
ENDBRANCH  21  24
ENDBRANCH   1  21
BRANCH   4  47
ATOM     47  C   UNL     1      11.045  12.331  -3.163  0.00  0.00    +0.168 C 
BRANCH  47  48
ATOM     48  N   UNL     1       9.966  12.791  -2.292  0.00  0.00    -0.269 N 
ATOM     49  H   UNL     1       9.058  12.345  -2.307  0.00  0.00    +0.153 HD
ATOM     50  C   UNL     1      10.040  13.987  -1.638  0.00  0.00    +0.401 C 
ATOM     51  O   UNL     1      11.060  14.672  -1.584  0.00  0.00    -0.226 OA
BRANCH  50  52
ATOM     52  O   UNL     1       8.846  14.341  -1.070  0.00  0.00    -0.447 OA
BRANCH  52  53
ATOM     53  C   UNL     1       8.854  15.612  -0.404  0.00  0.00    +0.178 C 
ATOM     54  C   UNL     1       7.655  15.760   0.540  0.00  0.00    +0.045 C 
ATOM     55  C   UNL     1       7.384  17.267   0.630  0.00  0.00    +0.004 C 
ATOM     56  C   UNL     1       8.277  17.922  -0.422  0.00  0.00    +0.004 C 
ATOM     57  C   UNL     1       8.653  16.786  -1.361  0.00  0.00    +0.045 C 
ENDBRANCH  52  53
ENDBRANCH  50  52
ENDBRANCH  47  48
BRANCH  47  58
ATOM     58  C   UNL     1      10.698  12.546  -4.693  0.00  0.00    -0.011 C 
ATOM     59  C   UNL     1      11.910  12.155  -5.565  0.00  0.00    +0.013 C 
ATOM     60  C   UNL     1      10.412  14.047  -4.961  0.00  0.00    +0.013 C 
ATOM     61  C   UNL     1       9.468  11.766  -5.201  0.00  0.00    +0.013 C 
ENDBRANCH  47  58
ENDBRANCH   4  47
TORSDOF 15
