REMARK  Name = 
REMARK  27 active torsions:
REMARK  status: ('A' for Active; 'I' for Inactive)
REMARK    1  A    between atoms: C_1  and  C_2
REMARK    2  A    between atoms: C_2  and  C_3
REMARK    3  A    between atoms: C_2  and  C_4
REMARK    4  A    between atoms: C_2  and  C_5
REMARK    5  A    between atoms: C_5  and  C_7
REMARK    6  A    between atoms: C_5  and  N_50
REMARK    7  A    between atoms: N_9  and  C_10
REMARK    8  A    between atoms: C_10  and  C_12
REMARK    9  A    between atoms: C_10  and  C_19
REMARK   10  A    between atoms: C_12  and  C_13
REMARK   11  A    between atoms: C_19  and  C_20
REMARK   12  A    between atoms: C_19  and  O_49
REMARK   13  A    between atoms: C_20  and  N_21
REMARK   14  A    between atoms: N_21  and  C_22
REMARK   15  A    between atoms: N_21  and  N_35
REMARK   16  A    between atoms: C_22  and  C_23
REMARK   17  A    between atoms: C_26  and  C_29
REMARK   18  A    between atoms: C_36  and  C_38
REMARK   19  A    between atoms: C_38  and  C_40
REMARK   20  A    between atoms: C_38  and  N_44
REMARK   21  A    between atoms: C_40  and  C_41
REMARK   22  A    between atoms: C_40  and  C_42
REMARK   23  A    between atoms: C_40  and  C_43
REMARK   24  A    between atoms: C_45  and  O_47
REMARK   25  A    between atoms: O_47  and  C_48
REMARK   26  A    between atoms: C_51  and  O_53
REMARK   27  A    between atoms: O_53  and  C_54
REMARK                            x       y       z     vdW  Elec       q    Type
REMARK                         _______ _______ _______ _____ _____    ______ ____
ROOT
ATOM      1  N   UNL     1      -1.434  -0.011   2.062  0.00  0.00    -0.220 NA
ENDROOT
BRANCH   1   2
ATOM      2  N   UNL     1      -1.548  -1.278   1.302  0.00  0.00    -0.246 N 
ATOM      3  H   UNL     1      -0.673  -1.707   1.006  0.00  0.00    +0.169 HD
ATOM      4  C   UNL     1      -2.652  -1.514   0.455  0.00  0.00    +0.248 C 
ATOM      5  O   UNL     1      -3.573  -0.716   0.279  0.00  0.00    -0.272 OA
BRANCH   4   6
ATOM      6  C   UNL     1      -2.666  -2.939  -0.244  0.00  0.00    +0.169 C 
BRANCH   6   7
ATOM      7  C   UNL     1      -3.724  -3.917   0.413  0.00  0.00    -0.011 C 
ATOM      8  C   UNL     1      -3.395  -4.096   1.908  0.00  0.00    +0.013 C 
ATOM      9  C   UNL     1      -3.703  -5.329  -0.225  0.00  0.00    +0.013 C 
ATOM     10  C   UNL     1      -5.172  -3.397   0.277  0.00  0.00    +0.013 C 
ENDBRANCH   6   7
BRANCH   6  11
ATOM     11  N   UNL     1      -2.905  -2.786  -1.686  0.00  0.00    -0.269 N 
ATOM     12  H   UNL     1      -3.607  -2.126  -1.996  0.00  0.00    +0.153 HD
ATOM     13  C   UNL     1      -2.395  -3.626  -2.636  0.00  0.00    +0.401 C 
ATOM     14  O   UNL     1      -1.588  -4.519  -2.423  0.00  0.00    -0.226 OA
BRANCH  13  15
ATOM     15  O   UNL     1      -2.951  -3.351  -3.844  0.00  0.00    -0.454 OA
ATOM     16  C   UNL     1      -2.552  -4.218  -4.916  0.00  0.00    +0.282 C 
ENDBRANCH  13  15
ENDBRANCH   6  11
ENDBRANCH   4   6
ENDBRANCH   1   2
BRANCH   1  17
ATOM     17  C   UNL     1      -1.842  -0.236   3.524  0.00  0.00    +0.139 C 
BRANCH  17  18
ATOM     18  C   UNL     1      -1.713   0.940   4.624  0.00  0.00    +0.151 C 
BRANCH  18  19
ATOM     19  O   UNL     1      -2.348   2.112   4.114  0.00  0.00    -0.389 OA
ATOM     20  H   UNL     1      -3.277   2.112   4.430  0.00  0.00    +0.210 HD
ENDBRANCH  18  19
BRANCH  18  21
ATOM     21  C   UNL     1      -2.284   0.574   6.087  0.00  0.00    +0.107 C 
BRANCH  21  23
ATOM     22  C   UNL     1      -3.986   2.521   6.754  0.00  0.00    +0.234 C 
ATOM     23  N   UNL     1      -2.824   1.723   7.001  0.00  0.00    -0.308 N 
ATOM     24  H   UNL     1      -2.701   1.534   7.996  0.00  0.00    +0.149 HD
ATOM     25  O   UNL     1      -4.517   2.506   5.643  0.00  0.00    -0.274 OA
BRANCH  22  26
ATOM     26  C   UNL     1      -4.721   3.198   8.067  0.00  0.00    +0.167 C 
BRANCH  26  28
ATOM     27  C   UNL     1      -6.911   4.308   7.091  0.00  0.00    +0.013 C 
ATOM     28  C   UNL     1      -5.727   4.474   8.074  0.00  0.00    -0.011 C 
ATOM     29  C   UNL     1      -6.348   4.631   9.515  0.00  0.00    +0.013 C 
ATOM     30  C   UNL     1      -5.116   5.872   7.819  0.00  0.00    +0.013 C 
ENDBRANCH  26  28
BRANCH  26  31
ATOM     31  N   UNL     1      -5.542   2.071   8.559  0.00  0.00    -0.269 N 
ATOM     32  H   UNL     1      -6.506   1.997   8.238  0.00  0.00    +0.153 HD
ATOM     33  C   UNL     1      -5.065   1.026   9.273  0.00  0.00    +0.401 C 
ATOM     34  O   UNL     1      -3.907   0.863   9.609  0.00  0.00    -0.226 OA
BRANCH  33  35
ATOM     35  O   UNL     1      -6.119   0.198   9.517  0.00  0.00    -0.454 OA
ATOM     36  C   UNL     1      -5.755  -1.002  10.220  0.00  0.00    +0.282 C 
ENDBRANCH  33  35
ENDBRANCH  26  31
ENDBRANCH  22  26
ENDBRANCH  21  23
BRANCH  21  37
ATOM     37  C   UNL     1      -1.345  -0.451   6.887  0.00  0.00    +0.060 C 
BRANCH  37  38
ATOM     38  C   UNL     1       0.180  -0.369   6.941  0.00  0.00    -0.046 A 
ATOM     39  C   UNL     1       0.957  -1.557   6.959  0.00  0.00    +0.004 A 
ATOM     40  C   UNL     1       2.356  -1.531   6.977  0.00  0.00    +0.000 A 
ATOM     41  C   UNL     1       3.029  -0.314   7.012  0.00  0.00    +0.000 A 
ATOM     42  C   UNL     1       2.284   0.866   7.083  0.00  0.00    +0.000 A 
ATOM     43  C   UNL     1       0.878   0.837   7.070  0.00  0.00    +0.004 A 
ENDBRANCH  37  38
ENDBRANCH  21  37
ENDBRANCH  18  21
ENDBRANCH  17  18
ENDBRANCH   1  17
BRANCH   1  44
ATOM     44  C   UNL     1      -0.057   0.552   2.010  0.00  0.00    +0.140 C 
BRANCH  44  45
ATOM     45  C   UNL     1       0.620   0.809   0.661  0.00  0.00    -0.032 A 
ATOM     46  C   UNL     1       1.996   0.552   0.542  0.00  0.00    +0.005 A 
ATOM     47  C   UNL     1       2.745   0.995  -0.568  0.00  0.00    +0.010 A 
ATOM     48  C   UNL     1       2.157   1.727  -1.609  0.00  0.00    +0.000 A 
ATOM     49  C   UNL     1       0.760   1.913  -1.521  0.00  0.00    +0.010 A 
ATOM     50  C   UNL     1       0.008   1.473  -0.407  0.00  0.00    +0.005 A 
BRANCH  48  51
ATOM     51  C   UNL     1       2.998   2.336  -2.679  0.00  0.00    +0.071 A 
ATOM     52  N   UNL     1       4.179   1.717  -2.950  0.00  0.00    -0.255 NA
ATOM     53  C   UNL     1       5.013   2.296  -3.849  0.00  0.00    +0.111 A 
ATOM     54  C   UNL     1       4.740   3.480  -4.506  0.00  0.00    +0.020 A 
ATOM     55  C   UNL     1       3.537   4.111  -4.232  0.00  0.00    +0.004 A 
ATOM     56  C   UNL     1       2.658   3.535  -3.311  0.00  0.00    +0.028 A 
ENDBRANCH  48  51
ENDBRANCH  44  45
ENDBRANCH   1  44
TORSDOF 19
