REMARK  Name = 
REMARK  27 active torsions:
REMARK  status: ('A' for Active; 'I' for Inactive)
REMARK    1  A    between atoms: C_1  and  C_2
REMARK    2  A    between atoms: C_2  and  C_3
REMARK    3  A    between atoms: C_2  and  C_4
REMARK    4  A    between atoms: C_2  and  C_5
REMARK    5  A    between atoms: C_5  and  C_7
REMARK    6  A    between atoms: C_5  and  N_50
REMARK    7  A    between atoms: N_9  and  C_10
REMARK    8  A    between atoms: C_10  and  C_12
REMARK    9  A    between atoms: C_10  and  C_19
REMARK   10  A    between atoms: C_12  and  C_13
REMARK   11  A    between atoms: C_19  and  C_20
REMARK   12  A    between atoms: C_19  and  O_49
REMARK   13  A    between atoms: C_20  and  N_21
REMARK   14  A    between atoms: N_21  and  C_22
REMARK   15  A    between atoms: N_21  and  N_35
REMARK   16  A    between atoms: C_22  and  C_23
REMARK   17  A    between atoms: C_26  and  C_29
REMARK   18  A    between atoms: C_36  and  C_38
REMARK   19  A    between atoms: C_38  and  C_40
REMARK   20  A    between atoms: C_38  and  N_44
REMARK   21  A    between atoms: C_40  and  C_41
REMARK   22  A    between atoms: C_40  and  C_42
REMARK   23  A    between atoms: C_40  and  C_43
REMARK   24  A    between atoms: C_45  and  O_47
REMARK   25  A    between atoms: O_47  and  C_48
REMARK   26  A    between atoms: C_51  and  O_53
REMARK   27  A    between atoms: O_53  and  C_54
REMARK                            x       y       z     vdW  Elec       q    Type
REMARK                         _______ _______ _______ _____ _____    ______ ____
ROOT
ATOM      1  N   UNL     1      -1.614   0.212  -2.060  0.00  0.00    -0.220 NA
ENDROOT
BRANCH   1   2
ATOM      2  N   UNL     1      -1.539   1.429  -1.185  0.00  0.00    -0.246 N 
ATOM      3  H   UNL     1      -1.089   1.254  -0.282  0.00  0.00    +0.169 HD
ATOM      4  C   UNL     1      -2.539   2.421  -1.127  0.00  0.00    +0.248 C 
ATOM      5  O   UNL     1      -3.572   2.417  -1.798  0.00  0.00    -0.272 OA
BRANCH   4   6
ATOM      6  C   UNL     1      -2.205   3.649  -0.178  0.00  0.00    +0.169 C 
BRANCH   6   7
ATOM      7  C   UNL     1      -1.628   4.879  -0.990  0.00  0.00    -0.011 C 
ATOM      8  C   UNL     1      -0.322   4.464  -1.695  0.00  0.00    +0.013 C 
ATOM      9  C   UNL     1      -1.287   6.086  -0.081  0.00  0.00    +0.013 C 
ATOM     10  C   UNL     1      -2.627   5.393  -2.050  0.00  0.00    +0.013 C 
ENDBRANCH   6   7
BRANCH   6  11
ATOM     11  N   UNL     1      -3.412   4.029   0.572  0.00  0.00    -0.269 N 
ATOM     12  H   UNL     1      -4.302   4.028   0.089  0.00  0.00    +0.153 HD
ATOM     13  C   UNL     1      -3.400   4.572   1.826  0.00  0.00    +0.401 C 
ATOM     14  O   UNL     1      -2.408   4.714   2.521  0.00  0.00    -0.226 OA
BRANCH  13  15
ATOM     15  O   UNL     1      -4.655   4.966   2.166  0.00  0.00    -0.454 OA
ATOM     16  C   UNL     1      -4.771   5.608   3.443  0.00  0.00    +0.282 C 
ENDBRANCH  13  15
ENDBRANCH   6  11
ENDBRANCH   4   6
ENDBRANCH   1   2
BRANCH   1  17
ATOM     17  C   UNL     1      -1.953   0.547  -3.508  0.00  0.00    +0.139 C 
BRANCH  17  18
ATOM     18  C   UNL     1      -1.896  -0.575  -4.660  0.00  0.00    +0.151 C 
BRANCH  18  19
ATOM     19  O   UNL     1      -2.652  -1.708  -4.218  0.00  0.00    -0.389 OA
ATOM     20  H   UNL     1      -3.590  -1.547  -4.463  0.00  0.00    +0.210 HD
ENDBRANCH  18  19
BRANCH  18  21
ATOM     21  C   UNL     1      -2.412  -0.080  -6.101  0.00  0.00    +0.107 C 
BRANCH  21  23
ATOM     22  C   UNL     1      -4.355  -1.741  -6.800  0.00  0.00    +0.234 C 
ATOM     23  N   UNL     1      -3.098  -1.110  -7.042  0.00  0.00    -0.308 N 
ATOM     24  H   UNL     1      -2.931  -0.942  -8.036  0.00  0.00    +0.149 HD
ATOM     25  O   UNL     1      -4.878  -1.671  -5.685  0.00  0.00    -0.274 OA
BRANCH  22  26
ATOM     26  C   UNL     1      -5.171  -2.336  -8.095  0.00  0.00    +0.167 C 
BRANCH  26  27
ATOM     27  N   UNL     1      -5.897  -1.189  -8.650  0.00  0.00    -0.269 N 
ATOM     28  H   UNL     1      -6.817  -0.951  -8.302  0.00  0.00    +0.153 HD
ATOM     29  C   UNL     1      -5.259  -0.199  -9.322  0.00  0.00    +0.401 C 
ATOM     30  O   UNL     1      -4.066  -0.230  -9.617  0.00  0.00    -0.226 OA
BRANCH  29  31
ATOM     31  O   UNL     1      -6.096   0.827  -9.561  0.00  0.00    -0.454 OA
ATOM     32  C   UNL     1      -5.447   1.968 -10.134  0.00  0.00    +0.282 C 
ENDBRANCH  29  31
ENDBRANCH  26  27
BRANCH  26  34
ATOM     33  C   UNL     1      -7.279  -3.401  -6.869  0.00  0.00    +0.013 C 
ATOM     34  C   UNL     1      -6.195  -3.573  -7.953  0.00  0.00    -0.011 C 
ATOM     35  C   UNL     1      -6.994  -3.844  -9.275  0.00  0.00    +0.013 C 
ATOM     36  C   UNL     1      -5.434  -4.875  -7.658  0.00  0.00    +0.013 C 
ENDBRANCH  26  34
ENDBRANCH  22  26
ENDBRANCH  21  23
BRANCH  21  37
ATOM     37  C   UNL     1      -1.380   0.896  -6.853  0.00  0.00    +0.060 C 
BRANCH  37  38
ATOM     38  C   UNL     1       0.099   0.672  -7.191  0.00  0.00    -0.046 A 
ATOM     39  C   UNL     1       0.920   1.778  -7.512  0.00  0.00    +0.004 A 
ATOM     40  C   UNL     1       2.247   1.660  -7.954  0.00  0.00    +0.000 A 
ATOM     41  C   UNL     1       2.804   0.397  -8.085  0.00  0.00    +0.000 A 
ATOM     42  C   UNL     1       2.028  -0.721  -7.778  0.00  0.00    +0.000 A 
ATOM     43  C   UNL     1       0.691  -0.581  -7.341  0.00  0.00    +0.004 A 
ENDBRANCH  37  38
ENDBRANCH  21  37
ENDBRANCH  18  21
ENDBRANCH  17  18
ENDBRANCH   1  17
BRANCH   1  44
ATOM     44  C   UNL     1      -0.324  -0.551  -1.971  0.00  0.00    +0.140 C 
BRANCH  44  45
ATOM     45  C   UNL     1       0.020  -1.108  -0.586  0.00  0.00    -0.032 A 
ATOM     46  C   UNL     1       1.242  -0.836   0.050  0.00  0.00    +0.005 A 
ATOM     47  C   UNL     1       1.479  -1.252   1.377  0.00  0.00    +0.010 A 
ATOM     48  C   UNL     1       0.506  -1.952   2.114  0.00  0.00    +0.000 A 
ATOM     49  C   UNL     1      -0.625  -2.377   1.394  0.00  0.00    +0.010 A 
ATOM     50  C   UNL     1      -0.868  -1.958   0.076  0.00  0.00    +0.005 A 
BRANCH  48  51
ATOM     51  C   UNL     1       0.584  -2.086   3.598  0.00  0.00    +0.071 A 
ATOM     52  N   UNL     1       1.381  -1.180   4.229  0.00  0.00    -0.255 NA
ATOM     53  C   UNL     1       1.289  -1.074   5.578  0.00  0.00    +0.111 A 
ATOM     54  C   UNL     1       0.439  -1.836   6.359  0.00  0.00    +0.020 A 
ATOM     55  C   UNL     1      -0.333  -2.794   5.723  0.00  0.00    +0.004 A 
ATOM     56  C   UNL     1      -0.249  -2.932   4.337  0.00  0.00    +0.028 A 
ENDBRANCH  48  51
ENDBRANCH  44  45
ENDBRANCH   1  44
TORSDOF 19
