REMARK  Name = 
REMARK  7 active torsions:
REMARK  status: ('A' for Active; 'I' for Inactive)
REMARK    1  A    between atoms: C_1  and  O_2
REMARK    2  A    between atoms: O_2  and  C_3
REMARK    3  A    between atoms: C_3  and  O_5
REMARK    4  A    between atoms: O_5  and  C_6
REMARK    5  A    between atoms: C_6  and  O_7
REMARK    6  A    between atoms: O_7  and  C_8
REMARK    7  A    between atoms: N_18  and  C_24
REMARK                            x       y       z     vdW  Elec       q    Type
REMARK                         _______ _______ _______ _____ _____    ______ ____
ROOT
ATOM      1  C   UNL     1       7.595  -2.483  -1.930  0.00  0.00    +0.201 A 
ATOM      2  C   UNL     1       8.722  -1.961  -2.781  0.00  0.00    +0.224 A 
ATOM      3  O   UNL     1       8.940  -0.761  -2.927  0.00  0.00    -0.284 OA
ATOM      4  C   UNL     1       9.565  -2.937  -3.515  0.00  0.00    +0.074 A 
ATOM      5  C   UNL     1       9.193  -4.225  -3.516  0.00  0.00    +0.113 A 
ATOM      6  N   UNL     1       8.070  -4.692  -2.869  0.00  0.00    -0.260 N 
ATOM      7  N   UNL     1       7.600  -6.046  -3.151  0.00  0.00    -0.236 N 
ATOM      8  C   UNL     1       6.802  -6.509  -1.998  0.00  0.00    +0.206 C 
ATOM      9  N   UNL     1       5.725  -5.572  -1.832  0.00  0.00    -0.272 N 
ATOM     10  C   UNL     1       4.365  -6.077  -1.760  0.00  0.00    +0.138 C 
ATOM     11  C   UNL     1       4.165  -7.381  -2.542  0.00  0.00    +0.179 C 
ATOM     12  O   UNL     1       5.158  -8.391  -2.351  0.00  0.00    -0.375 OA
ATOM     13  C   UNL     1       6.063  -4.321  -1.380  0.00  0.00    +0.270 C 
ATOM     14  O   UNL     1       5.346  -3.691  -0.613  0.00  0.00    -0.268 OA
ATOM     15  C   UNL     1       6.314  -7.941  -1.656  0.00  0.00    +0.203 C 
ATOM     16  C   UNL     1       7.336  -3.809  -2.027  0.00  0.00    +0.169 A 
ENDROOT
BRANCH   7  17
ATOM     17  C   UNL     1       7.154  -6.313  -4.605  0.00  0.00    +0.155 C 
ATOM     18  C   UNL     1       7.332  -7.833  -4.934  0.00  0.00    -0.008 A 
ATOM     19  C   UNL     1       6.903  -8.436  -6.119  0.00  0.00    +0.014 A 
ATOM     20  C   UNL     1       6.819  -9.835  -6.249  0.00  0.00    +0.015 A 
ATOM     21  C   UNL     1       7.306 -10.667  -5.254  0.00  0.00    +0.001 A 
ATOM     22  C   UNL     1       7.994 -10.094  -4.201  0.00  0.00    +0.000 A 
ATOM     23  S   UNL     1       6.463  -7.492  -7.543  0.00  0.00    -0.120 S 
ATOM     24  C   UNL     1       4.831  -7.121  -6.935  0.00  0.00    +0.112 C 
ATOM     25  C   UNL     1       4.793  -6.000  -5.935  0.00  0.00    +0.006 A 
ATOM     26  C   UNL     1       3.562  -5.291  -5.990  0.00  0.00    +0.163 A 
ATOM     27  F   UNL     1       2.552  -5.782  -6.727  0.00  0.00    -0.202 F 
ATOM     28  C   UNL     1       3.377  -4.086  -5.345  0.00  0.00    +0.159 A 
ATOM     29  F   UNL     1       2.204  -3.446  -5.408  0.00  0.00    -0.202 F 
ATOM     30  C   UNL     1       4.447  -3.509  -4.715  0.00  0.00    +0.041 A 
ATOM     31  C   UNL     1       5.652  -4.218  -4.651  0.00  0.00    +0.009 A 
ATOM     32  C   UNL     1       8.048  -8.698  -4.078  0.00  0.00    +0.007 A 
ATOM     33  C   UNL     1       5.826  -5.560  -5.065  0.00  0.00    -0.014 A 
ENDBRANCH   7  17
BRANCH   1  34
ATOM     34  O   UNL     1       6.754  -1.628  -1.246  0.00  0.00    -0.450 OA
BRANCH  34  35
ATOM     35  C   UNL     1       7.275  -0.386  -0.790  0.00  0.00    +0.473 C 
BRANCH  35  36
ATOM     36  O   UNL     1       6.532   0.068   0.344  0.00  0.00    -0.397 OA
BRANCH  36  37
ATOM     37  C   UNL     1       6.914  -0.517   1.502  0.00  0.00    +0.513 C 
ATOM     38  O   UNL     1       7.835  -1.308   1.646  0.00  0.00    -0.203 OA
BRANCH  37  40
ATOM     39  C   UNL     1       6.466  -0.526   3.791  0.00  0.00    +0.284 C 
ATOM     40  O   UNL     1       6.133  -0.026   2.499  0.00  0.00    -0.437 OA
ENDBRANCH  37  40
ENDBRANCH  36  37
ENDBRANCH  35  36
ENDBRANCH  34  35
ENDBRANCH   1  34
TORSDOF 6
