REMARK  Name = 
REMARK  7 active torsions:
REMARK  status: ('A' for Active; 'I' for Inactive)
REMARK    1  A    between atoms: C_1  and  O_2
REMARK    2  A    between atoms: O_2  and  C_3
REMARK    3  A    between atoms: C_3  and  O_5
REMARK    4  A    between atoms: O_5  and  C_6
REMARK    5  A    between atoms: C_6  and  O_7
REMARK    6  A    between atoms: O_7  and  C_8
REMARK    7  A    between atoms: N_18  and  C_24
REMARK                            x       y       z     vdW  Elec       q    Type
REMARK                         _______ _______ _______ _____ _____    ______ ____
ROOT
ATOM      1  C   UNL     1       7.549  -0.329   3.069  0.00  0.00    +0.201 A 
ATOM      2  C   UNL     1       8.015   0.885   3.814  0.00  0.00    +0.224 A 
ATOM      3  O   UNL     1       7.870   2.026   3.384  0.00  0.00    -0.284 OA
ATOM      4  C   UNL     1       8.622   0.681   5.143  0.00  0.00    +0.074 A 
ATOM      5  C   UNL     1       8.904  -0.570   5.517  0.00  0.00    +0.113 A 
ATOM      6  N   UNL     1       8.782  -1.687   4.706  0.00  0.00    -0.260 N 
ATOM      7  N   UNL     1       9.152  -3.055   5.274  0.00  0.00    -0.236 N 
ATOM      8  C   UNL     1       8.231  -4.043   4.612  0.00  0.00    +0.206 C 
ATOM      9  N   UNL     1       8.310  -3.857   3.175  0.00  0.00    -0.272 N 
ATOM     10  C   UNL     1       8.341  -5.035   2.325  0.00  0.00    +0.138 C 
ATOM     11  C   UNL     1       9.256  -6.123   2.883  0.00  0.00    +0.179 C 
ATOM     12  O   UNL     1       9.092  -6.388   4.280  0.00  0.00    -0.375 OA
ATOM     13  C   UNL     1       7.669  -2.734   2.706  0.00  0.00    +0.270 C 
ATOM     14  O   UNL     1       6.948  -2.760   1.720  0.00  0.00    -0.268 OA
ATOM     15  C   UNL     1       8.115  -5.564   4.921  0.00  0.00    +0.203 C 
ATOM     16  C   UNL     1       8.005  -1.524   3.522  0.00  0.00    +0.169 A 
ENDROOT
BRANCH   7  17
ATOM     17  C   UNL     1      10.649  -3.370   5.100  0.00  0.00    +0.155 C 
ATOM     18  C   UNL     1      11.649  -2.293   5.558  0.00  0.00    -0.008 A 
ATOM     19  C   UNL     1      12.824  -2.078   4.809  0.00  0.00    +0.014 A 
ATOM     20  C   UNL     1      13.726  -1.066   5.163  0.00  0.00    +0.015 A 
ATOM     21  C   UNL     1      13.488  -0.280   6.287  0.00  0.00    +0.001 A 
ATOM     22  C   UNL     1      12.402  -0.566   7.107  0.00  0.00    +0.000 A 
ATOM     23  S   UNL     1      13.284  -3.215   3.507  0.00  0.00    -0.120 S 
ATOM     24  C   UNL     1      13.531  -4.681   4.545  0.00  0.00    +0.112 C 
ATOM     25  C   UNL     1      12.351  -5.340   5.246  0.00  0.00    +0.006 A 
ATOM     26  C   UNL     1      12.577  -6.679   5.632  0.00  0.00    +0.163 A 
ATOM     27  F   UNL     1      13.669  -7.324   5.187  0.00  0.00    -0.202 F 
ATOM     28  C   UNL     1      11.715  -7.349   6.486  0.00  0.00    +0.159 A 
ATOM     29  F   UNL     1      11.908  -8.645   6.769  0.00  0.00    -0.202 F 
ATOM     30  C   UNL     1      10.680  -6.662   7.094  0.00  0.00    +0.041 A 
ATOM     31  C   UNL     1      10.451  -5.325   6.755  0.00  0.00    +0.009 A 
ATOM     32  C   UNL     1      11.528  -1.605   6.775  0.00  0.00    +0.007 A 
ATOM     33  C   UNL     1      11.166  -4.699   5.713  0.00  0.00    -0.014 A 
ENDBRANCH   7  17
BRANCH   1  34
ATOM     34  O   UNL     1       6.733  -0.191   1.957  0.00  0.00    -0.450 OA
BRANCH  34  35
ATOM     35  C   UNL     1       5.753   0.846   2.035  0.00  0.00    +0.473 C 
BRANCH  35  36
ATOM     36  O   UNL     1       4.576   0.507   1.299  0.00  0.00    -0.397 OA
BRANCH  36  37
ATOM     37  C   UNL     1       3.669  -0.206   2.006  0.00  0.00    +0.513 C 
ATOM     38  O   UNL     1       3.777  -0.576   3.164  0.00  0.00    -0.203 OA
BRANCH  37  40
ATOM     39  C   UNL     1       1.533  -1.147   1.826  0.00  0.00    +0.284 C 
ATOM     40  O   UNL     1       2.585  -0.410   1.210  0.00  0.00    -0.437 OA
ENDBRANCH  37  40
ENDBRANCH  36  37
ENDBRANCH  35  36
ENDBRANCH  34  35
ENDBRANCH   1  34
TORSDOF 6
