REMARK  Name = 
REMARK  36 active torsions:
REMARK  status: ('A' for Active; 'I' for Inactive)
REMARK    1  A    between atoms: C_1  and  C_2
REMARK    2  A    between atoms: C_2  and  C_3
REMARK    3  A    between atoms: C_3  and  C_4
REMARK    4  A    between atoms: C_4  and  C_6
REMARK    5  A    between atoms: C_4  and  N_14
REMARK    6  A    between atoms: C_6  and  C_8
REMARK    7  A    between atoms: N_10  and  C_11
REMARK    8  A    between atoms: C_15  and  C_17
REMARK    9  A    between atoms: C_28  and  C_30
REMARK   10  A    between atoms: C_30  and  C_32
REMARK   11  A    between atoms: C_30  and  N_36
REMARK   12  A    between atoms: C_32  and  C_33
REMARK   13  A    between atoms: C_32  and  C_34
REMARK   14  A    between atoms: C_32  and  C_35
REMARK   15  A    between atoms: C_37  and  C_39
REMARK   16  A    between atoms: C_39  and  C_41
REMARK   17  A    between atoms: C_39  and  N_47
REMARK   18  A    between atoms: C_48  and  C_50
REMARK   19  A    between atoms: C_56  and  C_57
REMARK   20  A    between atoms: C_57  and  C_58
REMARK   21  A    between atoms: C_58  and  C_59
REMARK   22  A    between atoms: C_59  and  C_61
REMARK   23  A    between atoms: C_59  and  N_69
REMARK   24  A    between atoms: C_61  and  C_63
REMARK   25  A    between atoms: N_65  and  C_66
REMARK   26  A    between atoms: C_70  and  C_72
REMARK   27  A    between atoms: C_83  and  C_85
REMARK   28  A    between atoms: C_85  and  C_87
REMARK   29  A    between atoms: C_85  and  N_91
REMARK   30  A    between atoms: C_87  and  C_88
REMARK   31  A    between atoms: C_87  and  C_89
REMARK   32  A    between atoms: C_87  and  C_90
REMARK   33  A    between atoms: C_92  and  C_94
REMARK   34  A    between atoms: C_94  and  C_96
REMARK   35  A    between atoms: C_94  and  N_102
REMARK   36  A    between atoms: C_103  and  C_105
REMARK                            x       y       z     vdW  Elec       q    Type
REMARK                         _______ _______ _______ _____ _____    ______ ____
ROOT
ATOM      1  C   UNL     1       5.767  -0.453 -10.201  0.00  0.00    +0.165 C 
ATOM      2  N   UNL     1       6.260  -0.793  -8.800  0.00  0.00    -0.288 N 
ATOM      3  C   UNL     1       5.574  -1.461  -7.795  0.00  0.00    +0.237 C 
ATOM      4  O   UNL     1       5.569  -1.017  -6.632  0.00  0.00    -0.274 OA
ATOM      5  C   UNL     1       7.116   0.281  -8.271  0.00  0.00    +0.112 C 
ATOM      6  C   UNL     1       6.886   1.477  -9.153  0.00  0.00    +0.012 C 
ATOM      7  C   UNL     1       5.668   2.326  -8.771  0.00  0.00    +0.005 C 
ATOM      8  C   UNL     1       4.926   2.591 -10.078  0.00  0.00    +0.001 C 
ATOM      9  C   UNL     1       5.765   1.962 -11.183  0.00  0.00    +0.006 C 
ATOM     10  C   UNL     1       6.557   0.858 -10.507  0.00  0.00    +0.023 C 
ENDROOT
BRANCH   1  13
ATOM     11  N   UNL     1       5.015  -1.088 -12.585  0.00  0.00    -0.304 N 
ATOM     12  H   UNL     1       4.154  -0.621 -12.340  0.00  0.00    +0.149 HD
ATOM     13  C   UNL     1       5.908  -1.372 -11.517  0.00  0.00    +0.234 C 
ATOM     14  O   UNL     1       6.817  -2.189 -11.643  0.00  0.00    -0.274 OA
BRANCH  11  15
ATOM     15  C   UNL     1       4.985  -1.876 -13.880  0.00  0.00    +0.149 C 
BRANCH  15  16
ATOM     16  C   UNL     1       4.533  -1.268 -15.270  0.00  0.00    +0.237 C 
ATOM     17  O   UNL     1       4.416  -1.954 -16.293  0.00  0.00    -0.285 OA
BRANCH  16  18
ATOM     18  C   UNL     1       4.287   0.221 -15.493  0.00  0.00    +0.282 C 
ATOM     19  N   UNL     1       3.359   0.475 -16.511  0.00  0.00    -0.306 N 
ATOM     20  H   UNL     1       2.832  -0.326 -16.869  0.00  0.00    +0.149 HD
ATOM     21  O   UNL     1       4.900   1.074 -14.856  0.00  0.00    -0.267 OA
BRANCH  19  22
ATOM     22  C   UNL     1       2.975   1.767 -17.045  0.00  0.00    +0.073 C 
ATOM     23  C   UNL     1       1.595   1.968 -17.642  0.00  0.00    +0.024 C 
ATOM     24  C   UNL     1       2.794   1.994 -18.536  0.00  0.00    +0.024 C 
ENDBRANCH  19  22
ENDBRANCH  16  18
ENDBRANCH  15  16
BRANCH  15  25
ATOM     25  C   UNL     1       4.144  -3.171 -13.623  0.00  0.00    +0.030 C 
BRANCH  25  27
ATOM     26  C   UNL     1       3.329  -5.499 -14.298  0.00  0.00    +0.004 C 
ATOM     27  C   UNL     1       4.150  -4.276 -14.700  0.00  0.00    -0.001 C 
ENDBRANCH  25  27
ENDBRANCH  15  25
ENDBRANCH  11  15
ENDBRANCH   1  13
BRANCH   3  28
ATOM     28  C   UNL     1       4.772  -2.754  -8.005  0.00  0.00    +0.164 C 
BRANCH  28  29
ATOM     29  N   UNL     1       3.448  -2.345  -8.556  0.00  0.00    -0.302 N 
ATOM     30  H   UNL     1       3.015  -1.680  -7.937  0.00  0.00    +0.150 HD
ATOM     31  C   UNL     1       2.871  -2.361  -9.785  0.00  0.00    +0.234 C 
ATOM     32  O   UNL     1       3.167  -3.166 -10.662  0.00  0.00    -0.274 OA
BRANCH  31  33
ATOM     33  C   UNL     1       1.828  -1.111 -10.182  0.00  0.00    +0.162 C 
BRANCH  33  34
ATOM     34  C   UNL     1       1.433   0.212  -9.255  0.00  0.00    +0.018 C 
ATOM     35  C   UNL     1       2.402   0.696  -8.146  0.00  0.00    +0.006 C 
ATOM     36  C   UNL     1       1.963   0.524  -6.694  0.00  0.00    +0.000 C 
ATOM     37  C   UNL     1       0.635   1.193  -6.396  0.00  0.00    +0.000 C 
ATOM     38  C   UNL     1      -0.439   0.892  -7.435  0.00  0.00    +0.000 C 
ATOM     39  C   UNL     1      -0.010   0.696  -8.911  0.00  0.00    +0.006 C 
ENDBRANCH  33  34
BRANCH  33  40
ATOM     40  N   UNL     1       0.897  -1.642 -11.260  0.00  0.00    -0.298 N 
ATOM     41  H   UNL     1       1.121  -2.602 -11.535  0.00  0.00    +0.150 HD
ATOM     42  C   UNL     1       0.494  -0.875 -12.360  0.00  0.00    +0.264 C 
ATOM     43  O   UNL     1       0.252   0.324 -12.257  0.00  0.00    -0.268 OA
BRANCH  42  44
ATOM     44  C   UNL     1       0.511  -1.497 -13.751  0.00  0.00    +0.143 A 
ATOM     45  C   UNL     1       0.656  -0.642 -14.845  0.00  0.00    +0.143 A 
ATOM     46  N   UNL     1       0.965  -1.065 -16.110  0.00  0.00    -0.259 NA
ATOM     47  C   UNL     1       1.046  -2.398 -16.272  0.00  0.00    +0.130 A 
ATOM     48  C   UNL     1       0.801  -3.261 -15.217  0.00  0.00    +0.131 A 
ATOM     49  N   UNL     1       0.576  -2.843 -13.921  0.00  0.00    -0.247 NA
ENDBRANCH  42  44
ENDBRANCH  33  40
ENDBRANCH  31  33
ENDBRANCH  28  29
BRANCH  28  50
ATOM     50  C   UNL     1       5.690  -4.087  -7.858  0.00  0.00    -0.011 C 
ATOM     51  C   UNL     1       4.902  -5.317  -7.352  0.00  0.00    +0.013 C 
ATOM     52  C   UNL     1       6.732  -3.809  -6.695  0.00  0.00    +0.013 C 
ATOM     53  C   UNL     1       6.548  -4.555  -9.047  0.00  0.00    +0.013 C 
ENDBRANCH  28  50
ENDBRANCH   3  28
TORSDOF 14
REMARK  Name = 
REMARK  36 active torsions:
REMARK  status: ('A' for Active; 'I' for Inactive)
REMARK    1  A    between atoms: C_1  and  C_2
REMARK    2  A    between atoms: C_2  and  C_3
REMARK    3  A    between atoms: C_3  and  C_4
REMARK    4  A    between atoms: C_4  and  C_6
REMARK    5  A    between atoms: C_4  and  N_14
REMARK    6  A    between atoms: C_6  and  C_8
REMARK    7  A    between atoms: N_10  and  C_11
REMARK    8  A    between atoms: C_15  and  C_17
REMARK    9  A    between atoms: C_28  and  C_30
REMARK   10  A    between atoms: C_30  and  C_32
REMARK   11  A    between atoms: C_30  and  N_36
REMARK   12  A    between atoms: C_32  and  C_33
REMARK   13  A    between atoms: C_32  and  C_34
REMARK   14  A    between atoms: C_32  and  C_35
REMARK   15  A    between atoms: C_37  and  C_39
REMARK   16  A    between atoms: C_39  and  C_41
REMARK   17  A    between atoms: C_39  and  N_47
REMARK   18  A    between atoms: C_48  and  C_50
REMARK   19  A    between atoms: C_56  and  C_57
REMARK   20  A    between atoms: C_57  and  C_58
REMARK   21  A    between atoms: C_58  and  C_59
REMARK   22  A    between atoms: C_59  and  C_61
REMARK   23  A    between atoms: C_59  and  N_69
REMARK   24  A    between atoms: C_61  and  C_63
REMARK   25  A    between atoms: N_65  and  C_66
REMARK   26  A    between atoms: C_70  and  C_72
REMARK   27  A    between atoms: C_83  and  C_85
REMARK   28  A    between atoms: C_85  and  C_87
REMARK   29  A    between atoms: C_85  and  N_91
REMARK   30  A    between atoms: C_87  and  C_88
REMARK   31  A    between atoms: C_87  and  C_89
REMARK   32  A    between atoms: C_87  and  C_90
REMARK   33  A    between atoms: C_92  and  C_94
REMARK   34  A    between atoms: C_94  and  C_96
REMARK   35  A    between atoms: C_94  and  N_102
REMARK   36  A    between atoms: C_103  and  C_105
REMARK                            x       y       z     vdW  Elec       q    Type
REMARK                         _______ _______ _______ _____ _____    ______ ____
ROOT
ATOM      1  C   UNL     1      17.876   0.033  -6.015  0.00  0.00    +0.165 C 
ATOM      2  N   UNL     1      18.538   0.795  -7.120  0.00  0.00    -0.288 N 
ATOM      3  C   UNL     1      19.011   0.360  -8.399  0.00  0.00    +0.237 C 
ATOM      4  O   UNL     1      20.088   0.834  -8.805  0.00  0.00    -0.274 OA
ATOM      5  C   UNL     1      19.177   1.988  -6.513  0.00  0.00    +0.112 C 
ATOM      6  C   UNL     1      18.871   2.039  -5.005  0.00  0.00    +0.012 C 
ATOM      7  C   UNL     1      19.985   1.656  -4.021  0.00  0.00    +0.005 C 
ATOM      8  C   UNL     1      19.390   0.674  -3.014  0.00  0.00    +0.001 C 
ATOM      9  C   UNL     1      17.924   0.502  -3.385  0.00  0.00    +0.006 C 
ATOM     10  C   UNL     1      17.749   1.035  -4.812  0.00  0.00    +0.023 C 
ENDROOT
BRANCH   1  13
ATOM     11  N   UNL     1      15.726   0.518  -7.080  0.00  0.00    -0.304 N 
ATOM     12  H   UNL     1      16.209   1.340  -7.433  0.00  0.00    +0.149 HD
ATOM     13  C   UNL     1      16.460  -0.402  -6.358  0.00  0.00    +0.234 C 
ATOM     14  O   UNL     1      15.958  -1.410  -5.870  0.00  0.00    -0.274 OA
BRANCH  11  15
ATOM     15  C   UNL     1      14.416   0.174  -7.647  0.00  0.00    +0.149 C 
BRANCH  15  16
ATOM     16  C   UNL     1      13.447  -0.244  -6.540  0.00  0.00    +0.237 C 
ATOM     17  O   UNL     1      12.823  -1.288  -6.470  0.00  0.00    -0.285 OA
BRANCH  16  18
ATOM     18  C   UNL     1      13.144   0.842  -5.505  0.00  0.00    +0.282 C 
ATOM     19  N   UNL     1      12.294   0.441  -4.498  0.00  0.00    -0.306 N 
ATOM     20  H   UNL     1      11.941  -0.514  -4.540  0.00  0.00    +0.149 HD
ATOM     21  O   UNL     1      13.590   1.974  -5.631  0.00  0.00    -0.267 OA
BRANCH  19  22
ATOM     22  C   UNL     1      11.789   1.378  -3.548  0.00  0.00    +0.073 C 
ATOM     23  C   UNL     1      12.670   1.846  -2.420  0.00  0.00    +0.024 C 
ATOM     24  C   UNL     1      11.484   0.973  -2.137  0.00  0.00    +0.024 C 
ENDBRANCH  19  22
ENDBRANCH  16  18
ENDBRANCH  15  16
BRANCH  15  25
ATOM     25  C   UNL     1      14.607  -0.814  -8.796  0.00  0.00    +0.030 C 
BRANCH  25  27
ATOM     26  C   UNL     1      13.721  -2.194 -10.683  0.00  0.00    +0.004 C 
ATOM     27  C   UNL     1      13.356  -1.263  -9.533  0.00  0.00    -0.001 C 
ENDBRANCH  25  27
ENDBRANCH  15  25
ENDBRANCH  11  15
ENDBRANCH   1  13
BRANCH   3  28
ATOM     28  C   UNL     1      18.124  -0.410  -9.561  0.00  0.00    +0.164 C 
BRANCH  28  29
ATOM     29  N   UNL     1      18.291   0.610 -10.908  0.00  0.00    -0.302 N 
ATOM     30  H   UNL     1      19.164   1.101 -10.784  0.00  0.00    +0.150 HD
ATOM     31  C   UNL     1      17.387   1.279 -11.817  0.00  0.00    +0.234 C 
ATOM     32  O   UNL     1      16.173   1.068 -11.746  0.00  0.00    -0.274 OA
BRANCH  31  33
ATOM     33  C   UNL     1      18.008   2.370 -13.124  0.00  0.00    +0.162 C 
BRANCH  33  34
ATOM     34  C   UNL     1      18.976   3.609 -12.799  0.00  0.00    +0.018 C 
ATOM     35  C   UNL     1      20.019   3.362 -11.724  0.00  0.00    +0.006 C 
ATOM     36  C   UNL     1      19.481   3.700 -10.347  0.00  0.00    +0.000 C 
ATOM     37  C   UNL     1      19.169   5.179 -10.207  0.00  0.00    +0.000 C 
ATOM     38  C   UNL     1      18.270   5.708 -11.318  0.00  0.00    +0.000 C 
ATOM     39  C   UNL     1      18.468   5.082 -12.706  0.00  0.00    +0.006 C 
ENDBRANCH  33  34
BRANCH  33  40
ATOM     40  N   UNL     1      17.158   2.811 -14.408  0.00  0.00    -0.298 N 
ATOM     41  H   UNL     1      16.181   3.063 -14.291  0.00  0.00    +0.150 HD
ATOM     42  C   UNL     1      17.739   3.122 -15.682  0.00  0.00    +0.264 C 
ATOM     43  O   UNL     1      18.941   2.931 -15.887  0.00  0.00    -0.268 OA
BRANCH  42  44
ATOM     44  C   UNL     1      16.945   3.728 -16.862  0.00  0.00    +0.143 A 
ATOM     45  C   UNL     1      17.604   4.029 -18.061  0.00  0.00    +0.143 A 
ATOM     46  N   UNL     1      17.006   4.569 -19.178  0.00  0.00    -0.259 NA
ATOM     47  C   UNL     1      15.690   4.812 -19.076  0.00  0.00    +0.130 A 
ATOM     48  C   UNL     1      15.028   4.523 -17.892  0.00  0.00    +0.131 A 
ATOM     49  N   UNL     1      15.610   3.987 -16.763  0.00  0.00    -0.247 NA
ENDBRANCH  42  44
ENDBRANCH  33  40
ENDBRANCH  31  33
ENDBRANCH  28  29
BRANCH  28  50
ATOM     50  C   UNL     1      18.376  -2.056  -9.873  0.00  0.00    -0.011 C 
ATOM     51  C   UNL     1      17.349  -2.500 -10.944  0.00  0.00    +0.013 C 
ATOM     52  C   UNL     1      18.143  -3.059  -8.677  0.00  0.00    +0.013 C 
ATOM     53  C   UNL     1      19.746  -2.489 -10.454  0.00  0.00    +0.013 C 
ENDBRANCH  28  50
ENDBRANCH   3  28
TORSDOF 14
