REMARK  Name = 
REMARK  36 active torsions:
REMARK  status: ('A' for Active; 'I' for Inactive)
REMARK    1  A    between atoms: C_1  and  C_2
REMARK    2  A    between atoms: C_2  and  C_3
REMARK    3  A    between atoms: C_3  and  C_4
REMARK    4  A    between atoms: C_4  and  C_6
REMARK    5  A    between atoms: C_4  and  N_14
REMARK    6  A    between atoms: C_6  and  C_8
REMARK    7  A    between atoms: N_10  and  C_11
REMARK    8  A    between atoms: C_15  and  C_17
REMARK    9  A    between atoms: C_28  and  C_30
REMARK   10  A    between atoms: C_30  and  C_32
REMARK   11  A    between atoms: C_30  and  N_36
REMARK   12  A    between atoms: C_32  and  C_33
REMARK   13  A    between atoms: C_32  and  C_34
REMARK   14  A    between atoms: C_32  and  C_35
REMARK   15  A    between atoms: C_37  and  C_39
REMARK   16  A    between atoms: C_39  and  C_41
REMARK   17  A    between atoms: C_39  and  N_47
REMARK   18  A    between atoms: C_48  and  C_50
REMARK   19  A    between atoms: C_56  and  C_57
REMARK   20  A    between atoms: C_57  and  C_58
REMARK   21  A    between atoms: C_58  and  C_59
REMARK   22  A    between atoms: C_59  and  C_61
REMARK   23  A    between atoms: C_59  and  N_69
REMARK   24  A    between atoms: C_61  and  C_63
REMARK   25  A    between atoms: N_65  and  C_66
REMARK   26  A    between atoms: C_70  and  C_72
REMARK   27  A    between atoms: C_83  and  C_85
REMARK   28  A    between atoms: C_85  and  C_87
REMARK   29  A    between atoms: C_85  and  N_91
REMARK   30  A    between atoms: C_87  and  C_88
REMARK   31  A    between atoms: C_87  and  C_89
REMARK   32  A    between atoms: C_87  and  C_90
REMARK   33  A    between atoms: C_92  and  C_94
REMARK   34  A    between atoms: C_94  and  C_96
REMARK   35  A    between atoms: C_94  and  N_102
REMARK   36  A    between atoms: C_103  and  C_105
REMARK                            x       y       z     vdW  Elec       q    Type
REMARK                         _______ _______ _______ _____ _____    ______ ____
ROOT
ATOM      1  C   UNL     1       9.744  -5.836  12.803  0.00  0.00    +0.165 C 
ATOM      2  N   UNL     1      10.611  -5.253  11.732  0.00  0.00    -0.288 N 
ATOM      3  C   UNL     1      11.446  -5.939  10.815  0.00  0.00    +0.237 C 
ATOM      4  O   UNL     1      12.539  -5.384  10.564  0.00  0.00    -0.274 OA
ATOM      5  C   UNL     1      11.103  -3.925  12.245  0.00  0.00    +0.112 C 
ATOM      6  C   UNL     1      10.298  -3.564  13.507  0.00  0.00    +0.012 C 
ATOM      7  C   UNL     1      10.958  -3.825  14.899  0.00  0.00    +0.005 C 
ATOM      8  C   UNL     1       9.899  -4.501  15.772  0.00  0.00    +0.001 C 
ATOM      9  C   UNL     1       8.614  -4.419  14.911  0.00  0.00    +0.006 C 
ATOM     10  C   UNL     1       9.079  -4.519  13.429  0.00  0.00    +0.023 C 
ENDROOT
BRANCH   1  13
ATOM     11  N   UNL     1       7.884  -7.377  11.839  0.00  0.00    -0.304 N 
ATOM     12  H   UNL     1       7.271  -6.572  11.892  0.00  0.00    +0.149 HD
ATOM     13  C   UNL     1       9.115  -7.231  12.428  0.00  0.00    +0.234 C 
ATOM     14  O   UNL     1       9.833  -8.220  12.533  0.00  0.00    -0.274 OA
BRANCH  11  15
ATOM     15  C   UNL     1       7.206  -8.689  11.525  0.00  0.00    +0.149 C 
BRANCH  15  16
ATOM     16  C   UNL     1       6.651  -9.113  12.851  0.00  0.00    +0.237 C 
ATOM     17  O   UNL     1       7.296  -9.414  13.851  0.00  0.00    -0.285 OA
BRANCH  16  18
ATOM     18  C   UNL     1       5.156  -9.128  12.931  0.00  0.00    +0.282 C 
ATOM     19  N   UNL     1       4.720  -9.966  13.946  0.00  0.00    -0.306 N 
ATOM     20  H   UNL     1       5.458 -10.305  14.557  0.00  0.00    +0.149 HD
ATOM     21  O   UNL     1       4.464  -8.447  12.205  0.00  0.00    -0.267 OA
BRANCH  19  22
ATOM     22  C   UNL     1       3.398  -9.887  14.423  0.00  0.00    +0.073 C 
ATOM     23  C   UNL     1       3.072  -8.928  15.534  0.00  0.00    +0.024 C 
ATOM     24  C   UNL     1       3.060 -10.406  15.794  0.00  0.00    +0.024 C 
ENDBRANCH  19  22
ENDBRANCH  16  18
ENDBRANCH  15  16
BRANCH  15  25
ATOM     25  C   UNL     1       7.903  -9.963  10.914  0.00  0.00    +0.030 C 
BRANCH  25  27
ATOM     26  C   UNL     1       5.842 -11.120   9.721  0.00  0.00    +0.004 C 
ATOM     27  C   UNL     1       6.995 -11.224  10.719  0.00  0.00    -0.001 C 
ENDBRANCH  25  27
ENDBRANCH  15  25
ENDBRANCH  11  15
ENDBRANCH   1  13
BRANCH   3  28
ATOM     28  C   UNL     1      11.057  -7.255   9.784  0.00  0.00    +0.164 C 
BRANCH  28  29
ATOM     29  N   UNL     1      11.072  -8.816  10.217  0.00  0.00    -0.302 N 
ATOM     30  H   UNL     1      10.725  -8.977  11.164  0.00  0.00    +0.150 HD
ATOM     31  C   UNL     1      11.590  -9.973   9.520  0.00  0.00    +0.234 C 
ATOM     32  O   UNL     1      11.992  -9.881   8.353  0.00  0.00    -0.274 OA
BRANCH  31  33
ATOM     33  C   UNL     1      11.874 -11.469  10.342  0.00  0.00    +0.162 C 
BRANCH  33  34
ATOM     34  C   UNL     1      11.876 -12.988   9.587  0.00  0.00    +0.018 C 
ATOM     35  C   UNL     1      12.498 -13.440   8.213  0.00  0.00    +0.006 C 
ATOM     36  C   UNL     1      11.669 -13.245   6.929  0.00  0.00    +0.000 C 
ATOM     37  C   UNL     1      10.147 -13.219   7.091  0.00  0.00    +0.000 C 
ATOM     38  C   UNL     1       9.648 -12.963   8.505  0.00  0.00    +0.000 C 
ATOM     39  C   UNL     1      10.487 -13.664   9.538  0.00  0.00    +0.006 C 
ENDBRANCH  33  34
BRANCH  33  40
ATOM     40  N   UNL     1      11.138 -11.658  11.655  0.00  0.00    -0.298 N 
ATOM     41  H   UNL     1      10.392 -12.335  11.667  0.00  0.00    +0.150 HD
ATOM     42  C   UNL     1      11.589 -11.446  12.953  0.00  0.00    +0.264 C 
ATOM     43  O   UNL     1      12.704 -11.039  13.231  0.00  0.00    -0.268 OA
BRANCH  42  44
ATOM     44  C   UNL     1      10.596 -11.791  14.059  0.00  0.00    +0.143 A 
ATOM     45  C   UNL     1      10.904 -11.588  15.400  0.00  0.00    +0.143 A 
ATOM     46  N   UNL     1       9.994 -11.779  16.411  0.00  0.00    -0.259 NA
ATOM     47  C   UNL     1       8.770 -12.195  16.029  0.00  0.00    +0.130 A 
ATOM     48  C   UNL     1       8.467 -12.444  14.693  0.00  0.00    +0.131 A 
ATOM     49  N   UNL     1       9.360 -12.263  13.683  0.00  0.00    -0.247 NA
ENDBRANCH  42  44
ENDBRANCH  33  40
ENDBRANCH  31  33
ENDBRANCH  28  29
BRANCH  28  50
ATOM     50  C   UNL     1      10.010  -6.816   8.604  0.00  0.00    -0.011 C 
ATOM     51  C   UNL     1      10.332  -7.550   7.283  0.00  0.00    +0.013 C 
ATOM     52  C   UNL     1      10.019  -5.296   8.270  0.00  0.00    +0.013 C 
ATOM     53  C   UNL     1       8.547  -7.113   8.901  0.00  0.00    +0.013 C 
ENDBRANCH  28  50
ENDBRANCH   3  28
TORSDOF 14
REMARK  Name = 
REMARK  36 active torsions:
REMARK  status: ('A' for Active; 'I' for Inactive)
REMARK    1  A    between atoms: C_1  and  C_2
REMARK    2  A    between atoms: C_2  and  C_3
REMARK    3  A    between atoms: C_3  and  C_4
REMARK    4  A    between atoms: C_4  and  C_6
REMARK    5  A    between atoms: C_4  and  N_14
REMARK    6  A    between atoms: C_6  and  C_8
REMARK    7  A    between atoms: N_10  and  C_11
REMARK    8  A    between atoms: C_15  and  C_17
REMARK    9  A    between atoms: C_28  and  C_30
REMARK   10  A    between atoms: C_30  and  C_32
REMARK   11  A    between atoms: C_30  and  N_36
REMARK   12  A    between atoms: C_32  and  C_33
REMARK   13  A    between atoms: C_32  and  C_34
REMARK   14  A    between atoms: C_32  and  C_35
REMARK   15  A    between atoms: C_37  and  C_39
REMARK   16  A    between atoms: C_39  and  C_41
REMARK   17  A    between atoms: C_39  and  N_47
REMARK   18  A    between atoms: C_48  and  C_50
REMARK   19  A    between atoms: C_56  and  C_57
REMARK   20  A    between atoms: C_57  and  C_58
REMARK   21  A    between atoms: C_58  and  C_59
REMARK   22  A    between atoms: C_59  and  C_61
REMARK   23  A    between atoms: C_59  and  N_69
REMARK   24  A    between atoms: C_61  and  C_63
REMARK   25  A    between atoms: N_65  and  C_66
REMARK   26  A    between atoms: C_70  and  C_72
REMARK   27  A    between atoms: C_83  and  C_85
REMARK   28  A    between atoms: C_85  and  C_87
REMARK   29  A    between atoms: C_85  and  N_91
REMARK   30  A    between atoms: C_87  and  C_88
REMARK   31  A    between atoms: C_87  and  C_89
REMARK   32  A    between atoms: C_87  and  C_90
REMARK   33  A    between atoms: C_92  and  C_94
REMARK   34  A    between atoms: C_94  and  C_96
REMARK   35  A    between atoms: C_94  and  N_102
REMARK   36  A    between atoms: C_103  and  C_105
REMARK                            x       y       z     vdW  Elec       q    Type
REMARK                         _______ _______ _______ _____ _____    ______ ____
ROOT
ATOM      1  C   UNL     1      20.684  -4.510  13.447  0.00  0.00    +0.165 C 
ATOM      2  N   UNL     1      20.049  -5.442  12.481  0.00  0.00    -0.288 N 
ATOM      3  C   UNL     1      19.652  -5.115  11.159  0.00  0.00    +0.237 C 
ATOM      4  O   UNL     1      18.550  -5.496  10.747  0.00  0.00    -0.274 OA
ATOM      5  C   UNL     1      19.077  -6.293  13.198  0.00  0.00    +0.112 C 
ATOM      6  C   UNL     1      19.173  -5.994  14.689  0.00  0.00    +0.012 C 
ATOM      7  C   UNL     1      18.034  -5.170  15.294  0.00  0.00    +0.005 C 
ATOM      8  C   UNL     1      18.673  -4.061  16.120  0.00  0.00    +0.001 C 
ATOM      9  C   UNL     1      20.183  -4.200  15.976  0.00  0.00    +0.006 C 
ATOM     10  C   UNL     1      20.443  -5.168  14.830  0.00  0.00    +0.023 C 
ENDROOT
BRANCH   1  13
ATOM     11  N   UNL     1      23.202  -4.876  13.742  0.00  0.00    -0.304 N 
ATOM     12  H   UNL     1      22.975  -5.778  14.143  0.00  0.00    +0.149 HD
ATOM     13  C   UNL     1      22.180  -4.027  13.358  0.00  0.00    +0.234 C 
ATOM     14  O   UNL     1      22.440  -2.889  12.977  0.00  0.00    -0.274 OA
BRANCH  11  15
ATOM     15  C   UNL     1      24.639  -4.465  13.873  0.00  0.00    +0.149 C 
BRANCH  15  16
ATOM     16  C   UNL     1      24.973  -3.423  14.980  0.00  0.00    +0.237 C 
ATOM     17  O   UNL     1      25.882  -2.591  14.907  0.00  0.00    -0.285 OA
BRANCH  16  18
ATOM     18  C   UNL     1      24.314  -3.575  16.356  0.00  0.00    +0.282 C 
ATOM     19  N   UNL     1      24.786  -2.652  17.280  0.00  0.00    -0.306 N 
ATOM     20  H   UNL     1      25.471  -1.984  16.926  0.00  0.00    +0.149 HD
ATOM     21  O   UNL     1      23.490  -4.451  16.572  0.00  0.00    -0.267 OA
BRANCH  19  22
ATOM     22  C   UNL     1      24.254  -2.475  18.595  0.00  0.00    +0.073 C 
ATOM     23  C   UNL     1      24.985  -1.616  19.597  0.00  0.00    +0.024 C 
ATOM     24  C   UNL     1      24.883  -3.095  19.812  0.00  0.00    +0.024 C 
ENDBRANCH  19  22
ENDBRANCH  16  18
ENDBRANCH  15  16
BRANCH  15  25
ATOM     25  C   UNL     1      25.301  -4.104  12.519  0.00  0.00    +0.030 C 
BRANCH  25  27
ATOM     26  C   UNL     1      27.467  -3.984  11.162  0.00  0.00    +0.004 C 
ATOM     27  C   UNL     1      26.837  -4.251  12.524  0.00  0.00    -0.001 C 
ENDBRANCH  25  27
ENDBRANCH  15  25
ENDBRANCH  11  15
ENDBRANCH   1  13
BRANCH   3  28
ATOM     28  C   UNL     1      20.654  -4.422  10.153  0.00  0.00    +0.164 C 
BRANCH  28  29
ATOM     29  N   UNL     1      21.422  -5.449   9.416  0.00  0.00    -0.302 N 
ATOM     30  H   UNL     1      22.417  -5.301   9.301  0.00  0.00    +0.150 HD
ATOM     31  C   UNL     1      20.865  -6.478   8.685  0.00  0.00    +0.234 C 
ATOM     32  O   UNL     1      19.658  -6.677   8.583  0.00  0.00    -0.274 OA
BRANCH  31  33
ATOM     33  C   UNL     1      21.851  -7.466   8.018  0.00  0.00    +0.162 C 
BRANCH  33  34
ATOM     34  C   UNL     1      22.537  -8.479   8.977  0.00  0.00    +0.018 C 
ATOM     35  C   UNL     1      23.346  -9.539   8.190  0.00  0.00    +0.006 C 
ATOM     36  C   UNL     1      22.454 -10.536   7.447  0.00  0.00    +0.000 C 
ATOM     37  C   UNL     1      21.483 -11.230   8.396  0.00  0.00    +0.000 C 
ATOM     38  C   UNL     1      20.665 -10.226   9.203  0.00  0.00    +0.000 C 
ATOM     39  C   UNL     1      21.559  -9.215   9.920  0.00  0.00    +0.006 C 
ENDBRANCH  33  34
BRANCH  33  40
ATOM     40  N   UNL     1      22.749  -6.692   7.153  0.00  0.00    -0.298 N 
ATOM     41  H   UNL     1      22.323  -6.293   6.317  0.00  0.00    +0.150 HD
ATOM     42  C   UNL     1      23.969  -6.150   7.478  0.00  0.00    +0.264 C 
ATOM     43  O   UNL     1      24.567  -6.337   8.528  0.00  0.00    -0.268 OA
BRANCH  42  44
ATOM     44  C   UNL     1      24.509  -5.225   6.446  0.00  0.00    +0.143 A 
ATOM     45  C   UNL     1      25.774  -4.670   6.591  0.00  0.00    +0.143 A 
ATOM     46  N   UNL     1      26.276  -3.785   5.698  0.00  0.00    -0.259 NA
ATOM     47  C   UNL     1      25.458  -3.475   4.664  0.00  0.00    +0.130 A 
ATOM     48  C   UNL     1      24.196  -4.038   4.516  0.00  0.00    +0.131 A 
ATOM     49  N   UNL     1      23.687  -4.920   5.394  0.00  0.00    -0.247 NA
ENDBRANCH  42  44
ENDBRANCH  33  40
ENDBRANCH  31  33
ENDBRANCH  28  29
BRANCH  28  50
ATOM     50  C   UNL     1      20.045  -3.241   9.261  0.00  0.00    -0.011 C 
ATOM     51  C   UNL     1      21.159  -2.221   8.899  0.00  0.00    +0.013 C 
ATOM     52  C   UNL     1      18.982  -2.489  10.093  0.00  0.00    +0.013 C 
ATOM     53  C   UNL     1      19.384  -3.605   7.910  0.00  0.00    +0.013 C 
ENDBRANCH  28  50
ENDBRANCH   3  28
TORSDOF 14
