REMARK  Name = 
REMARK  3 active torsions:
REMARK  status: ('A' for Active; 'I' for Inactive)
REMARK    1  A    between atoms: C_1  and  C_2
REMARK    2  A    between atoms: C_9  and  C_10
REMARK    3  A    between atoms: C_9  and  C_11
REMARK                            x       y       z     vdW  Elec       q    Type
REMARK                         _______ _______ _______ _____ _____    ______ ____
ROOT
ATOM      1  C   UNL     1       0.957   0.075   0.518  0.00  0.00    +0.010 C 
ATOM      2  C   UNL     1       2.482   0.076   0.344  0.00  0.00    +0.015 C 
ATOM      3  C   UNL     1       2.921   1.249  -0.564  0.00  0.00    +0.122 C 
ATOM      4  O   UNL     1       4.247   1.687  -0.160  0.00  0.00    -0.370 OA
ATOM      5  C   UNL     1       5.215   1.144  -1.088  0.00  0.00    +0.067 C 
ATOM      6  C   UNL     1       6.447   0.662  -0.321  0.00  0.00    +0.041 C 
ATOM      7  C   UNL     1       5.683   2.274  -2.028  0.00  0.00    +0.041 C 
ATOM      8  C   UNL     1       4.424   0.055  -1.847  0.00  0.00    +0.023 C 
ATOM      9  C   UNL     1       4.231  -1.242  -1.019  0.00  0.00    +0.007 C 
ATOM     10  C   UNL     1       3.080   0.762  -1.996  0.00  0.00    +0.038 C 
ATOM     11  C   UNL     1       2.916  -1.289  -0.235  0.00  0.00    +0.006 C 
ENDROOT
TORSDOF 0
