REMARK  Name = 
REMARK  3 active torsions:
REMARK  status: ('A' for Active; 'I' for Inactive)
REMARK    1  A    between atoms: C_1  and  C_2
REMARK    2  A    between atoms: C_9  and  C_10
REMARK    3  A    between atoms: C_9  and  C_11
REMARK                            x       y       z     vdW  Elec       q    Type
REMARK                         _______ _______ _______ _____ _____    ______ ____
ROOT
ATOM      1  C   UNL     1       1.001   0.153   0.542  0.00  0.00    +0.010 C 
ATOM      2  C   UNL     1       2.519   0.154   0.340  0.00  0.00    +0.015 C 
ATOM      3  C   UNL     1       2.945   1.332  -0.563  0.00  0.00    +0.122 C 
ATOM      4  O   UNL     1       4.275   1.768  -0.168  0.00  0.00    -0.370 OA
ATOM      5  C   UNL     1       5.235   1.231  -1.106  0.00  0.00    +0.067 C 
ATOM      6  C   UNL     1       6.469   0.734  -0.345  0.00  0.00    +0.041 C 
ATOM      7  C   UNL     1       5.703   2.373  -2.033  0.00  0.00    +0.041 C 
ATOM      8  C   UNL     1       4.438   0.156  -1.874  0.00  0.00    +0.023 C 
ATOM      9  C   UNL     1       4.243  -1.156  -1.067  0.00  0.00    +0.007 C 
ATOM     10  C   UNL     1       3.094   0.864  -2.002  0.00  0.00    +0.038 C 
ATOM     11  C   UNL     1       2.942  -1.205  -0.262  0.00  0.00    +0.006 C 
ENDROOT
TORSDOF 0
