REMARK  Name = 
REMARK  4 active torsions:
REMARK  status: ('A' for Active; 'I' for Inactive)
REMARK    1  A    between atoms: C_3  and  N_10
REMARK    2  A    between atoms: C_5  and  O_9
REMARK    3  A    between atoms: C_6  and  C_7
REMARK    4  A    between atoms: C_7  and  O_8
REMARK                            x       y       z     vdW  Elec       q    Type
REMARK                         _______ _______ _______ _____ _____    ______ ____
ROOT
ATOM      1  N   UNL     1       2.893   2.685   2.645  0.00  0.00    -0.172 N 
ATOM      2  C   UNL     1       4.164   2.108   2.842  0.00  0.00    +0.337 C 
ATOM      3  N   UNL     1       4.621   0.920   3.104  0.00  0.00    +0.025 NA
ATOM      4  C   UNL     1       6.003   0.879   3.134  0.00  0.00    +0.458 C 
ATOM      5  N   UNL     1       6.721   1.575   2.219  0.00  0.00    -0.162 N 
ATOM      6  H   UNL     1       7.718   1.403   2.148  0.00  0.00    +0.255 HD
ATOM      7  C   UNL     1       6.289   2.836   1.839  0.00  0.00    +0.313 C 
ATOM      8  O   UNL     1       6.874   3.524   1.018  0.00  0.00    -0.254 OA
ATOM      9  N   UNL     1       6.630   0.227   4.045  0.00  0.00    -0.120 NA
ATOM     10  H   UNL     1       5.934  -0.152   4.697  0.00  0.00    +0.307 HD
ATOM     11  C   UNL     1       5.147   3.263   2.755  0.00  0.00    +0.325 C 
ATOM     12  N   UNL     1       4.349   4.473   2.429  0.00  0.00    -0.228 NA
ATOM     13  C   UNL     1       3.133   4.044   2.586  0.00  0.00    +0.302 C 
ENDROOT
BRANCH   1  19
ATOM     14  C   UNL     1       2.710   2.532  -0.690  0.00  0.00    +0.012 C 
ATOM     15  C   UNL     1       1.940   2.882   0.353  0.00  0.00    -0.026 C 
ATOM     16  C   UNL     1       0.946   4.045   0.389  0.00  0.00    +0.072 C 
ATOM     17  C   UNL     1      -0.141   3.535   1.355  0.00  0.00    +0.128 C 
ATOM     18  C   UNL     1       0.416   2.275   2.049  0.00  0.00    +0.084 C 
ATOM     19  C   UNL     1       1.900   2.111   1.679  0.00  0.00    +0.203 C 
BRANCH  17  20
ATOM     20  O   UNL     1      -1.392   3.236   0.741  0.00  0.00    -0.391 OA
ATOM     21  H   UNL     1      -1.274   3.200  -0.233  0.00  0.00    +0.210 HD
ENDBRANCH  17  20
BRANCH  16  22
ATOM     22  C   UNL     1       0.457   4.662  -0.921  0.00  0.00    +0.166 C 
BRANCH  22  23
ATOM     23  O   UNL     1      -0.272   3.720  -1.698  0.00  0.00    -0.394 OA
ATOM     24  H   UNL     1       0.371   3.056  -2.006  0.00  0.00    +0.209 HD
ENDBRANCH  22  23
ENDBRANCH  16  22
ENDBRANCH   1  19
TORSDOF 4
REMARK  Name = 
REMARK  4 active torsions:
REMARK  status: ('A' for Active; 'I' for Inactive)
REMARK    1  A    between atoms: C_3  and  N_10
REMARK    2  A    between atoms: C_5  and  O_9
REMARK    3  A    between atoms: C_6  and  C_7
REMARK    4  A    between atoms: C_7  and  O_8
REMARK                            x       y       z     vdW  Elec       q    Type
REMARK                         _______ _______ _______ _____ _____    ______ ____
ROOT
ATOM      1  O   HOH     1       0.949  -0.374  -0.364  0.00  0.00    -0.410 OA
ATOM      2  H   HOH     0       0.654  -0.496  -1.280  0.00  0.00    +0.205 HD
ATOM      3  H   HOH     0       1.820  -0.798  -0.343  0.00  0.00    +0.205 HD
ENDROOT
TORSDOF 0
