REMARK  Name = 
REMARK  4 active torsions:
REMARK  status: ('A' for Active; 'I' for Inactive)
REMARK    1  A    between atoms: C_3  and  N_10
REMARK    2  A    between atoms: C_5  and  O_9
REMARK    3  A    between atoms: C_6  and  C_7
REMARK    4  A    between atoms: C_7  and  O_8
REMARK                            x       y       z     vdW  Elec       q    Type
REMARK                         _______ _______ _______ _____ _____    ______ ____
ROOT
ATOM      1  N   UNL     1       2.866   2.735   2.618  0.00  0.00    -0.172 N 
ATOM      2  C   UNL     1       4.134   2.154   2.739  0.00  0.00    +0.337 C 
ATOM      3  N   UNL     1       4.599   0.984   3.030  0.00  0.00    +0.025 NA
ATOM      4  C   UNL     1       5.980   0.915   2.965  0.00  0.00    +0.458 C 
ATOM      5  N   UNL     1       6.643   1.565   1.984  0.00  0.00    -0.162 N 
ATOM      6  H   UNL     1       7.623   1.376   1.854  0.00  0.00    +0.255 HD
ATOM      7  C   UNL     1       6.174   2.800   1.538  0.00  0.00    +0.313 C 
ATOM      8  O   UNL     1       6.677   3.410   0.602  0.00  0.00    -0.254 OA
ATOM      9  N   UNL     1       6.655   0.287   3.860  0.00  0.00    -0.120 NA
ATOM     10  H   UNL     1       6.008  -0.069   4.568  0.00  0.00    +0.307 HD
ATOM     11  C   UNL     1       5.127   3.291   2.502  0.00  0.00    +0.325 C 
ATOM     12  N   UNL     1       4.304   4.496   2.202  0.00  0.00    -0.228 NA
ATOM     13  C   UNL     1       3.106   4.093   2.504  0.00  0.00    +0.302 C 
ENDROOT
BRANCH   1  19
ATOM     14  C   UNL     1       2.590   2.569  -0.700  0.00  0.00    +0.012 C 
ATOM     15  C   UNL     1       1.835   2.925   0.354  0.00  0.00    -0.026 C 
ATOM     16  C   UNL     1       0.857   4.098   0.406  0.00  0.00    +0.072 C 
ATOM     17  C   UNL     1      -0.227   3.596   1.376  0.00  0.00    +0.128 C 
ATOM     18  C   UNL     1       0.350   2.361   2.105  0.00  0.00    +0.084 C 
ATOM     19  C   UNL     1       1.824   2.169   1.690  0.00  0.00    +0.203 C 
BRANCH  17  20
ATOM     20  O   UNL     1      -1.464   3.250   0.758  0.00  0.00    -0.391 OA
ATOM     21  H   UNL     1      -1.362   3.281  -0.217  0.00  0.00    +0.210 HD
ENDBRANCH  17  20
BRANCH  16  22
ATOM     22  C   UNL     1       0.369   4.727  -0.900  0.00  0.00    +0.166 C 
BRANCH  22  23
ATOM     23  O   UNL     1      -0.377   3.792  -1.669  0.00  0.00    -0.394 OA
ATOM     24  H   UNL     1       0.265   3.163  -2.042  0.00  0.00    +0.209 HD
ENDBRANCH  22  23
ENDBRANCH  16  22
ENDBRANCH   1  19
TORSDOF 4
REMARK  Name = 
REMARK  4 active torsions:
REMARK  status: ('A' for Active; 'I' for Inactive)
REMARK    1  A    between atoms: C_3  and  N_10
REMARK    2  A    between atoms: C_5  and  O_9
REMARK    3  A    between atoms: C_6  and  C_7
REMARK    4  A    between atoms: C_7  and  O_8
REMARK                            x       y       z     vdW  Elec       q    Type
REMARK                         _______ _______ _______ _____ _____    ______ ____
ROOT
ATOM      1  O   HOH     1       0.883  -0.340  -0.333  0.00  0.00    -0.410 OA
ATOM      2  H   HOH     0       0.759   0.282  -1.066  0.00  0.00    +0.205 HD
ATOM      3  H   HOH     0       1.813  -0.605  -0.400  0.00  0.00    +0.205 HD
ENDROOT
TORSDOF 0
