REMARK  Name = 
REMARK  27 active torsions:
REMARK  status: ('A' for Active; 'I' for Inactive)
REMARK    1  A    between atoms: C_1  and  C_2
REMARK    2  A    between atoms: C_2  and  C_3
REMARK    3  A    between atoms: C_2  and  C_4
REMARK    4  A    between atoms: C_2  and  C_5
REMARK    5  A    between atoms: C_5  and  C_7
REMARK    6  A    between atoms: C_5  and  N_51
REMARK    7  A    between atoms: N_9  and  C_10
REMARK    8  A    between atoms: C_10  and  C_12
REMARK    9  A    between atoms: C_10  and  C_19
REMARK   10  A    between atoms: C_12  and  C_13
REMARK   11  A    between atoms: C_19  and  C_21
REMARK   12  A    between atoms: C_19  and  O_50
REMARK   13  A    between atoms: C_21  and  N_22
REMARK   14  A    between atoms: N_22  and  C_23
REMARK   15  A    between atoms: N_22  and  N_36
REMARK   16  A    between atoms: C_23  and  C_24
REMARK   17  A    between atoms: C_27  and  C_30
REMARK   18  A    between atoms: C_37  and  C_39
REMARK   19  A    between atoms: C_39  and  C_41
REMARK   20  A    between atoms: C_39  and  N_45
REMARK   21  A    between atoms: C_41  and  C_42
REMARK   22  A    between atoms: C_41  and  C_43
REMARK   23  A    between atoms: C_41  and  C_44
REMARK   24  A    between atoms: C_46  and  O_48
REMARK   25  A    between atoms: O_48  and  C_49
REMARK   26  A    between atoms: C_52  and  O_54
REMARK   27  A    between atoms: O_54  and  C_55
REMARK                            x       y       z     vdW  Elec       q    Type
REMARK                         _______ _______ _______ _____ _____    ______ ____
ROOT
ATOM      1  N   UNL     1      -0.337  -2.303  -4.735  0.00  0.00    -0.220 NA
ENDROOT
BRANCH   1   2
ATOM      2  N   UNL     1      -0.690  -1.341  -3.770  0.00  0.00    -0.246 N 
ATOM      3  H   UNL     1      -0.946  -1.642  -2.836  0.00  0.00    +0.169 HD
ATOM      4  C   UNL     1      -0.944  -0.025  -4.156  0.00  0.00    +0.248 C 
ATOM      5  O   UNL     1      -0.741   0.398  -5.294  0.00  0.00    -0.272 OA
BRANCH   4   6
ATOM      6  C   UNL     1      -1.510   0.884  -3.031  0.00  0.00    +0.169 C 
BRANCH   6   7
ATOM      7  C   UNL     1      -0.612   2.108  -2.658  0.00  0.00    -0.011 C 
ATOM      8  C   UNL     1      -1.374   3.018  -1.666  0.00  0.00    +0.013 C 
ATOM      9  C   UNL     1      -0.289   2.966  -3.898  0.00  0.00    +0.013 C 
ATOM     10  C   UNL     1       0.711   1.672  -2.007  0.00  0.00    +0.013 C 
ENDBRANCH   6   7
BRANCH   6  11
ATOM     11  N   UNL     1      -1.877   0.093  -1.850  0.00  0.00    -0.269 N 
ATOM     12  H   UNL     1      -1.177  -0.244  -1.204  0.00  0.00    +0.153 HD
ATOM     13  C   UNL     1      -3.169  -0.229  -1.563  0.00  0.00    +0.401 C 
ATOM     14  O   UNL     1      -4.142   0.111  -2.216  0.00  0.00    -0.226 OA
BRANCH  13  15
ATOM     15  O   UNL     1      -3.199  -0.992  -0.446  0.00  0.00    -0.454 OA
ATOM     16  C   UNL     1      -4.523  -1.344  -0.038  0.00  0.00    +0.282 C 
ENDBRANCH  13  15
ENDBRANCH   6  11
ENDBRANCH   4   6
ENDBRANCH   1   2
BRANCH   1  17
ATOM     17  C   UNL     1       0.603  -3.307  -4.246  0.00  0.00    +0.139 C 
BRANCH  17  18
ATOM     18  C   UNL     1       1.283  -4.274  -5.255  0.00  0.00    +0.151 C 
BRANCH  18  19
ATOM     19  O   UNL     1       2.207  -5.091  -4.495  0.00  0.00    -0.389 OA
ATOM     20  H   UNL     1       1.674  -5.781  -4.059  0.00  0.00    +0.210 HD
ENDBRANCH  18  19
BRANCH  18  21
ATOM     21  C   UNL     1       2.082  -3.629  -6.434  0.00  0.00    +0.107 C 
BRANCH  21  23
ATOM     22  C   UNL     1       2.104  -5.629  -7.963  0.00  0.00    +0.234 C 
ATOM     23  N   UNL     1       2.777  -4.665  -7.230  0.00  0.00    -0.308 N 
ATOM     24  H   UNL     1       3.753  -4.819  -7.015  0.00  0.00    +0.149 HD
ATOM     25  O   UNL     1       0.883  -5.767  -7.918  0.00  0.00    -0.274 OA
BRANCH  22  26
ATOM     26  C   UNL     1       3.006  -6.605  -8.757  0.00  0.00    +0.167 C 
BRANCH  26  27
ATOM     27  N   UNL     1       4.164  -5.845  -9.244  0.00  0.00    -0.269 N 
ATOM     28  H   UNL     1       4.273  -4.887  -8.935  0.00  0.00    +0.153 HD
ATOM     29  C   UNL     1       4.743  -6.044 -10.457  0.00  0.00    +0.401 C 
ATOM     30  O   UNL     1       4.501  -6.952 -11.235  0.00  0.00    -0.226 OA
BRANCH  29  31
ATOM     31  O   UNL     1       5.636  -5.044 -10.660  0.00  0.00    -0.454 OA
ATOM     32  C   UNL     1       6.374  -5.095 -11.882  0.00  0.00    +0.282 C 
ENDBRANCH  29  31
ENDBRANCH  26  27
BRANCH  26  34
ATOM     33  C   UNL     1       2.096  -8.599  -7.450  0.00  0.00    +0.013 C 
ATOM     34  C   UNL     1       3.379  -7.876  -7.923  0.00  0.00    -0.011 C 
ATOM     35  C   UNL     1       4.168  -8.878  -8.789  0.00  0.00    +0.013 C 
ATOM     36  C   UNL     1       4.225  -7.537  -6.682  0.00  0.00    +0.013 C 
ENDBRANCH  26  34
ENDBRANCH  22  26
ENDBRANCH  21  23
BRANCH  21  37
ATOM     37  C   UNL     1       1.195  -2.760  -7.345  0.00  0.00    +0.060 C 
BRANCH  37  38
ATOM     38  C   UNL     1       1.796  -2.208  -8.605  0.00  0.00    -0.046 A 
ATOM     39  C   UNL     1       2.739  -1.182  -8.557  0.00  0.00    +0.004 A 
ATOM     40  C   UNL     1       3.241  -0.651  -9.742  0.00  0.00    +0.000 A 
ATOM     41  C   UNL     1       2.808  -1.141 -10.968  0.00  0.00    +0.000 A 
ATOM     42  C   UNL     1       1.838  -2.145 -11.025  0.00  0.00    +0.000 A 
ATOM     43  C   UNL     1       1.330  -2.671  -9.844  0.00  0.00    +0.004 A 
ENDBRANCH  37  38
ENDBRANCH  21  37
ENDBRANCH  18  21
ENDBRANCH  17  18
ENDBRANCH   1  17
BRANCH   1  44
ATOM     44  C   UNL     1      -1.454  -2.731  -5.585  0.00  0.00    +0.140 C 
BRANCH  44  45
ATOM     45  C   UNL     1      -2.524  -3.607  -5.011  0.00  0.00    -0.032 A 
ATOM     46  C   UNL     1      -2.510  -4.987  -5.261  0.00  0.00    +0.005 A 
ATOM     47  C   UNL     1      -3.628  -5.769  -4.974  0.00  0.00    +0.010 A 
ATOM     48  C   UNL     1      -4.792  -5.198  -4.435  0.00  0.00    +0.000 A 
ATOM     49  C   UNL     1      -4.763  -3.824  -4.128  0.00  0.00    +0.010 A 
ATOM     50  C   UNL     1      -3.648  -3.037  -4.411  0.00  0.00    +0.005 A 
BRANCH  48  51
ATOM     51  C   UNL     1      -5.999  -6.015  -4.218  0.00  0.00    +0.071 A 
ATOM     52  N   UNL     1      -5.782  -7.311  -3.877  0.00  0.00    -0.255 NA
ATOM     53  C   UNL     1      -6.860  -8.080  -3.613  0.00  0.00    +0.111 A 
ATOM     54  C   UNL     1      -8.165  -7.624  -3.671  0.00  0.00    +0.020 A 
ATOM     55  C   UNL     1      -8.381  -6.310  -4.057  0.00  0.00    +0.004 A 
ATOM     56  C   UNL     1      -7.289  -5.497  -4.346  0.00  0.00    +0.028 A 
ENDBRANCH  48  51
ENDBRANCH  44  45
ENDBRANCH   1  44
TORSDOF 19
