REMARK  Name = 
REMARK  12 active torsions:
REMARK  status: ('A' for Active; 'I' for Inactive)
REMARK    1  A    between atoms: C_1  and  C_2
REMARK    2  A    between atoms: C_2  and  C_3
REMARK    3  A    between atoms: C_3  and  C_4
REMARK    4  A    between atoms: C_3  and  C_6
REMARK    5  A    between atoms: C_4  and  C_5
REMARK    6  A    between atoms: C_6  and  C_7
REMARK    7  A    between atoms: C_6  and  N_24
REMARK    8  A    between atoms: C_9  and  N_20
REMARK    9  A    between atoms: C_12  and  C_17
REMARK   10  A    between atoms: C_14  and  O_16
REMARK   11  A    between atoms: C_17  and  O_19
REMARK   12  A    between atoms: C_25  and  C_27
REMARK                            x       y       z     vdW  Elec       q    Type
REMARK                         _______ _______ _______ _____ _____    ______ ____
ROOT
ATOM      1  C   UNL     1       5.027   0.662   1.461  0.00  0.00    +0.079 C 
ATOM      2  C   UNL     1       4.771   1.268   2.858  0.00  0.00    +0.137 C 
ATOM      3  C   UNL     1       4.941   2.790   2.707  0.00  0.00    +0.130 C 
ATOM      4  C   UNL     1       5.463   2.997   1.284  0.00  0.00    +0.062 C 
ATOM      5  C   UNL     1       4.792   1.854   0.520  0.00  0.00    +0.196 C 
ENDROOT
BRANCH   5   6
ATOM      6  N   UNL     1       5.421   1.630  -0.765  0.00  0.00    -0.110 NA
ATOM      7  C   UNL     1       4.926   2.145  -1.826  0.00  0.00    +0.377 C 
ATOM      8  N   UNL     1       5.492   1.857  -3.016  0.00  0.00    -0.289 N 
ATOM      9  H   UNL     1       5.584   2.619  -3.671  0.00  0.00    +0.255 HD
ATOM     10  H   UNL     1       6.371   1.365  -2.884  0.00  0.00    +0.255 HD
ATOM     11  N   UNL     1       3.847   2.942  -1.972  0.00  0.00    -0.289 N 
ATOM     12  H   UNL     1       3.796   3.503  -2.809  0.00  0.00    +0.255 HD
ATOM     13  H   UNL     1       3.496   3.408  -1.149  0.00  0.00    +0.255 HD
ENDBRANCH   5   6
BRANCH   2  14
ATOM     14  O   UNL     1       3.476   1.021   3.394  0.00  0.00    -0.391 OA
ATOM     15  H   UNL     1       2.808   1.278   2.730  0.00  0.00    +0.210 HD
ENDBRANCH   2  14
BRANCH   3  16
ATOM     16  C   UNL     1       5.847   3.349   3.778  0.00  0.00    +0.310 C 
ATOM     17  O   UNL     1       6.879   3.967   3.574  0.00  0.00    -0.251 OA
BRANCH  16  18
ATOM     18  O   UNL     1       5.359   3.149   5.026  0.00  0.00    -0.480 OA
ATOM     19  H   UNL     1       4.517   2.647   5.049  0.00  0.00    +0.295 HD
ENDBRANCH  16  18
ENDBRANCH   3  16
BRANCH   1  20
ATOM     20  C   UNL     1       4.424  -0.737   1.126  0.00  0.00    +0.085 C 
BRANCH  20  21
ATOM     21  N   UNL     1       4.967  -1.682   2.126  0.00  0.00    -0.312 N 
ATOM     22  H   UNL     1       4.642  -1.588   3.080  0.00  0.00    +0.149 HD
ATOM     23  C   UNL     1       5.961  -2.593   1.845  0.00  0.00    +0.210 C 
ATOM     24  C   UNL     1       6.402  -3.415   3.027  0.00  0.00    +0.109 C 
ATOM     25  O   UNL     1       6.464  -2.744   0.737  0.00  0.00    -0.276 OA
ENDBRANCH  20  21
BRANCH  20  26
ATOM     26  C   UNL     1       2.871  -0.948   1.022  0.00  0.00    +0.009 C 
BRANCH  26  28
ATOM     27  C   UNL     1       0.697  -0.232  -0.204  0.00  0.00    +0.004 C 
ATOM     28  C   UNL     1       2.201  -0.051  -0.041  0.00  0.00    +0.002 C 
ENDBRANCH  26  28
BRANCH  26  29
ATOM     29  C   UNL     1       2.489  -2.443   0.807  0.00  0.00    +0.002 C 
ATOM     30  C   UNL     1       2.978  -3.069  -0.493  0.00  0.00    +0.004 C 
ENDBRANCH  26  29
ENDBRANCH  20  26
ENDBRANCH   1  20
TORSDOF 9
