REMARK  Name = 
REMARK  12 active torsions:
REMARK  status: ('A' for Active; 'I' for Inactive)
REMARK    1  A    between atoms: C_1  and  C_2
REMARK    2  A    between atoms: C_2  and  C_3
REMARK    3  A    between atoms: C_3  and  C_4
REMARK    4  A    between atoms: C_3  and  C_6
REMARK    5  A    between atoms: C_4  and  C_5
REMARK    6  A    between atoms: C_6  and  C_7
REMARK    7  A    between atoms: C_6  and  N_24
REMARK    8  A    between atoms: C_9  and  N_20
REMARK    9  A    between atoms: C_12  and  C_17
REMARK   10  A    between atoms: C_14  and  O_16
REMARK   11  A    between atoms: C_17  and  O_19
REMARK   12  A    between atoms: C_25  and  C_27
REMARK                            x       y       z     vdW  Elec       q    Type
REMARK                         _______ _______ _______ _____ _____    ______ ____
ROOT
ATOM      1  C   UNL     1       4.948  -1.463  -0.266  0.00  0.00    +0.079 C 
ATOM      2  C   UNL     1       4.606  -2.933  -0.605  0.00  0.00    +0.137 C 
ATOM      3  C   UNL     1       4.450  -3.679   0.730  0.00  0.00    +0.130 C 
ATOM      4  C   UNL     1       5.001  -2.727   1.787  0.00  0.00    +0.062 C 
ATOM      5  C   UNL     1       4.625  -1.354   1.235  0.00  0.00    +0.196 C 
ENDROOT
BRANCH   5   6
ATOM      6  N   UNL     1       5.407  -0.308   1.866  0.00  0.00    -0.110 NA
ATOM      7  C   UNL     1       4.922   0.340   2.861  0.00  0.00    +0.377 C 
ATOM      8  N   UNL     1       5.694   1.266   3.467  0.00  0.00    -0.289 N 
ATOM      9  H   UNL     1       5.237   2.116   3.763  0.00  0.00    +0.255 HD
ATOM     10  H   UNL     1       6.535   1.449   2.929  0.00  0.00    +0.255 HD
ATOM     11  N   UNL     1       3.721   0.230   3.476  0.00  0.00    -0.289 N 
ATOM     12  H   UNL     1       3.387   1.022   3.997  0.00  0.00    +0.255 HD
ATOM     13  H   UNL     1       2.996  -0.313   3.038  0.00  0.00    +0.255 HD
ENDBRANCH   5   6
BRANCH   2  14
ATOM     14  O   UNL     1       3.417  -3.123  -1.363  0.00  0.00    -0.391 OA
ATOM     15  H   UNL     1       2.672  -2.726  -0.876  0.00  0.00    +0.210 HD
ENDBRANCH   2  14
BRANCH   3  16
ATOM     16  C   UNL     1       5.152  -5.017   0.701  0.00  0.00    +0.310 C 
ATOM     17  O   UNL     1       6.014  -5.376   1.486  0.00  0.00    -0.251 OA
BRANCH  16  18
ATOM     18  O   UNL     1       4.669  -5.836  -0.264  0.00  0.00    -0.480 OA
ATOM     19  H   UNL     1       3.975  -5.426  -0.822  0.00  0.00    +0.295 HD
ENDBRANCH  16  18
ENDBRANCH   3  16
BRANCH   1  20
ATOM     20  C   UNL     1       4.469  -0.327  -1.230  0.00  0.00    +0.085 C 
BRANCH  20  21
ATOM     21  N   UNL     1       5.102  -0.576  -2.544  0.00  0.00    -0.312 N 
ATOM     22  H   UNL     1       4.837  -1.420  -3.036  0.00  0.00    +0.149 HD
ATOM     23  C   UNL     1       6.076   0.234  -3.086  0.00  0.00    +0.210 C 
ATOM     24  C   UNL     1       6.584  -0.216  -4.432  0.00  0.00    +0.109 C 
ATOM     25  O   UNL     1       6.512   1.244  -2.544  0.00  0.00    -0.276 OA
ENDBRANCH  20  21
BRANCH  20  26
ATOM     26  C   UNL     1       2.929  -0.053  -1.448  0.00  0.00    +0.009 C 
BRANCH  26  28
ATOM     27  C   UNL     1       0.677   0.533  -0.271  0.00  0.00    +0.004 C 
ATOM     28  C   UNL     1       2.161   0.225  -0.139  0.00  0.00    +0.002 C 
ENDBRANCH  26  28
BRANCH  26  29
ATOM     29  C   UNL     1       2.648   1.053  -2.505  0.00  0.00    +0.002 C 
ATOM     30  C   UNL     1       3.122   2.452  -2.141  0.00  0.00    +0.004 C 
ENDBRANCH  26  29
ENDBRANCH  20  26
ENDBRANCH   1  20
TORSDOF 9
