REMARK  Name = 
REMARK  3 active torsions:
REMARK  status: ('A' for Active; 'I' for Inactive)
REMARK    1  A    between atoms: C_1  and  C_2
REMARK    2  A    between atoms: C_2  and  C_3
REMARK    3  A    between atoms: C_2  and  N_13
REMARK                            x       y       z     vdW  Elec       q    Type
REMARK                         _______ _______ _______ _____ _____    ______ ____
ROOT
ATOM      1  C   UNL     1       3.007   0.304  -1.307  0.00  0.00    -0.014 C 
ATOM      2  C   UNL     1       3.403  -1.144  -1.745  0.00  0.00    +0.012 C 
ATOM      3  C   UNL     1       3.888  -1.162  -3.210  0.00  0.00    -0.010 C 
ATOM      4  C   UNL     1       5.120  -0.243  -3.354  0.00  0.00    +0.007 C 
ATOM      5  C   UNL     1       4.734   1.198  -2.959  0.00  0.00    -0.010 C 
ATOM      6  C   UNL     1       3.603   1.699  -3.883  0.00  0.00    +0.007 C 
ATOM      7  C   UNL     1       2.375   0.775  -3.740  0.00  0.00    -0.010 C 
ATOM      8  C   UNL     1       2.760  -0.664  -4.134  0.00  0.00    +0.007 C 
ATOM      9  C   UNL     1       1.885   0.798  -2.276  0.00  0.00    +0.012 C 
ATOM     10  C   UNL     1       4.254   1.223  -1.489  0.00  0.00    +0.012 C 
ENDROOT
BRANCH   1  12
ATOM     11  C   UNL     1       2.040   1.682   0.709  0.00  0.00    +0.024 C 
ATOM     12  C   UNL     1       2.470   0.301   0.181  0.00  0.00    +0.054 C 
BRANCH  12  13
ATOM     13  N   UNL     1       3.425  -0.266   1.141  0.00  0.00    -0.327 NA
ATOM     14  H   UNL     1       3.592  -1.282   0.970  0.00  0.00    +0.118 HD
ATOM     15  H   UNL     1       4.325   0.263   1.158  0.00  0.00    +0.118 HD
ENDBRANCH  12  13
ENDBRANCH   1  12
TORSDOF 2
REMARK  Name = 
REMARK  3 active torsions:
REMARK  status: ('A' for Active; 'I' for Inactive)
REMARK    1  A    between atoms: C_1  and  C_2
REMARK    2  A    between atoms: C_2  and  C_3
REMARK    3  A    between atoms: C_2  and  N_13
REMARK                            x       y       z     vdW  Elec       q    Type
REMARK                         _______ _______ _______ _____ _____    ______ ____
ROOT
ATOM      1 CL   UNL     1       0.976  -3.201   0.506  0.00  0.00    -0.145 Cl
ATOM      2  H   UNL     1       0.498  -2.443  -0.538  0.00  0.00    +0.145 HD
ENDROOT
TORSDOF 0
