REMARK  Name = 
REMARK  3 active torsions:
REMARK  status: ('A' for Active; 'I' for Inactive)
REMARK    1  A    between atoms: C_1  and  C_2
REMARK    2  A    between atoms: C_2  and  C_3
REMARK    3  A    between atoms: C_2  and  N_13
REMARK                            x       y       z     vdW  Elec       q    Type
REMARK                         _______ _______ _______ _____ _____    ______ ____
ROOT
ATOM      1  C   UNL     1       2.854  -1.433   0.699  0.00  0.00    -0.014 C 
ATOM      2  C   UNL     1       2.358  -2.796   0.118  0.00  0.00    +0.012 C 
ATOM      3  C   UNL     1       2.784  -3.967   1.031  0.00  0.00    -0.010 C 
ATOM      4  C   UNL     1       2.171  -3.774   2.433  0.00  0.00    +0.007 C 
ATOM      5  C   UNL     1       2.677  -2.446   3.037  0.00  0.00    -0.010 C 
ATOM      6  C   UNL     1       4.216  -2.486   3.146  0.00  0.00    +0.007 C 
ATOM      7  C   UNL     1       4.826  -2.682   1.742  0.00  0.00    -0.010 C 
ATOM      8  C   UNL     1       4.321  -4.007   1.137  0.00  0.00    +0.007 C 
ATOM      9  C   UNL     1       4.409  -1.509   0.832  0.00  0.00    +0.012 C 
ATOM     10  C   UNL     1       2.251  -1.268   2.132  0.00  0.00    +0.012 C 
ENDROOT
BRANCH   1  12
ATOM     11  C   UNL     1       2.998   1.122   0.144  0.00  0.00    +0.024 C 
ATOM     12  C   UNL     1       2.451  -0.254  -0.272  0.00  0.00    +0.054 C 
BRANCH  12  13
ATOM     13  N   UNL     1       0.998  -0.134  -0.461  0.00  0.00    -0.327 NA
ATOM     14  H   UNL     1       0.599  -0.968  -0.945  0.00  0.00    +0.118 HD
ATOM     15  H   UNL     1       0.496   0.052   0.434  0.00  0.00    +0.118 HD
ENDBRANCH  12  13
ENDBRANCH   1  12
TORSDOF 2
REMARK  Name = 
REMARK  3 active torsions:
REMARK  status: ('A' for Active; 'I' for Inactive)
REMARK    1  A    between atoms: C_1  and  C_2
REMARK    2  A    between atoms: C_2  and  C_3
REMARK    3  A    between atoms: C_2  and  N_13
REMARK                            x       y       z     vdW  Elec       q    Type
REMARK                         _______ _______ _______ _____ _____    ______ ____
ROOT
ATOM      1 CL   UNL     1       0.403   2.987   1.804  0.00  0.00    -0.145 Cl
ATOM      2  H   UNL     1       0.582   1.708   2.280  0.00  0.00    +0.145 HD
ENDROOT
TORSDOF 0
