REMARK  Name = 
REMARK  12 active torsions:
REMARK  status: ('A' for Active; 'I' for Inactive)
REMARK    1  A    between atoms: C_1  and  C_2
REMARK    2  A    between atoms: C_2  and  C_3
REMARK    3  A    between atoms: C_3  and  C_4
REMARK    4  A    between atoms: C_3  and  C_6
REMARK    5  A    between atoms: C_4  and  C_5
REMARK    6  A    between atoms: C_6  and  C_8
REMARK    7  A    between atoms: C_6  and  N_25
REMARK    8  A    between atoms: C_10  and  N_21
REMARK    9  A    between atoms: C_13  and  C_18
REMARK   10  A    between atoms: C_15  and  O_17
REMARK   11  A    between atoms: C_18  and  O_20
REMARK   12  A    between atoms: C_26  and  C_28
REMARK                            x       y       z     vdW  Elec       q    Type
REMARK                         _______ _______ _______ _____ _____    ______ ____
ROOT
ATOM      1  C   UNL     1       5.011   0.466   1.491  0.00  0.00    +0.079 C 
ATOM      2  C   UNL     1       4.823   0.918   2.956  0.00  0.00    +0.137 C 
ATOM      3  C   UNL     1       4.816   2.455   2.951  0.00  0.00    +0.130 C 
ATOM      4  C   UNL     1       5.290   2.853   1.557  0.00  0.00    +0.062 C 
ATOM      5  C   UNL     1       4.705   1.744   0.689  0.00  0.00    +0.196 C 
ENDROOT
BRANCH   5   6
ATOM      6  N   UNL     1       5.345   1.711  -0.611  0.00  0.00    -0.110 NA
ATOM      7  C   UNL     1       4.805   2.291  -1.616  0.00  0.00    +0.377 C 
ATOM      8  N   UNL     1       5.396   2.192  -2.825  0.00  0.00    -0.289 N 
ATOM      9  H   UNL     1       5.413   3.023  -3.395  0.00  0.00    +0.255 HD
ATOM     10  H   UNL     1       6.318   1.771  -2.743  0.00  0.00    +0.255 HD
ATOM     11  N   UNL     1       3.665   3.005  -1.689  0.00  0.00    -0.289 N 
ATOM     12  H   UNL     1       3.568   3.653  -2.458  0.00  0.00    +0.255 HD
ATOM     13  H   UNL     1       3.266   3.342  -0.827  0.00  0.00    +0.255 HD
ENDBRANCH   5   6
BRANCH   2  14
ATOM     14  O   UNL     1       3.630   0.470   3.591  0.00  0.00    -0.391 OA
ATOM     15  H   UNL     1       2.868   0.765   3.060  0.00  0.00    +0.210 HD
ENDBRANCH   2  14
BRANCH   3  16
ATOM     16  C   UNL     1       5.669   3.016   4.061  0.00  0.00    +0.310 C 
ATOM     17  O   UNL     1       6.575   3.818   3.908  0.00  0.00    -0.251 OA
BRANCH  16  18
ATOM     18  O   UNL     1       5.278   2.593   5.286  0.00  0.00    -0.480 OA
ATOM     19  H   UNL     1       4.530   1.959   5.267  0.00  0.00    +0.295 HD
ENDBRANCH  16  18
ENDBRANCH   3  16
BRANCH   1  20
ATOM     20  C   UNL     1       4.413  -0.912   1.052  0.00  0.00    +0.085 C 
BRANCH  20  21
ATOM     21  N   UNL     1       4.989  -1.936   1.948  0.00  0.00    -0.312 N 
ATOM     22  H   UNL     1       4.683  -1.929   2.918  0.00  0.00    +0.149 HD
ATOM     23  C   UNL     1       5.967  -2.825   1.565  0.00  0.00    +0.210 C 
ATOM     24  C   UNL     1       6.428  -3.758   2.655  0.00  0.00    +0.109 C 
ATOM     25  O   UNL     1       6.450  -2.871   0.439  0.00  0.00    -0.276 OA
ENDBRANCH  20  21
BRANCH  20  26
ATOM     26  C   UNL     1       2.852  -1.113   0.963  0.00  0.00    +0.009 C 
BRANCH  26  28
ATOM     27  C   UNL     1       0.683  -0.271  -0.229  0.00  0.00    +0.004 C 
ATOM     28  C   UNL     1       2.191  -0.169  -0.065  0.00  0.00    +0.002 C 
ENDBRANCH  26  28
BRANCH  26  29
ATOM     29  C   UNL     1       2.444  -2.592   0.701  0.00  0.00    +0.002 C 
ATOM     30  C   UNL     1       2.913  -3.185  -0.620  0.00  0.00    +0.004 C 
ENDBRANCH  26  29
ENDBRANCH  20  26
ENDBRANCH   1  20
TORSDOF 9
