REMARK  Name = 
REMARK  12 active torsions:
REMARK  status: ('A' for Active; 'I' for Inactive)
REMARK    1  A    between atoms: C_1  and  C_2
REMARK    2  A    between atoms: C_2  and  C_3
REMARK    3  A    between atoms: C_3  and  C_4
REMARK    4  A    between atoms: C_3  and  C_6
REMARK    5  A    between atoms: C_4  and  C_5
REMARK    6  A    between atoms: C_6  and  C_8
REMARK    7  A    between atoms: C_6  and  N_25
REMARK    8  A    between atoms: C_10  and  N_21
REMARK    9  A    between atoms: C_13  and  C_18
REMARK   10  A    between atoms: C_15  and  O_17
REMARK   11  A    between atoms: C_18  and  O_20
REMARK   12  A    between atoms: C_26  and  C_28
REMARK                            x       y       z     vdW  Elec       q    Type
REMARK                         _______ _______ _______ _____ _____    ______ ____
ROOT
ATOM      1  C   UNL     1       4.983  -0.088  -1.293  0.00  0.00    +0.079 C 
ATOM      2  C   UNL     1       4.705  -0.404  -2.775  0.00  0.00    +0.137 C 
ATOM      3  C   UNL     1       5.116  -1.872  -2.985  0.00  0.00    +0.130 C 
ATOM      4  C   UNL     1       5.500  -2.395  -1.601  0.00  0.00    +0.062 C 
ATOM      5  C   UNL     1       4.768  -1.459  -0.629  0.00  0.00    +0.196 C 
ENDROOT
BRANCH   5   6
ATOM      6  N   UNL     1       5.393  -1.577   0.676  0.00  0.00    -0.110 NA
ATOM      7  C   UNL     1       4.871  -2.321   1.584  0.00  0.00    +0.377 C 
ATOM      8  N   UNL     1       5.583  -2.608   2.688  0.00  0.00    -0.289 N 
ATOM      9  H   UNL     1       5.103  -2.679   3.571  0.00  0.00    +0.255 HD
ATOM     10  H   UNL     1       6.441  -2.069   2.737  0.00  0.00    +0.255 HD
ATOM     11  N   UNL     1       3.684  -2.972   1.588  0.00  0.00    -0.289 N 
ATOM     12  H   UNL     1       3.332  -3.258   2.490  0.00  0.00    +0.255 HD
ATOM     13  H   UNL     1       2.961  -2.607   0.987  0.00  0.00    +0.255 HD
ENDBRANCH   5   6
BRANCH   2  14
ATOM     14  O   UNL     1       3.335  -0.285  -3.153  0.00  0.00    -0.391 OA
ATOM     15  H   UNL     1       2.796  -0.848  -2.568  0.00  0.00    +0.210 HD
ENDBRANCH   2  14
BRANCH   3  16
ATOM     16  C   UNL     1       6.219  -1.986  -4.011  0.00  0.00    +0.310 C 
ATOM     17  O   UNL     1       7.328  -2.451  -3.815  0.00  0.00    -0.251 OA
BRANCH  16  18
ATOM     18  O   UNL     1       5.828  -1.568  -5.240  0.00  0.00    -0.480 OA
ATOM     19  H   UNL     1       4.906  -1.242  -5.271  0.00  0.00    +0.295 HD
ENDBRANCH  16  18
ENDBRANCH   3  16
BRANCH   1  20
ATOM     20  C   UNL     1       4.340   1.216  -0.710  0.00  0.00    +0.085 C 
BRANCH  20  21
ATOM     21  N   UNL     1       4.866   2.399  -1.445  0.00  0.00    -0.312 N 
ATOM     22  H   UNL     1       4.216   2.942  -1.999  0.00  0.00    +0.149 HD
ATOM     23  C   UNL     1       6.172   2.843  -1.406  0.00  0.00    +0.210 C 
ATOM     24  C   UNL     1       6.365   4.188  -2.061  0.00  0.00    +0.109 C 
ATOM     25  O   UNL     1       7.099   2.236  -0.884  0.00  0.00    -0.276 OA
ENDBRANCH  20  21
BRANCH  20  26
ATOM     26  C   UNL     1       2.766   1.353  -0.634  0.00  0.00    +0.009 C 
BRANCH  26  28
ATOM     27  C   UNL     1       0.581   0.294   0.305  0.00  0.00    +0.004 C 
ATOM     28  C   UNL     1       2.096   0.221   0.169  0.00  0.00    +0.002 C 
ENDBRANCH  26  28
BRANCH  26  29
ATOM     29  C   UNL     1       2.291   2.750  -0.129  0.00  0.00    +0.002 C 
ATOM     30  C   UNL     1       2.699   3.109   1.292  0.00  0.00    +0.004 C 
ENDBRANCH  26  29
ENDBRANCH  20  26
ENDBRANCH   1  20
TORSDOF 9
