REMARK  Name = 
REMARK  5 active torsions:
REMARK  status: ('A' for Active; 'I' for Inactive)
REMARK    1  A    between atoms: C_1  and  C_2
REMARK    2  A    between atoms: N_4  and  C_10
REMARK    3  A    between atoms: C_13  and  N_20
REMARK    4  A    between atoms: C_15  and  C_18
REMARK    5  A    between atoms: C_18  and  O_19
REMARK                            x       y       z     vdW  Elec       q    Type
REMARK                         _______ _______ _______ _____ _____    ______ ____
ROOT
ATOM      1  C   UNL     1       1.755  -2.819  -2.085  0.00  0.00    +0.212 C 
ATOM      2  O   UNL     1       0.635  -2.681  -1.196  0.00  0.00    -0.351 OA
ATOM      3  C   UNL     1       0.102  -3.995  -0.918  0.00  0.00    +0.177 C 
ATOM      4  C   UNL     1       1.022  -5.014  -1.597  0.00  0.00    +0.226 C 
ATOM      5  C   UNL     1       2.289  -4.222  -1.836  0.00  0.00    +0.088 C 
ENDROOT
BRANCH   1  14
ATOM      6  C   UNL     1       1.641   0.535  -3.665  0.00  0.00    +0.019 C 
ATOM      7  C   UNL     1       2.461   0.683  -2.387  0.00  0.00    +0.090 C 
ATOM      8  C   UNL     1       3.939   0.664  -2.693  0.00  0.00    +0.225 C 
ATOM      9  O   UNL     1       4.537   1.656  -3.103  0.00  0.00    -0.275 OA
ATOM     10  N   UNL     1       4.565  -0.550  -2.591  0.00  0.00    -0.240 N 
ATOM     11  H   UNL     1       5.493  -0.590  -2.987  0.00  0.00    +0.159 HD
ATOM     12  C   UNL     1       3.941  -1.760  -2.437  0.00  0.00    +0.310 C 
ATOM     13  O   UNL     1       4.484  -2.776  -2.854  0.00  0.00    -0.252 OA
ATOM     14  N   UNL     1       2.683  -1.717  -1.864  0.00  0.00    -0.259 N 
ATOM     15  C   UNL     1       2.185  -0.430  -1.388  0.00  0.00    +0.124 C 
ENDBRANCH   1  14
BRANCH   4  16
ATOM     16  N   UNL     1       0.432  -5.395  -2.899  0.00  0.00    +0.082 NA
ATOM     17  N   UNL     1       0.787  -6.496  -3.358  0.00  0.00    -0.014 NA
ATOM     18  N   UNL     1       1.111  -7.504  -3.778  0.00  0.00    -0.328 NA
ENDBRANCH   4  16
BRANCH   3  19
ATOM     19  C   UNL     1       0.025  -4.164   0.602  0.00  0.00    +0.189 C 
BRANCH  19  20
ATOM     20  O   UNL     1       1.309  -4.025   1.204  0.00  0.00    -0.392 OA
ATOM     21  H   UNL     1       1.612  -3.123   0.983  0.00  0.00    +0.210 HD
ENDBRANCH  19  20
ENDBRANCH   3  19
TORSDOF 4
