REMARK  Name = 
REMARK  5 active torsions:
REMARK  status: ('A' for Active; 'I' for Inactive)
REMARK    1  A    between atoms: C_1  and  C_2
REMARK    2  A    between atoms: N_4  and  C_10
REMARK    3  A    between atoms: C_13  and  N_20
REMARK    4  A    between atoms: C_15  and  C_18
REMARK    5  A    between atoms: C_18  and  O_19
REMARK                            x       y       z     vdW  Elec       q    Type
REMARK                         _______ _______ _______ _____ _____    ______ ____
ROOT
ATOM      1  C   UNL     1       1.656  -2.800  -2.062  0.00  0.00    +0.212 C 
ATOM      2  O   UNL     1       0.532  -2.688  -1.179  0.00  0.00    -0.351 OA
ATOM      3  C   UNL     1       0.017  -4.014  -0.944  0.00  0.00    +0.177 C 
ATOM      4  C   UNL     1       1.001  -5.009  -1.580  0.00  0.00    +0.226 C 
ATOM      5  C   UNL     1       2.248  -4.175  -1.806  0.00  0.00    +0.088 C 
ENDROOT
BRANCH   1  14
ATOM      6  C   UNL     1       1.181  -0.090   0.449  0.00  0.00    +0.019 C 
ATOM      7  C   UNL     1       2.667  -0.129   0.099  0.00  0.00    +0.090 C 
ATOM      8  C   UNL     1       2.996   0.942  -0.913  0.00  0.00    +0.225 C 
ATOM      9  O   UNL     1       3.153   2.119  -0.589  0.00  0.00    -0.275 OA
ATOM     10  N   UNL     1       3.009   0.561  -2.231  0.00  0.00    -0.240 N 
ATOM     11  H   UNL     1       3.047   1.315  -2.901  0.00  0.00    +0.159 HD
ATOM     12  C   UNL     1       2.574  -0.643  -2.724  0.00  0.00    +0.310 C 
ATOM     13  O   UNL     1       2.219  -0.740  -3.894  0.00  0.00    -0.252 OA
ATOM     14  N   UNL     1       2.524  -1.669  -1.802  0.00  0.00    -0.259 N 
ATOM     15  C   UNL     1       3.103  -1.461  -0.487  0.00  0.00    +0.124 C 
ENDBRANCH   1  14
BRANCH   4  16
ATOM     16  N   UNL     1       0.499  -5.444  -2.900  0.00  0.00    +0.082 NA
ATOM     17  N   UNL     1      -0.197  -6.476  -2.907  0.00  0.00    -0.014 NA
ATOM     18  N   UNL     1      -0.840  -7.417  -2.901  0.00  0.00    -0.328 NA
ENDBRANCH   4  16
BRANCH   3  19
ATOM     19  C   UNL     1      -0.157  -4.203   0.565  0.00  0.00    +0.189 C 
BRANCH  19  20
ATOM     20  O   UNL     1       1.086  -4.094   1.257  0.00  0.00    -0.392 OA
ATOM     21  H   UNL     1       1.258  -3.138   1.338  0.00  0.00    +0.210 HD
ENDBRANCH  19  20
ENDBRANCH   3  19
TORSDOF 4
