REMARK  Name = 
REMARK  29 active torsions:
REMARK  status: ('A' for Active; 'I' for Inactive)
REMARK    1  A    between atoms: C_1  and  C_2
REMARK    2  A    between atoms: C_2  and  C_3
REMARK    3  A    between atoms: C_2  and  C_4
REMARK    4  A    between atoms: C_2  and  C_5
REMARK    5  A    between atoms: C_5  and  C_7
REMARK    6  A    between atoms: C_5  and  N_51
REMARK    7  A    between atoms: N_9  and  C_10
REMARK    8  A    between atoms: C_10  and  C_12
REMARK    9  A    between atoms: C_10  and  C_19
REMARK   10  A    between atoms: C_12  and  C_13
REMARK   11  A    between atoms: C_19  and  C_21
REMARK   12  A    between atoms: C_19  and  O_50
REMARK   13  A    between atoms: C_21  and  N_22
REMARK   14  A    between atoms: N_22  and  C_23
REMARK   15  A    between atoms: N_22  and  N_36
REMARK   16  A    between atoms: C_23  and  C_24
REMARK   17  A    between atoms: C_27  and  C_30
REMARK   18  A    between atoms: C_37  and  C_39
REMARK   19  A    between atoms: C_39  and  C_41
REMARK   20  A    between atoms: C_39  and  N_45
REMARK   21  A    between atoms: C_41  and  C_42
REMARK   22  A    between atoms: C_41  and  C_43
REMARK   23  A    between atoms: C_41  and  C_44
REMARK   24  A    between atoms: C_46  and  O_48
REMARK   25  A    between atoms: O_48  and  C_49
REMARK   26  A    between atoms: C_52  and  O_54
REMARK   27  A    between atoms: O_54  and  C_55
REMARK   28  A    between atoms: O_56  and  S_57
REMARK   29  A    between atoms: S_57  and  O_60
REMARK                            x       y       z     vdW  Elec       q    Type
REMARK                         _______ _______ _______ _____ _____    ______ ____
ROOT
ATOM      1  N   UNL     1      -0.529  -4.972   1.948  0.00  0.00    -0.220 NA
ENDROOT
BRANCH   1   2
ATOM      2  N   UNL     1      -1.303  -3.997   1.262  0.00  0.00    -0.246 N 
ATOM      3  H   UNL     1      -1.959  -3.432   1.801  0.00  0.00    +0.169 HD
ATOM      4  C   UNL     1      -0.994  -3.629  -0.056  0.00  0.00    +0.248 C 
ATOM      5  O   UNL     1      -0.095  -4.141  -0.719  0.00  0.00    -0.272 OA
BRANCH   4   6
ATOM      6  C   UNL     1      -1.906  -2.491  -0.623  0.00  0.00    +0.169 C 
BRANCH   6   7
ATOM      7  C   UNL     1      -3.152  -2.976  -1.435  0.00  0.00    -0.011 C 
ATOM      8  C   UNL     1      -4.060  -1.781  -1.815  0.00  0.00    +0.013 C 
ATOM      9  C   UNL     1      -4.000  -3.933  -0.580  0.00  0.00    +0.013 C 
ATOM     10  C   UNL     1      -2.759  -3.686  -2.745  0.00  0.00    +0.013 C 
ENDBRANCH   6   7
BRANCH   6  11
ATOM     11  N   UNL     1      -1.061  -1.584  -1.400  0.00  0.00    -0.269 N 
ATOM     12  H   UNL     1      -0.272  -1.981  -1.902  0.00  0.00    +0.153 HD
ATOM     13  C   UNL     1      -1.153  -0.225  -1.405  0.00  0.00    +0.401 C 
ATOM     14  O   UNL     1      -0.324   0.481  -1.965  0.00  0.00    -0.226 OA
BRANCH  13  15
ATOM     15  O   UNL     1      -2.195   0.237  -0.675  0.00  0.00    -0.454 OA
ATOM     16  C   UNL     1      -2.365   1.654  -0.681  0.00  0.00    +0.282 C 
ENDBRANCH  13  15
ENDBRANCH   6  11
ENDBRANCH   4   6
ENDBRANCH   1   2
BRANCH   1  17
ATOM     17  C   UNL     1       0.264  -4.399   3.046  0.00  0.00    +0.139 C 
BRANCH  17  18
ATOM     18  C   UNL     1       1.332  -5.309   3.713  0.00  0.00    +0.151 C 
BRANCH  18  19
ATOM     19  O   UNL     1       1.907  -4.633   4.834  0.00  0.00    -0.389 OA
ATOM     20  H   UNL     1       1.265  -4.662   5.564  0.00  0.00    +0.210 HD
ENDBRANCH  18  19
BRANCH  18  21
ATOM     21  C   UNL     1       2.435  -5.932   2.786  0.00  0.00    +0.107 C 
BRANCH  21  23
ATOM     22  C   UNL     1       4.719  -4.790   2.410  0.00  0.00    +0.234 C 
ATOM     23  N   UNL     1       3.397  -5.033   2.052  0.00  0.00    -0.308 N 
ATOM     24  H   UNL     1       3.140  -4.834   1.094  0.00  0.00    +0.149 HD
ATOM     25  O   UNL     1       5.167  -5.092   3.520  0.00  0.00    -0.274 OA
BRANCH  22  26
ATOM     26  C   UNL     1       5.672  -4.073   1.352  0.00  0.00    +0.167 C 
BRANCH  26  28
ATOM     27  C   UNL     1       5.542  -5.780  -0.554  0.00  0.00    +0.013 C 
ATOM     28  C   UNL     1       6.481  -4.941   0.317  0.00  0.00    -0.011 C 
ATOM     29  C   UNL     1       7.294  -4.050  -0.665  0.00  0.00    +0.013 C 
ATOM     30  C   UNL     1       7.530  -5.834   1.014  0.00  0.00    +0.013 C 
ENDBRANCH  26  28
BRANCH  26  31
ATOM     31  N   UNL     1       6.626  -3.389   2.228  0.00  0.00    -0.269 N 
ATOM     32  H   UNL     1       6.958  -3.915   3.029  0.00  0.00    +0.153 HD
ATOM     33  C   UNL     1       6.736  -2.058   2.369  0.00  0.00    +0.401 C 
ATOM     34  O   UNL     1       6.182  -1.227   1.655  0.00  0.00    -0.226 OA
BRANCH  33  35
ATOM     35  O   UNL     1       7.515  -1.790   3.439  0.00  0.00    -0.454 OA
ATOM     36  C   UNL     1       7.676  -0.405   3.723  0.00  0.00    +0.282 C 
ENDBRANCH  33  35
ENDBRANCH  26  31
ENDBRANCH  22  26
ENDBRANCH  21  23
BRANCH  21  37
ATOM     37  C   UNL     1       3.109  -7.114   3.558  0.00  0.00    +0.060 C 
BRANCH  37  38
ATOM     38  C   UNL     1       3.922  -7.994   2.640  0.00  0.00    -0.046 A 
ATOM     39  C   UNL     1       3.332  -8.564   1.506  0.00  0.00    +0.004 A 
ATOM     40  C   UNL     1       4.125  -9.136   0.515  0.00  0.00    +0.000 A 
ATOM     41  C   UNL     1       5.506  -9.196   0.680  0.00  0.00    +0.000 A 
ATOM     42  C   UNL     1       6.086  -8.742   1.863  0.00  0.00    +0.000 A 
ATOM     43  C   UNL     1       5.296  -8.143   2.843  0.00  0.00    +0.004 A 
ENDBRANCH  37  38
ENDBRANCH  21  37
ENDBRANCH  18  21
ENDBRANCH  17  18
ENDBRANCH   1  17
BRANCH   1  44
ATOM     44  C   UNL     1      -1.276  -6.217   2.227  0.00  0.00    +0.140 C 
BRANCH  44  45
ATOM     45  C   UNL     1      -2.632  -6.150   2.921  0.00  0.00    -0.032 A 
ATOM     46  C   UNL     1      -2.843  -5.803   4.265  0.00  0.00    +0.005 A 
ATOM     47  C   UNL     1      -4.144  -5.839   4.848  0.00  0.00    +0.010 A 
ATOM     48  C   UNL     1      -5.267  -6.242   4.106  0.00  0.00    +0.000 A 
ATOM     49  C   UNL     1      -5.018  -6.640   2.781  0.00  0.00    +0.010 A 
ATOM     50  C   UNL     1      -3.748  -6.586   2.200  0.00  0.00    +0.005 A 
BRANCH  48  51
ATOM     51  C   UNL     1      -6.675  -6.272   4.584  0.00  0.00    +0.071 A 
ATOM     52  N   UNL     1      -7.594  -6.187   3.581  0.00  0.00    -0.255 NA
ATOM     53  C   UNL     1      -8.907  -6.296   3.868  0.00  0.00    +0.111 A 
ATOM     54  C   UNL     1      -9.388  -6.485   5.143  0.00  0.00    +0.020 A 
ATOM     55  C   UNL     1      -8.461  -6.540   6.180  0.00  0.00    +0.004 A 
ATOM     56  C   UNL     1      -7.093  -6.429   5.903  0.00  0.00    +0.028 A 
ENDBRANCH  48  51
ENDBRANCH  44  45
ENDBRANCH   1  44
TORSDOF 19
REMARK  Name = 
REMARK  29 active torsions:
REMARK  status: ('A' for Active; 'I' for Inactive)
REMARK    1  A    between atoms: C_1  and  C_2
REMARK    2  A    between atoms: C_2  and  C_3
REMARK    3  A    between atoms: C_2  and  C_4
REMARK    4  A    between atoms: C_2  and  C_5
REMARK    5  A    between atoms: C_5  and  C_7
REMARK    6  A    between atoms: C_5  and  N_51
REMARK    7  A    between atoms: N_9  and  C_10
REMARK    8  A    between atoms: C_10  and  C_12
REMARK    9  A    between atoms: C_10  and  C_19
REMARK   10  A    between atoms: C_12  and  C_13
REMARK   11  A    between atoms: C_19  and  C_21
REMARK   12  A    between atoms: C_19  and  O_50
REMARK   13  A    between atoms: C_21  and  N_22
REMARK   14  A    between atoms: N_22  and  C_23
REMARK   15  A    between atoms: N_22  and  N_36
REMARK   16  A    between atoms: C_23  and  C_24
REMARK   17  A    between atoms: C_27  and  C_30
REMARK   18  A    between atoms: C_37  and  C_39
REMARK   19  A    between atoms: C_39  and  C_41
REMARK   20  A    between atoms: C_39  and  N_45
REMARK   21  A    between atoms: C_41  and  C_42
REMARK   22  A    between atoms: C_41  and  C_43
REMARK   23  A    between atoms: C_41  and  C_44
REMARK   24  A    between atoms: C_46  and  O_48
REMARK   25  A    between atoms: O_48  and  C_49
REMARK   26  A    between atoms: C_52  and  O_54
REMARK   27  A    between atoms: O_54  and  C_55
REMARK   28  A    between atoms: O_56  and  S_57
REMARK   29  A    between atoms: S_57  and  O_60
REMARK                            x       y       z     vdW  Elec       q    Type
REMARK                         _______ _______ _______ _____ _____    ______ ____
ROOT
ATOM      1  S   UNL     1       2.841   0.053   0.103  0.00  0.00    +0.205 S 
ATOM      2  O   UNL     1       3.278   1.426   0.122  0.00  0.00    -0.118 OA
ATOM      3  O   UNL     1       3.237  -0.893  -0.912  0.00  0.00    -0.118 OA
ENDROOT
BRANCH   1   4
ATOM      4  O   UNL     1       1.241   0.086   0.103  0.00  0.00    -0.231 OA
ATOM      5  H   UNL     1       0.961   0.587  -0.702  0.00  0.00    +0.247 HD
ENDBRANCH   1   4
BRANCH   1   6
ATOM      6  O   UNL     1       3.137  -0.629   1.522  0.00  0.00    -0.231 OA
ATOM      7  H   UNL     1       3.288  -1.581   1.357  0.00  0.00    +0.247 HD
ENDBRANCH   1   6
TORSDOF 2
