REMARK  Name = 
REMARK  29 active torsions:
REMARK  status: ('A' for Active; 'I' for Inactive)
REMARK    1  A    between atoms: C_1  and  C_2
REMARK    2  A    between atoms: C_2  and  C_3
REMARK    3  A    between atoms: C_2  and  C_4
REMARK    4  A    between atoms: C_2  and  C_5
REMARK    5  A    between atoms: C_5  and  C_7
REMARK    6  A    between atoms: C_5  and  N_51
REMARK    7  A    between atoms: N_9  and  C_10
REMARK    8  A    between atoms: C_10  and  C_12
REMARK    9  A    between atoms: C_10  and  C_19
REMARK   10  A    between atoms: C_12  and  C_13
REMARK   11  A    between atoms: C_19  and  C_21
REMARK   12  A    between atoms: C_19  and  O_50
REMARK   13  A    between atoms: C_21  and  N_22
REMARK   14  A    between atoms: N_22  and  C_23
REMARK   15  A    between atoms: N_22  and  N_36
REMARK   16  A    between atoms: C_23  and  C_24
REMARK   17  A    between atoms: C_27  and  C_30
REMARK   18  A    between atoms: C_37  and  C_39
REMARK   19  A    between atoms: C_39  and  C_41
REMARK   20  A    between atoms: C_39  and  N_45
REMARK   21  A    between atoms: C_41  and  C_42
REMARK   22  A    between atoms: C_41  and  C_43
REMARK   23  A    between atoms: C_41  and  C_44
REMARK   24  A    between atoms: C_46  and  O_48
REMARK   25  A    between atoms: O_48  and  C_49
REMARK   26  A    between atoms: C_52  and  O_54
REMARK   27  A    between atoms: O_54  and  C_55
REMARK   28  A    between atoms: O_56  and  S_57
REMARK   29  A    between atoms: S_57  and  O_60
REMARK                            x       y       z     vdW  Elec       q    Type
REMARK                         _______ _______ _______ _____ _____    ______ ____
ROOT
ATOM      1  N   UNL     1      -1.456   4.162  -3.891  0.00  0.00    -0.220 NA
ENDROOT
BRANCH   1   2
ATOM      2  N   UNL     1      -2.019   3.571  -2.721  0.00  0.00    -0.246 N 
ATOM      3  H   UNL     1      -3.012   3.358  -2.743  0.00  0.00    +0.169 HD
ATOM      4  C   UNL     1      -1.223   3.012  -1.722  0.00  0.00    +0.248 C 
ATOM      5  O   UNL     1       0.003   3.094  -1.671  0.00  0.00    -0.272 OA
BRANCH   4   6
ATOM      6  C   UNL     1      -2.040   2.299  -0.593  0.00  0.00    +0.169 C 
BRANCH   6   7
ATOM      7  C   UNL     1      -2.799   3.273   0.372  0.00  0.00    -0.011 C 
ATOM      8  C   UNL     1      -3.598   2.514   1.450  0.00  0.00    +0.013 C 
ATOM      9  C   UNL     1      -3.831   4.102  -0.391  0.00  0.00    +0.013 C 
ATOM     10  C   UNL     1      -1.813   4.234   1.069  0.00  0.00    +0.013 C 
ENDBRANCH   6   7
BRANCH   6  11
ATOM     11  N   UNL     1      -1.113   1.462   0.166  0.00  0.00    -0.269 N 
ATOM     12  H   UNL     1      -0.173   1.820   0.300  0.00  0.00    +0.153 HD
ATOM     13  C   UNL     1      -1.447   0.254   0.678  0.00  0.00    +0.401 C 
ATOM     14  O   UNL     1      -2.500  -0.339   0.464  0.00  0.00    -0.226 OA
BRANCH  13  15
ATOM     15  O   UNL     1      -0.448  -0.195   1.481  0.00  0.00    -0.454 OA
ATOM     16  C   UNL     1      -0.695  -1.466   2.092  0.00  0.00    +0.282 C 
ENDBRANCH  13  15
ENDBRANCH   6  11
ENDBRANCH   4   6
ENDBRANCH   1   2
BRANCH   1  17
ATOM     17  C   UNL     1      -1.965   3.437  -5.072  0.00  0.00    +0.139 C 
BRANCH  17  18
ATOM     18  C   UNL     1      -1.445   3.808  -6.472  0.00  0.00    +0.151 C 
BRANCH  18  19
ATOM     19  O   UNL     1      -2.220   3.089  -7.461  0.00  0.00    -0.389 OA
ATOM     20  H   UNL     1      -3.147   3.376  -7.378  0.00  0.00    +0.210 HD
ENDBRANCH  18  19
BRANCH  18  21
ATOM     21  C   UNL     1       0.065   3.575  -6.767  0.00  0.00    +0.107 C 
BRANCH  21  23
ATOM     22  C   UNL     1       0.989   1.469  -5.717  0.00  0.00    +0.234 C 
ATOM     23  N   UNL     1       0.399   2.139  -6.783  0.00  0.00    -0.308 N 
ATOM     24  H   UNL     1      -0.084   1.572  -7.471  0.00  0.00    +0.149 HD
ATOM     25  O   UNL     1       1.257   2.054  -4.673  0.00  0.00    -0.274 OA
BRANCH  22  26
ATOM     26  C   UNL     1       1.145  -0.087  -5.911  0.00  0.00    +0.167 C 
BRANCH  26  27
ATOM     27  N   UNL     1       1.123  -0.329  -7.352  0.00  0.00    -0.269 N 
ATOM     28  H   UNL     1       1.737   0.228  -7.931  0.00  0.00    +0.153 HD
ATOM     29  C   UNL     1       0.239  -1.091  -8.035  0.00  0.00    +0.401 C 
ATOM     30  O   UNL     1      -0.635  -1.793  -7.557  0.00  0.00    -0.226 OA
BRANCH  29  31
ATOM     31  O   UNL     1       0.483  -0.889  -9.347  0.00  0.00    -0.454 OA
ATOM     32  C   UNL     1      -0.437  -1.516 -10.234  0.00  0.00    +0.282 C 
ENDBRANCH  29  31
ENDBRANCH  26  27
BRANCH  26  34
ATOM     33  C   UNL     1       2.653  -0.304  -3.826  0.00  0.00    +0.013 C 
ATOM     34  C   UNL     1       2.435  -0.727  -5.283  0.00  0.00    -0.011 C 
ATOM     35  C   UNL     1       2.347  -2.276  -5.259  0.00  0.00    +0.013 C 
ATOM     36  C   UNL     1       3.692  -0.338  -6.085  0.00  0.00    +0.013 C 
ENDBRANCH  26  34
ENDBRANCH  22  26
ENDBRANCH  21  23
BRANCH  21  37
ATOM     37  C   UNL     1       0.322   4.206  -8.165  0.00  0.00    +0.060 C 
BRANCH  37  38
ATOM     38  C   UNL     1       1.735   4.507  -8.605  0.00  0.00    -0.046 A 
ATOM     39  C   UNL     1       2.521   5.444  -7.921  0.00  0.00    +0.004 A 
ATOM     40  C   UNL     1       3.727   5.890  -8.469  0.00  0.00    +0.000 A 
ATOM     41  C   UNL     1       4.161   5.403  -9.701  0.00  0.00    +0.000 A 
ATOM     42  C   UNL     1       3.403   4.450 -10.376  0.00  0.00    +0.000 A 
ATOM     43  C   UNL     1       2.199   4.003  -9.830  0.00  0.00    +0.004 A 
ENDBRANCH  37  38
ENDBRANCH  21  37
ENDBRANCH  18  21
ENDBRANCH  17  18
ENDBRANCH   1  17
BRANCH   1  44
ATOM     44  C   UNL     1      -1.614   5.646  -3.900  0.00  0.00    +0.140 C 
BRANCH  44  45
ATOM     45  C   UNL     1      -3.049   6.144  -3.977  0.00  0.00    -0.032 A 
ATOM     46  C   UNL     1      -3.707   6.226  -5.199  0.00  0.00    +0.005 A 
ATOM     47  C   UNL     1      -5.099   6.278  -5.247  0.00  0.00    +0.010 A 
ATOM     48  C   UNL     1      -5.891   6.299  -4.085  0.00  0.00    +0.000 A 
ATOM     49  C   UNL     1      -5.200   6.465  -2.876  0.00  0.00    +0.010 A 
ATOM     50  C   UNL     1      -3.796   6.428  -2.833  0.00  0.00    +0.005 A 
BRANCH  48  51
ATOM     51  C   UNL     1      -7.366   6.174  -4.196  0.00  0.00    +0.071 A 
ATOM     52  N   UNL     1      -7.840   6.164  -5.472  0.00  0.00    -0.255 NA
ATOM     53  C   UNL     1      -9.172   6.117  -5.673  0.00  0.00    +0.111 A 
ATOM     54  C   UNL     1     -10.094   6.079  -4.649  0.00  0.00    +0.020 A 
ATOM     55  C   UNL     1      -9.616   6.029  -3.347  0.00  0.00    +0.004 A 
ATOM     56  C   UNL     1      -8.239   6.059  -3.114  0.00  0.00    +0.028 A 
ENDBRANCH  48  51
ENDBRANCH  44  45
ENDBRANCH   1  44
TORSDOF 19
REMARK  Name = 
REMARK  29 active torsions:
REMARK  status: ('A' for Active; 'I' for Inactive)
REMARK    1  A    between atoms: C_1  and  C_2
REMARK    2  A    between atoms: C_2  and  C_3
REMARK    3  A    between atoms: C_2  and  C_4
REMARK    4  A    between atoms: C_2  and  C_5
REMARK    5  A    between atoms: C_5  and  C_7
REMARK    6  A    between atoms: C_5  and  N_51
REMARK    7  A    between atoms: N_9  and  C_10
REMARK    8  A    between atoms: C_10  and  C_12
REMARK    9  A    between atoms: C_10  and  C_19
REMARK   10  A    between atoms: C_12  and  C_13
REMARK   11  A    between atoms: C_19  and  C_21
REMARK   12  A    between atoms: C_19  and  O_50
REMARK   13  A    between atoms: C_21  and  N_22
REMARK   14  A    between atoms: N_22  and  C_23
REMARK   15  A    between atoms: N_22  and  N_36
REMARK   16  A    between atoms: C_23  and  C_24
REMARK   17  A    between atoms: C_27  and  C_30
REMARK   18  A    between atoms: C_37  and  C_39
REMARK   19  A    between atoms: C_39  and  C_41
REMARK   20  A    between atoms: C_39  and  N_45
REMARK   21  A    between atoms: C_41  and  C_42
REMARK   22  A    between atoms: C_41  and  C_43
REMARK   23  A    between atoms: C_41  and  C_44
REMARK   24  A    between atoms: C_46  and  O_48
REMARK   25  A    between atoms: O_48  and  C_49
REMARK   26  A    between atoms: C_52  and  O_54
REMARK   27  A    between atoms: O_54  and  C_55
REMARK   28  A    between atoms: O_56  and  S_57
REMARK   29  A    between atoms: S_57  and  O_60
REMARK                            x       y       z     vdW  Elec       q    Type
REMARK                         _______ _______ _______ _____ _____    ______ ____
ROOT
ATOM      1  S   UNL     1       3.108  -0.048   0.270  0.00  0.00    +0.205 S 
ATOM      2  O   UNL     1       3.131  -0.480   1.649  0.00  0.00    -0.118 OA
ATOM      3  O   UNL     1       3.829   1.100  -0.214  0.00  0.00    -0.118 OA
ENDROOT
BRANCH   1   4
ATOM      4  O   UNL     1       1.574   0.141  -0.107  0.00  0.00    -0.231 OA
ATOM      5  H   UNL     1       1.058  -0.034   0.716  0.00  0.00    +0.247 HD
ENDBRANCH   1   4
BRANCH   1   6
ATOM      6  O   UNL     1       3.477  -1.294  -0.655  0.00  0.00    -0.231 OA
ATOM      7  H   UNL     1       3.088  -1.113  -1.536  0.00  0.00    +0.247 HD
ENDBRANCH   1   6
TORSDOF 2
