REMARK  Name = 
REMARK  5 active torsions:
REMARK  status: ('A' for Active; 'I' for Inactive)
REMARK    1  A    between atoms: C5M_1  and  C5_2
REMARK    2  A    between atoms: N1_4  and  C1*_10
REMARK    3  A    between atoms: C3*_13  and  O3*_20
REMARK    4  A    between atoms: C4*_15  and  C5*_18
REMARK    5  A    between atoms: C5*_18  and  O5*_19
REMARK                            x       y       z     vdW  Elec       q    Type
REMARK                         _______ _______ _______ _____ _____    ______ ____
ROOT
ATOM      1  C5M   T A   1       8.259   0.599  -4.062  0.00  0.00    +0.051 C 
ATOM      2  C5    T A   1       7.158   1.513  -3.637  0.00  0.00    +0.030 A 
ATOM      3  C4    T A   1       6.337   2.131  -4.700  0.00  0.00    +0.257 A 
ATOM      4  O4    T A   1       6.479   1.844  -5.883  0.00  0.00    -0.267 OA
ATOM      5  N3    T A   1       5.380   3.002  -4.274  0.00  0.00    -0.275 N 
ATOM      6  H3    T A   1       4.757   3.349  -4.985  0.00  0.00    +0.173 HD
ATOM      7  C2    T A   1       4.924   3.097  -2.988  0.00  0.00    +0.331 A 
ATOM      8  O2    T A   1       3.808   3.566  -2.785  0.00  0.00    -0.246 OA
ATOM      9  N1    T A   1       5.776   2.606  -2.003  0.00  0.00    -0.274 N 
ATOM     10  C6    T A   1       6.839   1.783  -2.365  0.00  0.00    +0.101 A 
ENDROOT
BRANCH   9  11
ATOM     11  C1*   T A   1       5.376   2.659  -0.585  0.00  0.00    +0.226 C 
ATOM     12  O4*   T A   1       6.573   2.560   0.232  0.00  0.00    -0.348 OA
ATOM     13  C4*   T A   1       6.799   3.832   0.885  0.00  0.00    +0.175 C 
ATOM     14  C3*   T A   1       5.816   4.820   0.273  0.00  0.00    +0.150 C 
ATOM     15  C2*   T A   1       4.666   3.908  -0.069  0.00  0.00    +0.088 C 
BRANCH  14  16
ATOM     16  O3*   T A   1       5.452   5.855   1.175  0.00  0.00    -0.389 OA
ATOM     17  H3*   T A   1       4.698   5.564   1.715  0.00  0.00    +0.210 HD
ENDBRANCH  14  16
BRANCH  13  18
ATOM     18  C5*   T A   1       8.260   4.255   0.728  0.00  0.00    +0.190 C 
BRANCH  18  19
ATOM     19  O5*   T A   1       8.628   4.364  -0.646  0.00  0.00    -0.392 OA
ATOM     20  H5*   T A   1       8.418   3.505  -1.052  0.00  0.00    +0.210 HD
ENDBRANCH  18  19
ENDBRANCH  13  18
ENDBRANCH   9  11
TORSDOF 4
