REMARK  Name = 
REMARK  5 active torsions:
REMARK  status: ('A' for Active; 'I' for Inactive)
REMARK    1  A    between atoms: C5M_1  and  C5_2
REMARK    2  A    between atoms: N1_4  and  C1*_10
REMARK    3  A    between atoms: C3*_13  and  O3*_20
REMARK    4  A    between atoms: C4*_15  and  C5*_18
REMARK    5  A    between atoms: C5*_18  and  O5*_19
REMARK                            x       y       z     vdW  Elec       q    Type
REMARK                         _______ _______ _______ _____ _____    ______ ____
ROOT
ATOM      1  C5M   T A   1       8.265   0.587  -4.092  0.00  0.00    +0.051 C 
ATOM      2  C5    T A   1       7.160   1.498  -3.672  0.00  0.00    +0.030 A 
ATOM      3  C4    T A   1       6.342   2.113  -4.739  0.00  0.00    +0.257 A 
ATOM      4  O4    T A   1       6.493   1.829  -5.921  0.00  0.00    -0.267 OA
ATOM      5  N3    T A   1       5.374   2.975  -4.316  0.00  0.00    -0.275 N 
ATOM      6  H3    T A   1       4.752   3.319  -5.030  0.00  0.00    +0.173 HD
ATOM      7  C2    T A   1       4.919   3.074  -3.029  0.00  0.00    +0.331 A 
ATOM      8  O2    T A   1       3.801   3.542  -2.829  0.00  0.00    -0.246 OA
ATOM      9  N1    T A   1       5.771   2.589  -2.043  0.00  0.00    -0.274 N 
ATOM     10  C6    T A   1       6.837   1.769  -2.402  0.00  0.00    +0.101 A 
ENDROOT
BRANCH   9  11
ATOM     11  C1*   T A   1       5.368   2.648  -0.626  0.00  0.00    +0.226 C 
ATOM     12  O4*   T A   1       6.564   2.551   0.194  0.00  0.00    -0.348 OA
ATOM     13  C4*   T A   1       6.791   3.825   0.843  0.00  0.00    +0.175 C 
ATOM     14  C3*   T A   1       5.809   4.812   0.226  0.00  0.00    +0.150 C 
ATOM     15  C2*   T A   1       4.659   3.899  -0.115  0.00  0.00    +0.088 C 
BRANCH  14  16
ATOM     16  O3*   T A   1       5.444   5.849   1.123  0.00  0.00    -0.389 OA
ATOM     17  H3*   T A   1       4.702   5.553   1.678  0.00  0.00    +0.210 HD
ENDBRANCH  14  16
BRANCH  13  18
ATOM     18  C5*   T A   1       8.252   4.245   0.687  0.00  0.00    +0.190 C 
BRANCH  18  19
ATOM     19  O5*   T A   1       8.623   4.348  -0.687  0.00  0.00    -0.392 OA
ATOM     20  H5*   T A   1       8.410   3.488  -1.090  0.00  0.00    +0.210 HD
ENDBRANCH  18  19
ENDBRANCH  13  18
ENDBRANCH   9  11
TORSDOF 4
