REMARK  Name = 
REMARK  5 active torsions:
REMARK  status: ('A' for Active; 'I' for Inactive)
REMARK    1  A    between atoms: C_1  and  C_2
REMARK    2  A    between atoms: N_4  and  C_10
REMARK    3  A    between atoms: C_14  and  O_21
REMARK    4  A    between atoms: C_16  and  C_19
REMARK    5  A    between atoms: C_19  and  O_20
REMARK                            x       y       z     vdW  Elec       q    Type
REMARK                         _______ _______ _______ _____ _____    ______ ____
ROOT
ATOM      1  C   UNL     1       5.295   2.458  -0.350  0.00  0.00    +0.260 C 
ATOM      2  O   UNL     1       6.335   2.527   0.652  0.00  0.00    -0.345 OA
ATOM      3  C   UNL     1       6.581   3.929   0.938  0.00  0.00    +0.178 C 
ATOM      4  C   UNL     1       5.622   4.748   0.073  0.00  0.00    +0.184 C 
ATOM      5  C   UNL     1       4.514   3.765  -0.232  0.00  0.00    +0.246 C 
ATOM      6  F   UNL     1       3.892   4.121  -1.382  0.00  0.00    -0.238 F 
ENDROOT
BRANCH   1  15
ATOM      7  C   UNL     1       3.375  -1.103   2.575  0.00  0.00    +0.051 C 
ATOM      8  C   UNL     1       3.560  -0.422   1.259  0.00  0.00    +0.030 A 
ATOM      9  C   UNL     1       2.816  -0.964   0.098  0.00  0.00    +0.257 A 
ATOM     10  O   UNL     1       2.066  -1.927   0.201  0.00  0.00    -0.267 OA
ATOM     11  N   UNL     1       3.016  -0.320  -1.087  0.00  0.00    -0.275 N 
ATOM     12  H   UNL     1       2.513  -0.668  -1.888  0.00  0.00    +0.173 HD
ATOM     13  C   UNL     1       3.786   0.794  -1.286  0.00  0.00    +0.331 A 
ATOM     14  O   UNL     1       3.834   1.321  -2.394  0.00  0.00    -0.246 OA
ATOM     15  N   UNL     1       4.479   1.255  -0.172  0.00  0.00    -0.271 N 
ATOM     16  C   UNL     1       4.346   0.643   1.059  0.00  0.00    +0.102 A 
ENDBRANCH   1  15
BRANCH   4  17
ATOM     17  O   UNL     1       6.293   5.129  -1.139  0.00  0.00    -0.386 OA
ATOM     18  H   UNL     1       5.596   5.386  -1.775  0.00  0.00    +0.210 HD
ENDBRANCH   4  17
BRANCH   3  19
ATOM     19  C   UNL     1       6.379   4.167   2.435  0.00  0.00    +0.190 C 
BRANCH  19  20
ATOM     20  O   UNL     1       5.040   3.872   2.826  0.00  0.00    -0.392 OA
ATOM     21  H   UNL     1       5.022   2.925   3.050  0.00  0.00    +0.210 HD
ENDBRANCH  19  20
ENDBRANCH   3  19
TORSDOF 4
