REMARK  Name = 
REMARK  18 active torsions:
REMARK  status: ('A' for Active; 'I' for Inactive)
REMARK    1  A    between atoms: C_1  and  C_2
REMARK    2  A    between atoms: C_2  and  C_3
REMARK    3  A    between atoms: C_3  and  C_4
REMARK    4  A    between atoms: C_4  and  C_6
REMARK    5  A    between atoms: C_4  and  N_14
REMARK    6  A    between atoms: C_6  and  C_8
REMARK    7  A    between atoms: N_10  and  C_11
REMARK    8  A    between atoms: C_15  and  C_17
REMARK    9  A    between atoms: C_28  and  C_30
REMARK   10  A    between atoms: C_30  and  C_32
REMARK   11  A    between atoms: C_30  and  N_36
REMARK   12  A    between atoms: C_32  and  C_33
REMARK   13  A    between atoms: C_32  and  C_34
REMARK   14  A    between atoms: C_32  and  C_35
REMARK   15  A    between atoms: C_37  and  C_39
REMARK   16  A    between atoms: C_39  and  C_41
REMARK   17  A    between atoms: C_39  and  N_47
REMARK   18  A    between atoms: C_48  and  C_50
REMARK                            x       y       z     vdW  Elec       q    Type
REMARK                         _______ _______ _______ _____ _____    ______ ____
ROOT
ATOM      1  C   UNL     1       2.320  -0.758  -5.639  0.00  0.00    +0.165 C 
ATOM      2  N   UNL     1       2.713  -1.905  -4.747  0.00  0.00    -0.288 N 
ATOM      3  C   UNL     1       1.946  -2.275  -3.648  0.00  0.00    +0.237 C 
ATOM      4  O   UNL     1       0.836  -1.758  -3.472  0.00  0.00    -0.274 OA
ATOM      5  C   UNL     1       4.079  -2.348  -5.032  0.00  0.00    +0.112 C 
ATOM      6  C   UNL     1       4.804  -1.122  -5.544  0.00  0.00    +0.012 C 
ATOM      7  C   UNL     1       5.403  -0.241  -4.440  0.00  0.00    +0.005 C 
ATOM      8  C   UNL     1       4.860   1.162  -4.656  0.00  0.00    +0.001 C 
ATOM      9  C   UNL     1       4.163   1.140  -6.008  0.00  0.00    +0.006 C 
ATOM     10  C   UNL     1       3.713  -0.301  -6.248  0.00  0.00    +0.023 C 
ENDROOT
BRANCH   1  13
ATOM     11  N   UNL     1      -0.020  -0.975  -6.904  0.00  0.00    -0.304 N 
ATOM     12  H   UNL     1      -0.342  -1.306  -7.809  0.00  0.00    +0.149 HD
ATOM     13  C   UNL     1       1.341  -1.169  -6.830  0.00  0.00    +0.234 C 
ATOM     14  O   UNL     1       1.809  -1.781  -7.809  0.00  0.00    -0.274 OA
BRANCH  11  15
ATOM     15  C   UNL     1      -1.078  -0.361  -6.058  0.00  0.00    +0.149 C 
BRANCH  15  16
ATOM     16  C   UNL     1      -1.973   0.797  -6.620  0.00  0.00    +0.237 C 
ATOM     17  O   UNL     1      -3.088   1.095  -6.184  0.00  0.00    -0.285 OA
BRANCH  16  18
ATOM     18  C   UNL     1      -1.365   1.774  -7.626  0.00  0.00    +0.282 C 
ATOM     19  N   UNL     1      -2.181   2.844  -7.988  0.00  0.00    -0.306 N 
ATOM     20  H   UNL     1      -3.088   2.934  -7.537  0.00  0.00    +0.149 HD
ATOM     21  O   UNL     1      -0.240   1.581  -8.065  0.00  0.00    -0.267 OA
BRANCH  19  22
ATOM     22  C   UNL     1      -1.718   3.859  -8.875  0.00  0.00    +0.073 C 
ATOM     23  C   UNL     1      -2.590   4.888  -9.556  0.00  0.00    +0.024 C 
ATOM     24  C   UNL     1      -2.013   3.751 -10.348  0.00  0.00    +0.024 C 
ENDBRANCH  19  22
ENDBRANCH  16  18
ENDBRANCH  15  16
BRANCH  15  25
ATOM     25  C   UNL     1      -1.981  -1.445  -5.391  0.00  0.00    +0.030 C 
BRANCH  25  27
ATOM     26  C   UNL     1      -3.066  -2.881  -7.325  0.00  0.00    +0.004 C 
ATOM     27  C   UNL     1      -3.238  -2.049  -6.066  0.00  0.00    -0.001 C 
ENDBRANCH  25  27
ENDBRANCH  15  25
ENDBRANCH  11  15
ENDBRANCH   1  13
BRANCH   3  28
ATOM     28  C   UNL     1       2.447  -3.405  -2.645  0.00  0.00    +0.164 C 
BRANCH  28  29
ATOM     29  N   UNL     1       2.370  -2.934  -1.135  0.00  0.00    -0.302 N 
ATOM     30  H   UNL     1       1.424  -2.792  -0.806  0.00  0.00    +0.150 HD
ATOM     31  C   UNL     1       3.337  -2.032  -0.570  0.00  0.00    +0.234 C 
ATOM     32  O   UNL     1       4.182  -1.552  -1.341  0.00  0.00    -0.274 OA
BRANCH  31  33
ATOM     33  C   UNL     1       3.577  -1.820   1.121  0.00  0.00    +0.162 C 
BRANCH  33  34
ATOM     34  C   UNL     1       2.519  -1.788   2.314  0.00  0.00    +0.018 C 
ATOM     35  C   UNL     1       1.125  -2.361   2.058  0.00  0.00    +0.006 C 
ATOM     36  C   UNL     1       0.124  -1.347   1.505  0.00  0.00    +0.000 C 
ATOM     37  C   UNL     1       0.084  -0.018   2.263  0.00  0.00    +0.000 C 
ATOM     38  C   UNL     1       1.472   0.542   2.538  0.00  0.00    +0.000 C 
ATOM     39  C   UNL     1       2.349  -0.514   3.188  0.00  0.00    +0.006 C 
ENDBRANCH  33  34
BRANCH  33  40
ATOM     40  N   UNL     1       4.869  -1.111   1.600  0.00  0.00    -0.298 N 
ATOM     41  H   UNL     1       5.530  -1.698   2.094  0.00  0.00    +0.150 HD
ATOM     42  C   UNL     1       5.109   0.244   1.818  0.00  0.00    +0.264 C 
ATOM     43  O   UNL     1       4.385   1.125   1.361  0.00  0.00    -0.268 OA
BRANCH  42  44
ATOM     44  C   UNL     1       6.245   0.649   2.765  0.00  0.00    +0.143 A 
ATOM     45  C   UNL     1       6.520   1.997   3.017  0.00  0.00    +0.143 A 
ATOM     46  N   UNL     1       7.454   2.416   3.934  0.00  0.00    -0.259 NA
ATOM     47  C   UNL     1       8.096   1.450   4.622  0.00  0.00    +0.130 A 
ATOM     48  C   UNL     1       7.852   0.122   4.364  0.00  0.00    +0.131 A 
ATOM     49  N   UNL     1       6.920  -0.343   3.448  0.00  0.00    -0.247 NA
ENDBRANCH  42  44
ENDBRANCH  33  40
ENDBRANCH  31  33
ENDBRANCH  28  29
BRANCH  28  50
ATOM     50  C   UNL     1       1.729  -4.829  -3.088  0.00  0.00    -0.011 C 
ATOM     51  C   UNL     1       2.151  -6.037  -2.221  0.00  0.00    +0.013 C 
ATOM     52  C   UNL     1       2.142  -5.238  -4.545  0.00  0.00    +0.013 C 
ATOM     53  C   UNL     1       0.182  -4.810  -3.080  0.00  0.00    +0.013 C 
ENDBRANCH  28  50
ENDBRANCH   3  28
TORSDOF 14
