REMARK  Name = 
REMARK  18 active torsions:
REMARK  status: ('A' for Active; 'I' for Inactive)
REMARK    1  A    between atoms: C_1  and  C_2
REMARK    2  A    between atoms: C_2  and  C_3
REMARK    3  A    between atoms: C_3  and  C_4
REMARK    4  A    between atoms: C_4  and  C_6
REMARK    5  A    between atoms: C_4  and  N_14
REMARK    6  A    between atoms: C_6  and  C_8
REMARK    7  A    between atoms: N_10  and  C_11
REMARK    8  A    between atoms: C_15  and  C_17
REMARK    9  A    between atoms: C_28  and  C_30
REMARK   10  A    between atoms: C_30  and  C_32
REMARK   11  A    between atoms: C_30  and  N_36
REMARK   12  A    between atoms: C_32  and  C_33
REMARK   13  A    between atoms: C_32  and  C_34
REMARK   14  A    between atoms: C_32  and  C_35
REMARK   15  A    between atoms: C_37  and  C_39
REMARK   16  A    between atoms: C_39  and  C_41
REMARK   17  A    between atoms: C_39  and  N_47
REMARK   18  A    between atoms: C_48  and  C_50
REMARK                            x       y       z     vdW  Elec       q    Type
REMARK                         _______ _______ _______ _____ _____    ______ ____
ROOT
ATOM      1  C   UNL     1       3.739  -3.917  -5.097  0.00  0.00    +0.165 C 
ATOM      2  N   UNL     1       2.540  -3.044  -5.050  0.00  0.00    -0.288 N 
ATOM      3  C   UNL     1       1.353  -3.160  -4.316  0.00  0.00    +0.237 C 
ATOM      4  O   UNL     1       0.331  -2.560  -4.676  0.00  0.00    -0.274 OA
ATOM      5  C   UNL     1       2.484  -2.231  -6.271  0.00  0.00    +0.112 C 
ATOM      6  C   UNL     1       3.753  -2.520  -7.068  0.00  0.00    +0.012 C 
ATOM      7  C   UNL     1       3.637  -3.576  -8.178  0.00  0.00    +0.005 C 
ATOM      8  C   UNL     1       4.826  -4.526  -8.008  0.00  0.00    +0.001 C 
ATOM      9  C   UNL     1       5.662  -3.959  -6.870  0.00  0.00    +0.006 C 
ATOM     10  C   UNL     1       4.691  -3.133  -6.043  0.00  0.00    +0.023 C 
ENDROOT
BRANCH   1  13
ATOM     11  N   UNL     1       4.976  -3.173  -3.098  0.00  0.00    -0.304 N 
ATOM     12  H   UNL     1       4.305  -2.412  -3.041  0.00  0.00    +0.149 HD
ATOM     13  C   UNL     1       4.560  -4.255  -3.841  0.00  0.00    +0.234 C 
ATOM     14  O   UNL     1       4.956  -5.400  -3.622  0.00  0.00    -0.274 OA
BRANCH  11  15
ATOM     15  C   UNL     1       5.880  -3.365  -1.963  0.00  0.00    +0.149 C 
BRANCH  15  16
ATOM     16  C   UNL     1       7.256  -3.881  -2.409  0.00  0.00    +0.237 C 
ATOM     17  O   UNL     1       7.782  -3.645  -3.496  0.00  0.00    -0.285 OA
BRANCH  16  18
ATOM     18  C   UNL     1       8.031  -4.744  -1.399  0.00  0.00    +0.282 C 
ATOM     19  N   UNL     1       9.097  -5.410  -1.973  0.00  0.00    -0.306 N 
ATOM     20  H   UNL     1       9.226  -5.261  -2.967  0.00  0.00    +0.149 HD
ATOM     21  O   UNL     1       7.695  -4.802  -0.223  0.00  0.00    -0.267 OA
BRANCH  19  22
ATOM     22  C   UNL     1      10.021  -6.224  -1.254  0.00  0.00    +0.073 C 
ATOM     23  C   UNL     1      11.376  -5.690  -0.862  0.00  0.00    +0.024 C 
ATOM     24  C   UNL     1      11.268  -6.730  -1.940  0.00  0.00    +0.024 C 
ENDBRANCH  19  22
ENDBRANCH  16  18
ENDBRANCH  15  16
BRANCH  15  25
ATOM     25  C   UNL     1       6.009  -2.095  -1.111  0.00  0.00    +0.030 C 
BRANCH  25  27
ATOM     26  C   UNL     1       6.242  -0.209  -2.942  0.00  0.00    +0.004 C 
ATOM     27  C   UNL     1       6.729  -0.848  -1.649  0.00  0.00    -0.001 C 
ENDBRANCH  25  27
ENDBRANCH  15  25
ENDBRANCH  11  15
ENDBRANCH   1  13
BRANCH   3  28
ATOM     28  C   UNL     1       1.291  -3.985  -2.995  0.00  0.00    +0.164 C 
BRANCH  28  29
ATOM     29  N   UNL     1       0.603  -3.127  -1.912  0.00  0.00    -0.302 N 
ATOM     30  H   UNL     1      -0.376  -2.968  -2.091  0.00  0.00    +0.150 HD
ATOM     31  C   UNL     1       1.264  -2.120  -1.200  0.00  0.00    +0.234 C 
ATOM     32  O   UNL     1       2.491  -2.012  -1.364  0.00  0.00    -0.274 OA
BRANCH  31  33
ATOM     33  C   UNL     1       0.492  -1.216  -0.011  0.00  0.00    +0.162 C 
BRANCH  33  34
ATOM     34  C   UNL     1      -0.889  -0.452  -0.247  0.00  0.00    +0.018 C 
ATOM     35  C   UNL     1      -1.434   0.551   0.840  0.00  0.00    +0.006 C 
ATOM     36  C   UNL     1      -2.307   0.030   1.996  0.00  0.00    +0.000 C 
ATOM     37  C   UNL     1      -3.095  -1.252   1.764  0.00  0.00    +0.000 C 
ATOM     38  C   UNL     1      -2.696  -2.088   0.555  0.00  0.00    +0.000 C 
ATOM     39  C   UNL     1      -2.091  -1.319  -0.611  0.00  0.00    +0.006 C 
ENDBRANCH  33  34
BRANCH  33  40
ATOM     40  N   UNL     1       1.518  -0.247   0.483  0.00  0.00    -0.298 N 
ATOM     41  H   UNL     1       2.142  -0.516   1.238  0.00  0.00    +0.150 HD
ATOM     42  C   UNL     1       1.896   0.873  -0.236  0.00  0.00    +0.264 C 
ATOM     43  O   UNL     1       1.430   1.170  -1.326  0.00  0.00    -0.268 OA
BRANCH  42  44
ATOM     44  C   UNL     1       2.902   1.806   0.416  0.00  0.00    +0.143 A 
ATOM     45  C   UNL     1       3.157   3.019  -0.193  0.00  0.00    +0.143 A 
ATOM     46  N   UNL     1       3.942   3.971   0.375  0.00  0.00    -0.259 NA
ATOM     47  C   UNL     1       4.468   3.640   1.575  0.00  0.00    +0.130 A 
ATOM     48  C   UNL     1       4.226   2.412   2.172  0.00  0.00    +0.131 A 
ATOM     49  N   UNL     1       3.435   1.452   1.616  0.00  0.00    -0.247 NA
ENDBRANCH  42  44
ENDBRANCH  33  40
ENDBRANCH  31  33
ENDBRANCH  28  29
BRANCH  28  50
ATOM     50  C   UNL     1       0.623  -5.430  -3.212  0.00  0.00    -0.011 C 
ATOM     51  C   UNL     1       1.077  -6.349  -2.058  0.00  0.00    +0.013 C 
ATOM     52  C   UNL     1       1.045  -6.147  -4.525  0.00  0.00    +0.013 C 
ATOM     53  C   UNL     1      -0.920  -5.433  -3.226  0.00  0.00    +0.013 C 
ENDBRANCH  28  50
ENDBRANCH   3  28
TORSDOF 14
