REMARK  Name = 
REMARK  9 active torsions:
REMARK  status: ('A' for Active; 'I' for Inactive)
REMARK    1  A    between atoms: C_1  and  C_2
REMARK    2  A    between atoms: N_8  and  C_18
REMARK    3  A    between atoms: C_21  and  C_22
REMARK    4  A    between atoms: N_24  and  C_30
REMARK    5  A    between atoms: C_34  and  C_37
REMARK    6  A    between atoms: C_37  and  O_38
REMARK    7  A    between atoms: C_40  and  N_48
REMARK    8  A    between atoms: C_43  and  C_46
REMARK    9  A    between atoms: C_46  and  O_47
REMARK                            x       y       z     vdW  Elec       q    Type
REMARK                         _______ _______ _______ _____ _____    ______ ____
ROOT
ATOM      1  C   UNL     1       2.142  -2.455   2.018  0.00  0.00    +0.046 C 
ATOM      2  C   UNL     1       3.468  -1.792   2.371  0.00  0.00    -0.022 A 
ATOM      3  C   UNL     1       3.601  -0.403   2.437  0.00  0.00    +0.025 A 
ATOM      4  C   UNL     1       4.542   0.154   1.584  0.00  0.00    +0.113 A 
ATOM      5  N   UNL     1       5.123  -0.576   0.589  0.00  0.00    -0.236 NA
ATOM      6  C   UNL     1       4.906  -1.914   0.627  0.00  0.00    +0.159 A 
ATOM      7  N   UNL     1       5.566  -2.869  -0.214  0.00  0.00    -0.305 N 
ATOM      8  C   UNL     1       6.944  -3.112   0.126  0.00  0.00    +0.148 A 
ATOM      9  N   UNL     1       7.683  -4.054  -0.499  0.00  0.00    -0.237 NA
ATOM     10  C   UNL     1       9.025  -3.992  -0.328  0.00  0.00    +0.113 A 
ATOM     11  C   UNL     1       9.679  -2.925   0.269  0.00  0.00    +0.021 A 
ATOM     12  C   UNL     1       8.917  -2.005   0.955  0.00  0.00    +0.018 A 
ATOM     13  C   UNL     1       7.560  -2.265   1.065  0.00  0.00    +0.082 A 
ATOM     14  C   UNL     1       6.888  -1.893   2.362  0.00  0.00    +0.260 A 
ATOM     15  N   UNL     1       5.709  -2.585   2.733  0.00  0.00    -0.319 N 
ATOM     16  H   UNL     1       5.910  -3.581   2.750  0.00  0.00    +0.169 HD
ATOM     17  O   UNL     1       7.432  -1.107   3.136  0.00  0.00    -0.267 OA
ATOM     18  C   UNL     1       4.558  -2.440   1.853  0.00  0.00    +0.088 A 
ENDROOT
BRANCH   7  19
ATOM     19  C   UNL     1       4.632  -3.987  -0.582  0.00  0.00    +0.091 C 
ATOM     20  C   UNL     1       4.667  -5.310   0.137  0.00  0.00    +0.027 C 
ATOM     21  C   UNL     1       4.899  -5.237  -1.336  0.00  0.00    +0.027 C 
ENDBRANCH   7  19
TORSDOF 1
REMARK  Name = 
REMARK  9 active torsions:
REMARK  status: ('A' for Active; 'I' for Inactive)
REMARK    1  A    between atoms: C_1  and  C_2
REMARK    2  A    between atoms: N_8  and  C_18
REMARK    3  A    between atoms: C_21  and  C_22
REMARK    4  A    between atoms: N_24  and  C_30
REMARK    5  A    between atoms: C_34  and  C_37
REMARK    6  A    between atoms: C_37  and  O_38
REMARK    7  A    between atoms: C_40  and  N_48
REMARK    8  A    between atoms: C_43  and  C_46
REMARK    9  A    between atoms: C_46  and  O_47
REMARK                            x       y       z     vdW  Elec       q    Type
REMARK                         _______ _______ _______ _____ _____    ______ ____
ROOT
ATOM      1  C   UNL     1       1.500  -0.219  -0.168  0.00  0.00    +0.051 C 
ATOM      2  C   UNL     1       2.591   0.263  -1.052  0.00  0.00    +0.030 A 
ATOM      3  C   UNL     1       3.157  -0.768  -1.942  0.00  0.00    +0.257 A 
ATOM      4  O   UNL     1       2.593  -1.839  -2.137  0.00  0.00    -0.267 OA
ATOM      5  N   UNL     1       4.372  -0.483  -2.477  0.00  0.00    -0.275 N 
ATOM      6  H   UNL     1       4.847  -1.251  -2.916  0.00  0.00    +0.173 HD
ATOM      7  C   UNL     1       5.130   0.619  -2.187  0.00  0.00    +0.332 A 
ATOM      8  O   UNL     1       6.300   0.671  -2.556  0.00  0.00    -0.246 OA
ATOM      9  N   UNL     1       4.484   1.635  -1.496  0.00  0.00    -0.270 N 
ATOM     10  C   UNL     1       3.225   1.447  -0.976  0.00  0.00    +0.102 A 
ENDROOT
BRANCH   9  11
ATOM     11  C   UNL     1       5.294   2.796  -1.152  0.00  0.00    +0.248 C 
ATOM     12  O   UNL     1       4.872   3.480   0.069  0.00  0.00    -0.343 OA
ATOM     13  C   UNL     1       5.243   4.871  -0.141  0.00  0.00    +0.169 C 
ATOM     14  C   UNL     1       5.082   5.045  -1.613  0.00  0.00    +0.007 C 
ATOM     15  C   UNL     1       5.135   3.844  -2.195  0.00  0.00    +0.025 C 
BRANCH  13  16
ATOM     16  C   UNL     1       4.441   5.846   0.733  0.00  0.00    +0.191 C 
BRANCH  16  17
ATOM     17  O   UNL     1       3.032   5.701   0.594  0.00  0.00    -0.392 OA
ATOM     18  H   UNL     1       2.795   4.836   0.976  0.00  0.00    +0.210 HD
ENDBRANCH  16  17
ENDBRANCH  13  16
ENDBRANCH   9  11
TORSDOF 3
REMARK  Name = 
REMARK  9 active torsions:
REMARK  status: ('A' for Active; 'I' for Inactive)
REMARK    1  A    between atoms: C_1  and  C_2
REMARK    2  A    between atoms: N_8  and  C_18
REMARK    3  A    between atoms: C_21  and  C_22
REMARK    4  A    between atoms: N_24  and  C_30
REMARK    5  A    between atoms: C_34  and  C_37
REMARK    6  A    between atoms: C_37  and  O_38
REMARK    7  A    between atoms: C_40  and  N_48
REMARK    8  A    between atoms: C_43  and  C_46
REMARK    9  A    between atoms: C_46  and  O_47
REMARK                            x       y       z     vdW  Elec       q    Type
REMARK                         _______ _______ _______ _____ _____    ______ ____
ROOT
ATOM      1  N   UNL     1      -2.077   0.668   1.855  0.00  0.00    -0.272 N 
ATOM      2  C   UNL     1      -2.159  -0.696   2.217  0.00  0.00    +0.352 A 
ATOM      3  O   UNL     1      -2.447  -1.534   1.369  0.00  0.00    -0.244 OA
ATOM      4  N   UNL     1      -1.888  -1.038   3.510  0.00  0.00    -0.178 NA
ATOM      5  C   UNL     1      -1.729  -0.130   4.425  0.00  0.00    +0.123 A 
ATOM      6  N   UNL     1      -1.507  -0.550   5.709  0.00  0.00    -0.343 N 
ATOM      7  H   UNL     1      -1.256  -1.539   5.745  0.00  0.00    +0.144 HD
ATOM      8  H   UNL     1      -0.939   0.014   6.313  0.00  0.00    +0.144 HD
ATOM      9  C   UNL     1      -1.799   1.303   4.130  0.00  0.00    +0.061 A 
ATOM     10  C   UNL     1      -2.002   1.633   2.851  0.00  0.00    +0.096 A 
ENDROOT
BRANCH   1  15
ATOM     11  C   UNL     1      -1.779   0.286  -0.713  0.00  0.00    +0.126 C 
ATOM     12  S   UNL     1      -0.745   1.458  -1.647  0.00  0.00    -0.123 S 
ATOM     13  C   UNL     1      -0.704   2.627  -0.251  0.00  0.00    +0.203 C 
ATOM     14  O   UNL     1      -2.012   2.507   0.319  0.00  0.00    -0.340 OA
ATOM     15  C   UNL     1      -2.374   1.102   0.464  0.00  0.00    +0.235 C 
BRANCH  13  16
ATOM     16  C   UNL     1       0.351   2.547   0.905  0.00  0.00    +0.198 C 
BRANCH  16  17
ATOM     17  O   UNL     1       0.371   3.743   1.691  0.00  0.00    -0.392 OA
ATOM     18  H   UNL     1       0.023   3.528   2.572  0.00  0.00    +0.210 HD
ENDBRANCH  16  17
ENDBRANCH  13  16
ENDBRANCH   1  15
TORSDOF 3
