REMARK  Name = 
REMARK  9 active torsions:
REMARK  status: ('A' for Active; 'I' for Inactive)
REMARK    1  A    between atoms: C_1  and  C_2
REMARK    2  A    between atoms: N_8  and  C_18
REMARK    3  A    between atoms: C_21  and  C_22
REMARK    4  A    between atoms: N_24  and  C_30
REMARK    5  A    between atoms: C_34  and  C_37
REMARK    6  A    between atoms: C_37  and  O_38
REMARK    7  A    between atoms: C_40  and  N_48
REMARK    8  A    between atoms: C_43  and  C_46
REMARK    9  A    between atoms: C_46  and  O_47
REMARK                            x       y       z     vdW  Elec       q    Type
REMARK                         _______ _______ _______ _____ _____    ______ ____
ROOT
ATOM      1  C   UNL     1       2.125  -1.239   2.925  0.00  0.00    +0.046 C 
ATOM      2  C   UNL     1       3.110  -0.668   1.863  0.00  0.00    -0.022 A 
ATOM      3  C   UNL     1       3.873   0.376   2.324  0.00  0.00    +0.025 A 
ATOM      4  C   UNL     1       5.000  -0.049   2.995  0.00  0.00    +0.113 A 
ATOM      5  N   UNL     1       5.373  -1.371   3.030  0.00  0.00    -0.236 NA
ATOM      6  C   UNL     1       4.783  -2.209   2.124  0.00  0.00    +0.159 A 
ATOM      7  N   UNL     1       5.466  -3.368   1.567  0.00  0.00    -0.305 N 
ATOM      8  C   UNL     1       6.736  -3.109   0.953  0.00  0.00    +0.148 A 
ATOM      9  N   UNL     1       7.682  -4.059   0.987  0.00  0.00    -0.237 NA
ATOM     10  C   UNL     1       8.938  -3.721   0.619  0.00  0.00    +0.113 A 
ATOM     11  C   UNL     1       9.311  -2.451   0.209  0.00  0.00    +0.021 A 
ATOM     12  C   UNL     1       8.329  -1.492   0.077  0.00  0.00    +0.018 A 
ATOM     13  C   UNL     1       7.009  -1.844   0.390  0.00  0.00    +0.082 A 
ATOM     14  C   UNL     1       5.941  -0.788   0.204  0.00  0.00    +0.260 A 
ATOM     15  N   UNL     1       4.602  -1.225  -0.000  0.00  0.00    -0.319 N 
ATOM     16  H   UNL     1       4.629  -2.064  -0.571  0.00  0.00    +0.169 HD
ATOM     17  O   UNL     1       6.243   0.393   0.292  0.00  0.00    -0.267 OA
ATOM     18  C   UNL     1       3.894  -1.605   1.230  0.00  0.00    +0.088 A 
ENDROOT
BRANCH   7  19
ATOM     19  C   UNL     1       4.531  -4.296   0.818  0.00  0.00    +0.091 C 
ATOM     20  C   UNL     1       4.861  -5.669   0.322  0.00  0.00    +0.027 C 
ATOM     21  C   UNL     1       4.646  -4.561  -0.668  0.00  0.00    +0.027 C 
ENDBRANCH   7  19
TORSDOF 1
REMARK  Name = 
REMARK  9 active torsions:
REMARK  status: ('A' for Active; 'I' for Inactive)
REMARK    1  A    between atoms: C_1  and  C_2
REMARK    2  A    between atoms: N_8  and  C_18
REMARK    3  A    between atoms: C_21  and  C_22
REMARK    4  A    between atoms: N_24  and  C_30
REMARK    5  A    between atoms: C_34  and  C_37
REMARK    6  A    between atoms: C_37  and  O_38
REMARK    7  A    between atoms: C_40  and  N_48
REMARK    8  A    between atoms: C_43  and  C_46
REMARK    9  A    between atoms: C_46  and  O_47
REMARK                            x       y       z     vdW  Elec       q    Type
REMARK                         _______ _______ _______ _____ _____    ______ ____
ROOT
ATOM      1  C   UNL     1       0.827   1.023  -2.865  0.00  0.00    +0.051 C 
ATOM      2  C   UNL     1       2.259   0.865  -2.484  0.00  0.00    +0.030 A 
ATOM      3  C   UNL     1       2.891  -0.454  -2.704  0.00  0.00    +0.257 A 
ATOM      4  O   UNL     1       2.259  -1.504  -2.736  0.00  0.00    -0.267 OA
ATOM      5  N   UNL     1       4.238  -0.416  -2.894  0.00  0.00    -0.275 N 
ATOM      6  H   UNL     1       4.700  -1.282  -3.114  0.00  0.00    +0.173 HD
ATOM      7  C   UNL     1       5.055   0.598  -2.476  0.00  0.00    +0.332 A 
ATOM      8  O   UNL     1       6.270   0.467  -2.607  0.00  0.00    -0.246 OA
ATOM      9  N   UNL     1       4.415   1.705  -1.930  0.00  0.00    -0.270 N 
ATOM     10  C   UNL     1       3.045   1.851  -2.027  0.00  0.00    +0.102 A 
ENDROOT
BRANCH   9  11
ATOM     11  C   UNL     1       5.279   2.767  -1.459  0.00  0.00    +0.248 C 
ATOM     12  O   UNL     1       4.612   3.696  -0.568  0.00  0.00    -0.343 OA
ATOM     13  C   UNL     1       5.224   4.987  -0.818  0.00  0.00    +0.169 C 
ATOM     14  C   UNL     1       5.649   4.903  -2.244  0.00  0.00    +0.007 C 
ATOM     15  C   UNL     1       5.696   3.623  -2.606  0.00  0.00    +0.025 C 
BRANCH  13  16
ATOM     16  C   UNL     1       4.248   6.124  -0.501  0.00  0.00    +0.191 C 
BRANCH  16  17
ATOM     17  O   UNL     1       2.990   5.940  -1.148  0.00  0.00    -0.392 OA
ATOM     18  H   UNL     1       2.681   5.063  -0.852  0.00  0.00    +0.210 HD
ENDBRANCH  16  17
ENDBRANCH  13  16
ENDBRANCH   9  11
TORSDOF 3
REMARK  Name = 
REMARK  9 active torsions:
REMARK  status: ('A' for Active; 'I' for Inactive)
REMARK    1  A    between atoms: C_1  and  C_2
REMARK    2  A    between atoms: N_8  and  C_18
REMARK    3  A    between atoms: C_21  and  C_22
REMARK    4  A    between atoms: N_24  and  C_30
REMARK    5  A    between atoms: C_34  and  C_37
REMARK    6  A    between atoms: C_37  and  O_38
REMARK    7  A    between atoms: C_40  and  N_48
REMARK    8  A    between atoms: C_43  and  C_46
REMARK    9  A    between atoms: C_46  and  O_47
REMARK                            x       y       z     vdW  Elec       q    Type
REMARK                         _______ _______ _______ _____ _____    ______ ____
ROOT
ATOM      1  N   UNL     1      -2.088   0.548   2.141  0.00  0.00    -0.272 N 
ATOM      2  C   UNL     1      -2.440   1.729   2.813  0.00  0.00    +0.352 A 
ATOM      3  O   UNL     1      -2.847   2.718   2.211  0.00  0.00    -0.244 OA
ATOM      4  N   UNL     1      -2.223   1.784   4.171  0.00  0.00    -0.178 NA
ATOM      5  C   UNL     1      -1.839   0.727   4.811  0.00  0.00    +0.123 A 
ATOM      6  N   UNL     1      -1.554   0.868   6.137  0.00  0.00    -0.343 N 
ATOM      7  H   UNL     1      -1.878   1.751   6.519  0.00  0.00    +0.144 HD
ATOM      8  H   UNL     1      -1.707   0.074   6.745  0.00  0.00    +0.144 HD
ATOM      9  C   UNL     1      -1.694  -0.592   4.176  0.00  0.00    +0.061 A 
ATOM     10  C   UNL     1      -1.812  -0.605   2.850  0.00  0.00    +0.096 A 
ENDROOT
BRANCH   1  15
ATOM     11  C   UNL     1      -1.463  -0.600  -0.073  0.00  0.00    +0.126 C 
ATOM     12  S   UNL     1       0.308  -0.548   0.262  0.00  0.00    -0.123 S 
ATOM     13  C   UNL     1       0.290   1.260   0.568  0.00  0.00    +0.203 C 
ATOM     14  O   UNL     1      -1.056   1.696   0.324  0.00  0.00    -0.340 OA
ATOM     15  C   UNL     1      -1.977   0.633   0.676  0.00  0.00    +0.235 C 
BRANCH  13  16
ATOM     16  C   UNL     1       0.779   1.837   1.912  0.00  0.00    +0.198 C 
BRANCH  16  17
ATOM     17  O   UNL     1       1.126   3.223   1.767  0.00  0.00    -0.392 OA
ATOM     18  H   UNL     1       0.487   3.728   2.304  0.00  0.00    +0.210 HD
ENDBRANCH  16  17
ENDBRANCH  13  16
ENDBRANCH   1  15
TORSDOF 3
