REMARK  Name = 
REMARK  4 active torsions:
REMARK  status: ('A' for Active; 'I' for Inactive)
REMARK    1  A    between atoms: C3*_2  and  O3*_19
REMARK    2  A    between atoms: C4*_4  and  C5*_17
REMARK    3  A    between atoms: C1*_7  and  N_8
REMARK    4  A    between atoms: C5*_17  and  O5*_18
REMARK                            x       y       z     vdW  Elec       q    Type
REMARK                         _______ _______ _______ _____ _____    ______ ____
ROOT
ATOM      1  C2* UNL     1      -0.802  -0.988  -0.202  0.00  0.00    +0.088 C 
ATOM      2  C1* UNL     1       0.714  -0.968  -0.033  0.00  0.00    +0.226 C 
ATOM      3  O4* UNL     1       1.137   0.413  -0.092  0.00  0.00    -0.348 OA
ATOM      4  C4* UNL     1      -0.045   1.233  -0.203  0.00  0.00    +0.175 C 
ATOM      5  C3* UNL     1      -1.202   0.378   0.297  0.00  0.00    +0.150 C 
ENDROOT
BRANCH   2   6
ATOM      6  N   UNL     1       1.379  -1.764  -1.061  0.00  0.00    -0.273 N 
ATOM      7  C   UNL     1       1.424  -3.138  -0.862  0.00  0.00    +0.331 A 
ATOM      8  O   UNL     1       0.989  -3.700   0.140  0.00  0.00    -0.246 OA
ATOM      9  N   UNL     1       1.959  -3.868  -1.889  0.00  0.00    -0.274 N 
ATOM     10  H   UNL     1       1.943  -4.870  -1.779  0.00  0.00    +0.173 HD
ATOM     11  C   UNL     1       2.260  -3.397  -3.141  0.00  0.00    +0.267 A 
ATOM     12  O   UNL     1       2.505  -4.168  -4.061  0.00  0.00    -0.267 OA
ATOM     13  C   UNL     1       2.227  -1.917  -3.294  0.00  0.00    +0.094 A 
ATOM     14  I   UNL     1       2.774  -1.061  -5.066  0.00  0.00    -0.037 I 
ATOM     15  C   UNL     1       1.787  -1.195  -2.257  0.00  0.00    +0.113 A 
ENDBRANCH   2   6
BRANCH   5  16
ATOM     16  O3* UNL     1      -2.459   0.783  -0.220  0.00  0.00    -0.389 OA
ATOM     17  H3* UNL     1      -2.432   0.755  -1.192  0.00  0.00    +0.210 HD
ENDBRANCH   5  16
BRANCH   4  18
ATOM     18  C5* UNL     1       0.135   2.544   0.559  0.00  0.00    +0.190 C 
BRANCH  18  19
ATOM     19  O5* UNL     1       0.414   2.311   1.936  0.00  0.00    -0.392 OA
ATOM     20  H5* UNL     1       1.272   1.845   1.966  0.00  0.00    +0.210 HD
ENDBRANCH  18  19
ENDBRANCH   4  18
TORSDOF 4
