REMARK  Name = 
REMARK  21 active torsions:
REMARK  status: ('A' for Active; 'I' for Inactive)
REMARK    1  A    between atoms: C_1  and  C_2
REMARK    2  A    between atoms: C_2  and  C_3
REMARK    3  A    between atoms: C_2  and  C_4
REMARK    4  A    between atoms: C_2  and  C_5
REMARK    5  A    between atoms: C_5  and  C_7
REMARK    6  A    between atoms: C_5  and  N_48
REMARK    7  A    between atoms: C_11  and  O_34
REMARK    8  A    between atoms: C_14  and  C_16
REMARK    9  A    between atoms: N_18  and  C_19
REMARK   10  A    between atoms: C_19  and  C_25
REMARK   11  A    between atoms: C_21  and  C_23
REMARK   12  A    between atoms: N_27  and  S_28
REMARK   13  A    between atoms: S_28  and  C_31
REMARK   14  A    between atoms: O_34  and  C_35
REMARK   15  A    between atoms: C_38  and  O_46
REMARK   16  A    between atoms: O_46  and  C_47
REMARK   17  A    between atoms: C_49  and  O_51
REMARK   18  A    between atoms: O_51  and  C_52
REMARK   19  A    between atoms: C_52  and  C_53
REMARK   20  A    between atoms: C_52  and  C_54
REMARK   21  A    between atoms: C_52  and  C_55
REMARK                            x       y       z     vdW  Elec       q    Type
REMARK                         _______ _______ _______ _____ _____    ______ ____
ROOT
ATOM      1  C   UNL     1      -3.712  -1.537   4.392  0.00  0.00    +0.237 C 
ATOM      2  N   UNL     1      -3.423  -0.978   5.623  0.00  0.00    -0.285 N 
ATOM      3  C   UNL     1      -3.396   0.426   6.036  0.00  0.00    +0.166 C 
ATOM      4  C   UNL     1      -3.763   0.415   7.527  0.00  0.00    +0.078 C 
ATOM      5  C   UNL     1      -3.944  -1.055   7.932  0.00  0.00    +0.195 C 
ATOM      6  C   UNL     1      -3.280  -1.836   6.796  0.00  0.00    +0.153 C 
ATOM      7  O   UNL     1      -3.544  -2.752   4.255  0.00  0.00    -0.274 OA
ENDROOT
BRANCH   3   8
ATOM      8  C   UNL     1      -2.003   1.090   5.901  0.00  0.00    +0.234 C 
ATOM      9  N   UNL     1      -1.026   0.314   5.309  0.00  0.00    -0.299 N 
ATOM     10  H   UNL     1      -1.186  -0.691   5.334  0.00  0.00    +0.150 HD
ATOM     11  O   UNL     1      -1.782   2.233   6.297  0.00  0.00    -0.274 OA
BRANCH   9  12
ATOM     12  C   UNL     1       0.375   0.741   5.287  0.00  0.00    +0.119 C 
ATOM     13  C   UNL     1       1.062   0.721   3.914  0.00  0.00    +0.046 C 
ATOM     14  C   UNL     1       0.698   2.026   4.552  0.00  0.00    +0.046 C 
BRANCH  12  15
ATOM     15  C   UNL     1       1.166   0.247   6.488  0.00  0.00    +0.256 C 
ATOM     16  N   UNL     1       2.229   1.022   6.965  0.00  0.00    -0.188 N 
ATOM     17  H   UNL     1       2.454   1.936   6.593  0.00  0.00    +0.176 HD
ATOM     18  O   UNL     1       0.863  -0.838   6.966  0.00  0.00    -0.272 OA
BRANCH  16  19
ATOM     19  S   UNL     1       3.243   0.531   8.190  0.00  0.00    +0.048 S 
ATOM     20  O   UNL     1       2.574   0.798   9.443  0.00  0.00    -0.155 OA
ATOM     21  O   UNL     1       4.525   1.135   7.893  0.00  0.00    -0.155 OA
BRANCH  19  22
ATOM     22  C   UNL     1       3.430  -1.271   8.076  0.00  0.00    +0.151 C 
ATOM     23  C   UNL     1       4.823  -1.831   8.110  0.00  0.00    +0.030 C 
ATOM     24  C   UNL     1       4.095  -1.717   6.797  0.00  0.00    +0.030 C 
ENDBRANCH  19  22
ENDBRANCH  16  19
ENDBRANCH  12  15
BRANCH  13  25
ATOM     25  C   UNL     1       2.487   0.431   3.731  0.00  0.00    -0.028 C 
ATOM     26  C   UNL     1       3.343   1.178   3.020  0.00  0.00    +0.004 C 
ENDBRANCH  13  25
ENDBRANCH   9  12
ENDBRANCH   3   8
BRANCH   1  27
ATOM     27  C   UNL     1      -4.280  -0.660   3.219  0.00  0.00    +0.168 C 
BRANCH  27  29
ATOM     28  C   UNL     1      -5.993  -2.436   2.482  0.00  0.00    +0.013 C 
ATOM     29  C   UNL     1      -4.854  -1.502   2.006  0.00  0.00    -0.011 C 
ATOM     30  C   UNL     1      -5.485  -0.581   0.930  0.00  0.00    +0.013 C 
ATOM     31  C   UNL     1      -3.767  -2.335   1.296  0.00  0.00    +0.013 C 
ENDBRANCH  27  29
BRANCH  27  32
ATOM     32  N   UNL     1      -3.281   0.319   2.773  0.00  0.00    -0.269 N 
ATOM     33  H   UNL     1      -2.424   0.009   2.340  0.00  0.00    +0.153 HD
ATOM     34  C   UNL     1      -3.510   1.665   2.789  0.00  0.00    +0.401 C 
ATOM     35  O   UNL     1      -4.516   2.167   3.262  0.00  0.00    -0.226 OA
BRANCH  34  36
ATOM     36  O   UNL     1      -2.475   2.340   2.238  0.00  0.00    -0.445 OA
BRANCH  36  37
ATOM     37  C   UNL     1      -2.512   3.799   2.197  0.00  0.00    +0.107 C 
ATOM     38  C   UNL     1      -3.727   4.328   1.422  0.00  0.00    +0.055 C 
ATOM     39  C   UNL     1      -1.249   4.232   1.432  0.00  0.00    +0.055 C 
ATOM     40  C   UNL     1      -2.457   4.396   3.610  0.00  0.00    +0.055 C 
ENDBRANCH  36  37
ENDBRANCH  34  36
ENDBRANCH  27  32
ENDBRANCH   1  27
BRANCH   5  41
ATOM     41  O   UNL     1      -5.325  -1.439   7.964  0.00  0.00    -0.471 OA
BRANCH  41  42
ATOM     42  C   UNL     1      -6.072  -0.892   8.993  0.00  0.00    +0.223 A 
ATOM     43  C   UNL     1      -7.450  -1.156   8.984  0.00  0.00    +0.049 A 
ATOM     44  C   UNL     1      -8.059  -2.030   8.057  0.00  0.00    +0.034 A 
ATOM     45  C   UNL     1      -9.437  -2.219   8.056  0.00  0.00    +0.042 A 
ATOM     46 CL   UNL     1     -10.156  -3.262   6.893  0.00  0.00    -0.084 Cl
ATOM     47  C   UNL     1     -10.233  -1.558   8.981  0.00  0.00    +0.021 A 
ATOM     48  C   UNL     1      -9.643  -0.706   9.918  0.00  0.00    +0.014 A 
ATOM     49  C   UNL     1      -8.248  -0.484   9.940  0.00  0.00    +0.030 A 
ATOM     50  C   UNL     1      -7.628   0.397  10.855  0.00  0.00    +0.146 A 
ATOM     51  C   UNL     1      -6.249   0.556  10.772  0.00  0.00    +0.160 A 
ATOM     52  N   UNL     1      -5.458  -0.073   9.873  0.00  0.00    -0.217 NA
BRANCH  50  53
ATOM     53  O   UNL     1      -8.444   1.032  11.754  0.00  0.00    -0.493 OA
ATOM     54  C   UNL     1      -7.842   1.967  12.643  0.00  0.00    +0.277 C 
ENDBRANCH  50  53
ENDBRANCH  41  42
ENDBRANCH   5  41
TORSDOF 14
