REMARK  Name = 
REMARK  21 active torsions:
REMARK  status: ('A' for Active; 'I' for Inactive)
REMARK    1  A    between atoms: C_1  and  C_2
REMARK    2  A    between atoms: C_2  and  C_3
REMARK    3  A    between atoms: C_2  and  C_4
REMARK    4  A    between atoms: C_2  and  C_5
REMARK    5  A    between atoms: C_5  and  C_7
REMARK    6  A    between atoms: C_5  and  N_48
REMARK    7  A    between atoms: C_11  and  O_34
REMARK    8  A    between atoms: C_14  and  C_16
REMARK    9  A    between atoms: N_18  and  C_19
REMARK   10  A    between atoms: C_19  and  C_25
REMARK   11  A    between atoms: C_21  and  C_23
REMARK   12  A    between atoms: N_27  and  S_28
REMARK   13  A    between atoms: S_28  and  C_31
REMARK   14  A    between atoms: O_34  and  C_35
REMARK   15  A    between atoms: C_38  and  O_46
REMARK   16  A    between atoms: O_46  and  C_47
REMARK   17  A    between atoms: C_49  and  O_51
REMARK   18  A    between atoms: O_51  and  C_52
REMARK   19  A    between atoms: C_52  and  C_53
REMARK   20  A    between atoms: C_52  and  C_54
REMARK   21  A    between atoms: C_52  and  C_55
REMARK                            x       y       z     vdW  Elec       q    Type
REMARK                         _______ _______ _______ _____ _____    ______ ____
ROOT
ATOM      1  C   UNL     1      -4.676   2.353   4.040  0.00  0.00    +0.237 C 
ATOM      2  N   UNL     1      -4.567   3.707   4.296  0.00  0.00    -0.285 N 
ATOM      3  C   UNL     1      -4.023   4.751   3.437  0.00  0.00    +0.166 C 
ATOM      4  C   UNL     1      -4.725   6.042   3.877  0.00  0.00    +0.078 C 
ATOM      5  C   UNL     1      -5.737   5.636   4.966  0.00  0.00    +0.195 C 
ATOM      6  C   UNL     1      -5.239   4.290   5.456  0.00  0.00    +0.153 C 
ATOM      7  O   UNL     1      -5.280   1.671   4.871  0.00  0.00    -0.274 OA
ENDROOT
BRANCH   3   8
ATOM      8  C   UNL     1      -2.498   4.856   3.600  0.00  0.00    +0.234 C 
ATOM      9  N   UNL     1      -2.040   4.744   4.897  0.00  0.00    -0.299 N 
ATOM     10  H   UNL     1      -2.644   4.317   5.588  0.00  0.00    +0.150 HD
ATOM     11  O   UNL     1      -1.757   5.138   2.660  0.00  0.00    -0.274 OA
BRANCH   9  12
ATOM     12  C   UNL     1      -0.625   4.787   5.213  0.00  0.00    +0.119 C 
ATOM     13  C   UNL     1       0.076   6.122   5.009  0.00  0.00    +0.046 C 
ATOM     14  C   UNL     1      -0.186   5.641   6.400  0.00  0.00    +0.046 C 
BRANCH  12  15
ATOM     15  C   UNL     1       0.065   3.446   5.113  0.00  0.00    +0.256 C 
ATOM     16  N   UNL     1       0.414   3.043   3.828  0.00  0.00    -0.188 N 
ATOM     17  H   UNL     1       0.329   3.689   3.045  0.00  0.00    +0.176 HD
ATOM     18  O   UNL     1       0.160   2.729   6.096  0.00  0.00    -0.272 OA
BRANCH  16  19
ATOM     19  S   UNL     1       1.094   1.579   3.471  0.00  0.00    +0.048 S 
ATOM     20  O   UNL     1       2.471   1.601   3.910  0.00  0.00    -0.155 OA
ATOM     21  O   UNL     1       0.761   1.342   2.082  0.00  0.00    -0.155 OA
BRANCH  19  22
ATOM     22  C   UNL     1       0.202   0.295   4.393  0.00  0.00    +0.151 C 
ATOM     23  C   UNL     1       0.964  -0.469   5.435  0.00  0.00    +0.030 C 
ATOM     24  C   UNL     1       0.697  -1.098   4.096  0.00  0.00    +0.030 C 
ENDBRANCH  19  22
ENDBRANCH  16  19
ENDBRANCH  12  15
BRANCH  13  25
ATOM     25  C   UNL     1       1.423   6.236   4.445  0.00  0.00    -0.028 C 
ATOM     26  C   UNL     1       2.562   5.641   4.819  0.00  0.00    +0.004 C 
ENDBRANCH  13  25
ENDBRANCH   9  12
ENDBRANCH   3   8
BRANCH   1  27
ATOM     27  C   UNL     1      -3.949   1.704   2.792  0.00  0.00    +0.168 C 
BRANCH  27  29
ATOM     28  C   UNL     1      -5.386   2.765   0.909  0.00  0.00    +0.013 C 
ATOM     29  C   UNL     1      -4.761   1.470   1.465  0.00  0.00    -0.011 C 
ATOM     30  C   UNL     1      -3.794   0.955   0.368  0.00  0.00    +0.013 C 
ATOM     31  C   UNL     1      -5.904   0.457   1.618  0.00  0.00    +0.013 C 
ENDBRANCH  27  29
BRANCH  27  32
ATOM     32  N   UNL     1      -3.209   0.517   3.268  0.00  0.00    -0.269 N 
ATOM     33  H   UNL     1      -2.261   0.372   2.952  0.00  0.00    +0.153 HD
ATOM     34  C   UNL     1      -3.773  -0.564   3.894  0.00  0.00    +0.401 C 
ATOM     35  O   UNL     1      -4.968  -0.778   4.004  0.00  0.00    -0.226 OA
BRANCH  34  36
ATOM     36  O   UNL     1      -2.805  -1.361   4.421  0.00  0.00    -0.445 OA
BRANCH  36  37
ATOM     37  C   UNL     1      -3.210  -2.402   5.360  0.00  0.00    +0.107 C 
ATOM     38  C   UNL     1      -3.917  -1.805   6.589  0.00  0.00    +0.055 C 
ATOM     39  C   UNL     1      -1.918  -3.067   5.862  0.00  0.00    +0.055 C 
ATOM     40  C   UNL     1      -4.056  -3.481   4.674  0.00  0.00    +0.055 C 
ENDBRANCH  36  37
ENDBRANCH  34  36
ENDBRANCH  27  32
ENDBRANCH   1  27
BRANCH   5  41
ATOM     41  O   UNL     1      -7.041   5.391   4.430  0.00  0.00    -0.471 OA
BRANCH  41  42
ATOM     42  C   UNL     1      -7.695   6.531   4.025  0.00  0.00    +0.223 A 
ATOM     43  C   UNL     1      -8.652   6.388   3.015  0.00  0.00    +0.049 A 
ATOM     44  C   UNL     1      -9.054   5.129   2.513  0.00  0.00    +0.034 A 
ATOM     45  C   UNL     1      -9.945   5.048   1.450  0.00  0.00    +0.042 A 
ATOM     46 CL   UNL     1     -10.400   3.507   0.833  0.00  0.00    -0.084 Cl
ATOM     47  C   UNL     1     -10.457   6.203   0.878  0.00  0.00    +0.021 A 
ATOM     48  C   UNL     1     -10.090   7.452   1.387  0.00  0.00    +0.014 A 
ATOM     49  C   UNL     1      -9.185   7.573   2.465  0.00  0.00    +0.030 A 
ATOM     50  C   UNL     1      -8.777   8.820   3.001  0.00  0.00    +0.146 A 
ATOM     51  C   UNL     1      -7.861   8.813   4.048  0.00  0.00    +0.160 A 
ATOM     52  N   UNL     1      -7.302   7.703   4.563  0.00  0.00    -0.217 NA
BRANCH  50  53
ATOM     53  O   UNL     1      -9.305   9.952   2.437  0.00  0.00    -0.493 OA
ATOM     54  C   UNL     1      -8.846  11.196   2.955  0.00  0.00    +0.277 C 
ENDBRANCH  50  53
ENDBRANCH  41  42
ENDBRANCH   5  41
TORSDOF 14
