REMARK  Name = 
REMARK  83 active torsions:
REMARK  status: ('A' for Active; 'I' for Inactive)
REMARK    1  A    between atoms: CD1_1  and  CG1_2
REMARK    2  A    between atoms: CG1_2  and  CB_3
REMARK    3  A    between atoms: CB_3  and  CG2_5
REMARK    4  A    between atoms: CB_3  and  CA_6
REMARK    5  A    between atoms: CA_6  and  C_8
REMARK    6  A    between atoms: CA_6  and  N_106
REMARK    7  A    between atoms: N_10  and  CA_11
REMARK    8  A    between atoms: CA_11  and  CB_13
REMARK    9  A    between atoms: CA_11  and  C_20
REMARK   10  A    between atoms: CB_13  and  CG_14
REMARK   11  A    between atoms: CG_14  and  CD_15
REMARK   12  A    between atoms: CD_15  and  NE_16
REMARK   13  A    between atoms: N_22  and  CA_23
REMARK   14  A    between atoms: CA_23  and  CB_25
REMARK   15  A    between atoms: CA_23  and  C_26
REMARK   16  A    between atoms: N_28  and  CA_29
REMARK   17  A    between atoms: CA_29  and  CB_31
REMARK   18  A    between atoms: CA_29  and  C_41
REMARK   19  A    between atoms: CB_31  and  CG_32
REMARK   20  A    between atoms: N_43  and  CA_44
REMARK   21  A    between atoms: CA_44  and  CB_46
REMARK   22  A    between atoms: CA_44  and  C_49
REMARK   23  A    between atoms: CB_46  and  CG1_47
REMARK   24  A    between atoms: CB_46  and  CG2_48
REMARK   25  A    between atoms: N_51  and  CA_52
REMARK   26  A    between atoms: CA_52  and  CB_54
REMARK   27  A    between atoms: CA_52  and  C_55
REMARK   28  A    between atoms: N_57  and  CA_58
REMARK   29  A    between atoms: CA_58  and  CB_60
REMARK   30  A    between atoms: CA_58  and  C_70
REMARK   31  A    between atoms: CB_60  and  CG_61
REMARK   32  A    between atoms: N_72  and  CA_73
REMARK   33  A    between atoms: CA_73  and  CB_75
REMARK   34  A    between atoms: CA_73  and  C_82
REMARK   35  A    between atoms: CB_75  and  CG_76
REMARK   36  A    between atoms: CG_76  and  CD_77
REMARK   37  A    between atoms: CD_77  and  NE_78
REMARK   38  A    between atoms: N_84  and  CA_85
REMARK   39  A    between atoms: CA_85  and  CB_87
REMARK   40  A    between atoms: CA_85  and  C_91
REMARK   41  A    between atoms: CB_87  and  CG_88
REMARK   42  A    between atoms: N_93  and  CA_94
REMARK   43  A    between atoms: CA_94  and  CB_96
REMARK   44  A    between atoms: CA_94  and  C_103
REMARK   45  A    between atoms: CB_96  and  CG_97
REMARK   46  A    between atoms: CG_97  and  CD_98
REMARK   47  A    between atoms: CD_98  and  NE_99
REMARK   48  A    between atoms: C_103  and  OXT_105
REMARK   49  A    between atoms: C_107  and  CA_109
REMARK   50  A    between atoms: CA_109  and  N_110
REMARK   51  A    between atoms: C_111  and  CA_113
REMARK   52  A    between atoms: CA_113  and  CB_115
REMARK   53  A    between atoms: CA_113  and  N_120
REMARK   54  A    between atoms: CB_115  and  CG_116
REMARK   55  A    between atoms: CG_116  and  CD_117
REMARK   56  A    between atoms: C_121  and  CA_123
REMARK   57  A    between atoms: C_129  and  CA_131
REMARK   58  A    between atoms: CA_131  and  CB_133
REMARK   59  A    between atoms: CA_131  and  N_137
REMARK   60  A    between atoms: CB_133  and  CG_134
REMARK   61  A    between atoms: CG_134  and  OD2_136
REMARK   62  A    between atoms: C_138  and  CA_140
REMARK   63  A    between atoms: CA_140  and  CB_142
REMARK   64  A    between atoms: CA_140  and  N_149
REMARK   65  A    between atoms: CB_142  and  CG_143
REMARK   66  A    between atoms: CG_143  and  CD_144
REMARK   67  A    between atoms: CD_144  and  NE_145
REMARK   68  A    between atoms: C_150  and  CA_152
REMARK   69  A    between atoms: CA_152  and  CB_154
REMARK   70  A    between atoms: CA_152  and  N_157
REMARK   71  A    between atoms: CB_154  and  CG1_155
REMARK   72  A    between atoms: CB_154  and  CG2_156
REMARK   73  A    between atoms: C_158  and  CA_160
REMARK   74  A    between atoms: CA_160  and  CB_162
REMARK   75  A    between atoms: CA_160  and  N_165
REMARK   76  A    between atoms: CB_162  and  CG1_163
REMARK   77  A    between atoms: CB_162  and  CG2_164
REMARK   78  A    between atoms: C_166  and  CA_168
REMARK   79  A    between atoms: CA_168  and  CB_170
REMARK   80  A    between atoms: CA_168  and  N_177
REMARK   81  A    between atoms: CB_170  and  CG_171
REMARK   82  A    between atoms: CG_171  and  CD_172
REMARK   83  A    between atoms: CD_172  and  NE_173
REMARK                            x       y       z     vdW  Elec       q    Type
REMARK                         _______ _______ _______ _____ _____    ______ ____
ROOT
ATOM      1  CA  ARG A  10       1.960   0.073 -11.989  0.00  0.00    +0.159 C 
ENDROOT
BRANCH   1   2
ATOM      2  C   ARG A  10       2.540   1.059 -13.440  0.00  0.00    +0.234 C 
ATOM      3  N   ALA A  11       2.434   2.556 -13.568  0.00  0.00    -0.303 N 
ATOM      4  H   ALA A  11       2.101   2.933 -12.708  0.00  0.00    +0.149 HD
ATOM      5  O   ARG A  10       2.936   0.402 -14.409  0.00  0.00    -0.274 OA
BRANCH   3   6
ATOM      6  CA  ALA A  11       2.769   3.861 -14.842  0.00  0.00    +0.156 C 
ATOM      7  CB  ALA A  11       3.382   3.058 -15.970  0.00  0.00    +0.038 C 
BRANCH   6   8
ATOM      8  C   ALA A  11       1.904   5.439 -15.515  0.00  0.00    +0.234 C 
ATOM      9  N   TRP A  12       2.064   6.552 -16.232  0.00  0.00    -0.302 N 
ATOM     10  H   TRP A  12       1.162   7.009 -16.121  0.00  0.00    +0.150 HD
ATOM     11  O   ALA A  11       0.723   5.797 -15.237  0.00  0.00    -0.274 OA
BRANCH   9  12
ATOM     12  CA  TRP A  12       2.876   7.395 -17.103  0.00  0.00    +0.163 C 
BRANCH  12  13
ATOM     13  C   TRP A  12       2.514   7.140 -18.583  0.00  0.00    +0.234 C 
ATOM     14  N   VAL A  13       2.440   8.099 -19.553  0.00  0.00    -0.302 N 
ATOM     15  H   VAL A  13       2.544   9.078 -19.323  0.00  0.00    +0.150 HD
ATOM     16  O   TRP A  12       2.299   5.988 -18.927  0.00  0.00    -0.274 OA
BRANCH  14  17
ATOM     17  CA  VAL A  13       2.236   7.803 -21.028  0.00  0.00    +0.161 C 
BRANCH  17  18
ATOM     18  C   VAL A  13       3.469   8.637 -21.717  0.00  0.00    +0.234 C 
ATOM     19  N   ALA A  14       4.729   8.015 -21.639  0.00  0.00    -0.303 N 
ATOM     20  H   ALA A  14       4.580   7.040 -21.860  0.00  0.00    +0.149 HD
ATOM     21  O   VAL A  13       3.312   9.778 -22.140  0.00  0.00    -0.274 OA
BRANCH  19  22
ATOM     22  CA  ALA A  14       6.193   8.217 -22.033  0.00  0.00    +0.156 C 
ATOM     23  CB  ALA A  14       6.994   8.681 -20.847  0.00  0.00    +0.038 C 
BRANCH  22  24
ATOM     24  C   ALA A  14       7.081   7.050 -22.900  0.00  0.00    +0.234 C 
ATOM     25  N   TRP A  15       7.940   7.533 -23.878  0.00  0.00    -0.302 N 
ATOM     26  H   TRP A  15       8.429   8.374 -23.564  0.00  0.00    +0.150 HD
ATOM     27  O   ALA A  14       6.955   5.840 -22.770  0.00  0.00    -0.274 OA
BRANCH  25  28
ATOM     28  CA  TRP A  15       8.719   6.870 -24.984  0.00  0.00    +0.163 C 
BRANCH  28  29
ATOM     29  C   TRP A  15      10.005   6.486 -24.228  0.00  0.00    +0.234 C 
ATOM     30  N   ARG A  16      10.620   5.329 -24.623  0.00  0.00    -0.302 N 
ATOM     31  H   ARG A  16      10.201   4.730 -25.330  0.00  0.00    +0.150 HD
ATOM     32  O   TRP A  15      10.487   7.206 -23.350  0.00  0.00    -0.274 OA
BRANCH  30  33
ATOM     33  CA  ARG A  16      11.757   4.781 -23.887  0.00  0.00    +0.159 C 
BRANCH  33  34
ATOM     34  C   ARG A  16      12.190   3.494 -24.618  0.00  0.00    +0.234 C 
ATOM     35  N   ASN A  17      13.183   2.783 -23.986  0.00  0.00    -0.302 N 
ATOM     36  H   ASN A  17      13.804   3.281 -23.353  0.00  0.00    +0.150 HD
ATOM     37  O   ARG A  16      11.663   3.116 -25.664  0.00  0.00    -0.274 OA
BRANCH  35  38
ATOM     38  CA  ASN A  17      13.681   1.517 -24.515  0.00  0.00    +0.168 C 
BRANCH  38  39
ATOM     39  C   ASN A  17      14.338   0.665 -23.408  0.00  0.00    +0.234 C 
ATOM     40  N   ARG A  18      13.914   0.927 -22.124  0.00  0.00    -0.301 N 
ATOM     41  H   ARG A  18      13.072   1.485 -21.992  0.00  0.00    +0.150 HD
ATOM     42  O   ASN A  17      15.128  -0.243 -23.658  0.00  0.00    -0.274 OA
BRANCH  40  43
ATOM     43  CA  ARG A  18      14.457   0.217 -20.965  0.00  0.00    +0.182 C 
BRANCH  43  44
ATOM     44  C   ARG A  18      13.585   0.514 -19.737  0.00  0.00    +0.325 C 
ATOM     45  O   ARG A  18      12.596   1.234 -19.780  0.00  0.00    -0.249 OA
BRANCH  44  46
ATOM     46  OXT ARG A  18      14.002  -0.047 -18.582  0.00  0.00    -0.479 OA
ATOM     47  HXT ARG A  18      14.766  -0.650 -18.648  0.00  0.00    +0.295 HD
ENDBRANCH  44  46
ENDBRANCH  43  44
BRANCH  43  48
ATOM     48  CB  ARG A  18      15.947   0.553 -20.743  0.00  0.00    +0.037 C 
BRANCH  48  49
ATOM     49  CG  ARG A  18      16.296   2.046 -20.614  0.00  0.00    +0.039 C 
BRANCH  49  50
ATOM     50  CD  ARG A  18      15.687   2.717 -19.388  0.00  0.00    +0.196 C 
BRANCH  50  51
ATOM     51  NE  ARG A  18      16.157   4.079 -19.247  0.00  0.00    -0.276 N 
ATOM     52  HE  ARG A  18      16.332   4.541 -20.133  0.00  0.00    +0.258 HD
ATOM     53  CZ  ARG A  18      15.613   4.924 -18.342  0.00  0.00    +0.376 C 
ATOM     54  NH2 ARG A  18      15.998   6.195 -18.553  0.00  0.00    -0.289 N 
ATOM     55 HH21 ARG A  18      15.762   6.752 -17.735  0.00  0.00    +0.255 HD
ATOM     56 HH22 ARG A  18      16.975   6.287 -18.793  0.00  0.00    +0.255 HD
ATOM     57  NH1 ARG A  18      14.828   4.657 -17.367  0.00  0.00    -0.130 NA
ATOM     58  HH1 ARG A  18      14.607   3.660 -17.347  0.00  0.00    +0.306 HD
ENDBRANCH  50  51
ENDBRANCH  49  50
ENDBRANCH  48  49
ENDBRANCH  43  48
ENDBRANCH  40  43
ENDBRANCH  38  39
BRANCH  38  59
ATOM     59  CB  ASN A  17      14.660   1.704 -25.678  0.00  0.00    +0.127 C 
BRANCH  59  60
ATOM     60  CG  ASN A  17      15.927   2.392 -25.215  0.00  0.00    +0.213 C 
ATOM     61  ND2 ASN A  17      17.013   2.197 -26.014  0.00  0.00    -0.329 N 
ATOM     62 HD21 ASN A  17      17.877   2.651 -25.749  0.00  0.00    +0.145 HD
ATOM     63 HD22 ASN A  17      16.948   1.786 -26.935  0.00  0.00    +0.145 HD
ATOM     64  OD1 ASN A  17      15.999   3.107 -24.220  0.00  0.00    -0.276 OA
ENDBRANCH  59  60
ENDBRANCH  38  59
ENDBRANCH  35  38
ENDBRANCH  33  34
BRANCH  33  65
ATOM     65  CB  ARG A  16      11.420   4.480 -22.412  0.00  0.00    +0.035 C 
BRANCH  65  66
ATOM     66  CG  ARG A  16      10.312   3.435 -22.286  0.00  0.00    +0.039 C 
BRANCH  66  67
ATOM     67  CD  ARG A  16       9.956   3.161 -20.832  0.00  0.00    +0.196 C 
BRANCH  67  68
ATOM     68  NE  ARG A  16       8.887   2.189 -20.775  0.00  0.00    -0.276 N 
ATOM     69  HE  ARG A  16       9.169   1.269 -20.465  0.00  0.00    +0.258 HD
ATOM     70  CZ  ARG A  16       7.574   2.488 -20.693  0.00  0.00    +0.376 C 
ATOM     71  NH2 ARG A  16       7.213   3.724 -21.069  0.00  0.00    -0.289 N 
ATOM     72 HH21 ARG A  16       6.221   3.773 -21.308  0.00  0.00    +0.255 HD
ATOM     73 HH22 ARG A  16       7.665   4.101 -21.895  0.00  0.00    +0.255 HD
ATOM     74  NH1 ARG A  16       6.692   1.663 -20.249  0.00  0.00    -0.130 NA
ATOM     75  HH1 ARG A  16       7.159   0.797 -19.987  0.00  0.00    +0.306 HD
ENDBRANCH  67  68
ENDBRANCH  66  67
ENDBRANCH  65  66
ENDBRANCH  33  65
ENDBRANCH  30  33
ENDBRANCH  28  29
BRANCH  28  76
ATOM     76  CB  TRP A  15       9.247   7.787 -26.214  0.00  0.00    +0.069 C 
BRANCH  76  77
ATOM     77  CG  TRP A  15       8.321   8.465 -27.272  0.00  0.00    -0.020 A 
ATOM     78  CD2 TRP A  15       7.850   9.861 -27.429  0.00  0.00    +0.003 A 
ATOM     79  CE2 TRP A  15       7.020   9.920 -28.552  0.00  0.00    +0.047 A 
ATOM     80  CZ2 TRP A  15       6.239  11.047 -28.888  0.00  0.00    +0.026 A 
ATOM     81  CH2 TRP A  15       6.172  12.102 -27.977  0.00  0.00    +0.002 A 
ATOM     82  CZ3 TRP A  15       7.029  12.120 -26.894  0.00  0.00    +0.001 A 
ATOM     83  NE1 TRP A  15       7.177   8.726 -29.203  0.00  0.00    -0.360 N 
ATOM     84  HE1 TRP A  15       6.795   8.532 -30.118  0.00  0.00    +0.165 HD
ATOM     85  CE3 TRP A  15       7.972  11.089 -26.727  0.00  0.00    +0.010 A 
ATOM     86  CD1 TRP A  15       7.876   7.834 -28.426  0.00  0.00    +0.087 A 
ENDBRANCH  76  77
ENDBRANCH  28  76
ENDBRANCH  25  28
ENDBRANCH  22  24
ENDBRANCH  19  22
ENDBRANCH  17  18
BRANCH  17  87
ATOM     87  CB  VAL A  13       0.718   7.929 -21.450  0.00  0.00    +0.012 C 
ATOM     88  CG2 VAL A  13       0.363   7.562 -22.909  0.00  0.00    +0.009 C 
ATOM     89  CG1 VAL A  13       0.131   9.264 -21.030  0.00  0.00    +0.009 C 
ENDBRANCH  17  87
ENDBRANCH  14  17
ENDBRANCH  12  13
BRANCH  12  90
ATOM     90  CB  TRP A  12       4.299   7.113 -16.768  0.00  0.00    +0.069 C 
BRANCH  90  91
ATOM     91  CG  TRP A  12       4.777   7.744 -15.524  0.00  0.00    -0.020 A 
ATOM     92  CD2 TRP A  12       6.004   8.455 -15.427  0.00  0.00    +0.003 A 
ATOM     93  CE2 TRP A  12       5.971   9.130 -14.213  0.00  0.00    +0.047 A 
ATOM     94  CZ2 TRP A  12       6.923  10.088 -13.870  0.00  0.00    +0.026 A 
ATOM     95  CH2 TRP A  12       7.960  10.320 -14.777  0.00  0.00    +0.002 A 
ATOM     96  CZ3 TRP A  12       8.063   9.596 -15.963  0.00  0.00    +0.001 A 
ATOM     97  NE1 TRP A  12       4.866   8.692 -13.526  0.00  0.00    -0.360 N 
ATOM     98  HE1 TRP A  12       4.591   9.004 -12.607  0.00  0.00    +0.165 HD
ATOM     99  CE3 TRP A  12       7.086   8.662 -16.307  0.00  0.00    +0.010 A 
ATOM    100  CD1 TRP A  12       4.128   7.865 -14.318  0.00  0.00    +0.087 A 
ENDBRANCH  90  91
ENDBRANCH  12  90
ENDBRANCH   9  12
ENDBRANCH   6   8
ENDBRANCH   3   6
ENDBRANCH   1   2
BRANCH   1 102
ATOM    101  C   ILE A   9      -0.301  -1.377 -11.739  0.00  0.00    +0.234 C 
ATOM    102  N   ARG A  10       0.870  -0.946 -12.350  0.00  0.00    -0.302 N 
ATOM    103  H   ARG A  10       1.214  -1.702 -12.937  0.00  0.00    +0.150 HD
ATOM    104  O   ILE A   9      -0.757  -2.469 -12.090  0.00  0.00    -0.274 OA
BRANCH 101 105
ATOM    105  CA  ILE A   9      -1.054  -0.499 -10.706  0.00  0.00    +0.162 C 
BRANCH 105 106
ATOM    106  N   ILE A   9      -1.508   0.688 -11.407  0.00  0.00    -0.302 N 
ATOM    107  H   ILE A   9      -1.756   0.620 -12.395  0.00  0.00    +0.150 HD
ATOM    108  C   GLY A   8      -1.670   1.876 -10.745  0.00  0.00    +0.231 C 
ATOM    109  O   GLY A   8      -1.181   2.106  -9.642  0.00  0.00    -0.274 OA
BRANCH 108 110
ATOM    110  CA  GLY A   8      -2.314   2.958 -11.578  0.00  0.00    +0.200 C 
BRANCH 110 111
ATOM    111  N   GLY A   8      -1.305   3.345 -12.398  0.00  0.00    -0.305 N 
ATOM    112  H   GLY A   8      -0.401   3.521 -11.943  0.00  0.00    +0.149 HD
ATOM    113  C   GLN A   7      -1.152   2.979 -13.716  0.00  0.00    +0.234 C 
ATOM    114  O   GLN A   7      -1.912   2.203 -14.296  0.00  0.00    -0.274 OA
BRANCH 113 115
ATOM    115  CA  GLN A   7       0.006   3.649 -14.403  0.00  0.00    +0.159 C 
BRANCH 115 116
ATOM    116  N   GLN A   7      -0.462   3.966 -16.012  0.00  0.00    -0.302 N 
ATOM    117  H   GLN A   7      -0.882   3.083 -16.293  0.00  0.00    +0.150 HD
ATOM    118  C   PRO A   6       0.304   4.274 -17.171  0.00  0.00    +0.234 C 
ATOM    119  O   PRO A   6       1.315   3.636 -17.467  0.00  0.00    -0.274 OA
BRANCH 118 120
ATOM    120  CA  PRO A   6      -0.125   5.369 -18.215  0.00  0.00    +0.162 C 
ATOM    121  N   PRO A   6      -0.240   4.699 -19.516  0.00  0.00    -0.288 N 
ATOM    122  C   ASP A   5       0.657   4.550 -20.612  0.00  0.00    +0.237 C 
ATOM    123  O   ASP A   5       0.078   4.391 -21.720  0.00  0.00    -0.274 OA
ATOM    124  CD  PRO A   6      -1.691   4.341 -19.567  0.00  0.00    +0.109 C 
ATOM    125  CG  PRO A   6      -2.408   5.082 -18.398  0.00  0.00    +0.021 C 
ATOM    126  CB  PRO A   6      -1.419   6.139 -18.035  0.00  0.00    +0.033 C 
BRANCH 122 127
ATOM    127  CA  ASP A   5       2.395   4.311 -20.795  0.00  0.00    +0.170 C 
BRANCH 127 128
ATOM    128  N   ASP A   5       2.728   4.604 -22.406  0.00  0.00    -0.302 N 
ATOM    129  H   ASP A   5       2.007   4.197 -22.991  0.00  0.00    +0.150 HD
ATOM    130  C   ARG A   4       3.972   4.690 -23.076  0.00  0.00    +0.234 C 
ATOM    131  O   ARG A   4       4.978   4.211 -22.538  0.00  0.00    -0.274 OA
BRANCH 130 132
ATOM    132  CA  ARG A   4       4.123   5.358 -24.606  0.00  0.00    +0.159 C 
BRANCH 132 133
ATOM    133  N   ARG A   4       3.054   4.649 -25.316  0.00  0.00    -0.302 N 
ATOM    134  H   ARG A   4       2.127   5.036 -25.219  0.00  0.00    +0.150 HD
ATOM    135  C   VAL A   3       3.167   3.309 -25.606  0.00  0.00    +0.234 C 
ATOM    136  O   VAL A   3       4.213   2.689 -25.413  0.00  0.00    -0.274 OA
BRANCH 135 137
ATOM    137  CA  VAL A   3       1.840   2.571 -25.905  0.00  0.00    +0.161 C 
BRANCH 137 138
ATOM    138  N   VAL A   3       1.473   2.133 -24.523  0.00  0.00    -0.302 N 
ATOM    139  H   VAL A   3       2.270   1.637 -24.111  0.00  0.00    +0.150 HD
ATOM    140  C   VAL A   2       0.278   1.627 -24.069  0.00  0.00    +0.234 C 
ATOM    141  O   VAL A   2      -0.778   1.824 -24.673  0.00  0.00    -0.274 OA
BRANCH 140 142
ATOM    142  CA  VAL A   2       0.307   0.600 -22.852  0.00  0.00    +0.161 C 
BRANCH 142 143
ATOM    143  N   VAL A   2       0.828  -0.684 -23.338  0.00  0.00    -0.302 N 
ATOM    144  H   VAL A   2       0.425  -1.516 -22.916  0.00  0.00    +0.150 HD
ATOM    145  C   ARG A   1       2.155  -0.840 -23.693  0.00  0.00    +0.230 C 
ATOM    146  O   ARG A   1       2.869   0.101 -24.019  0.00  0.00    -0.274 OA
BRANCH 145 147
ATOM    147  CA  ARG A   1       2.687  -2.275 -23.567  0.00  0.00    +0.138 C 
BRANCH 147 148
ATOM    148  N   ARG A   1       1.520  -3.197 -23.551  0.00  0.00    -0.320 NA
ATOM    149  H1  ARG A   1       0.949  -2.991 -24.374  0.00  0.00    +0.119 HD
ATOM    150  H2  ARG A   1       1.848  -4.153 -23.672  0.00  0.00    +0.119 HD
ENDBRANCH 147 148
BRANCH 147 151
ATOM    151  CB  ARG A   1       3.654  -2.628 -24.712  0.00  0.00    +0.031 C 
BRANCH 151 152
ATOM    152  CG  ARG A   1       4.959  -1.805 -24.776  0.00  0.00    +0.039 C 
BRANCH 152 153
ATOM    153  CD  ARG A   1       5.827  -2.246 -25.957  0.00  0.00    +0.196 C 
BRANCH 153 154
ATOM    154  NE  ARG A   1       7.049  -1.469 -26.044  0.00  0.00    -0.276 N 
ATOM    155  HE  ARG A   1       6.887  -0.471 -26.149  0.00  0.00    +0.258 HD
ATOM    156  CZ  ARG A   1       8.214  -1.753 -25.424  0.00  0.00    +0.376 C 
ATOM    157  NH2 ARG A   1       9.151  -0.813 -25.642  0.00  0.00    -0.289 N 
ATOM    158 HH21 ARG A   1      10.063  -1.161 -25.367  0.00  0.00    +0.255 HD
ATOM    159 HH22 ARG A   1       9.158  -0.433 -26.579  0.00  0.00    +0.255 HD
ATOM    160  NH1 ARG A   1       8.514  -2.782 -24.721  0.00  0.00    -0.130 NA
ATOM    161  HH1 ARG A   1       7.694  -3.381 -24.642  0.00  0.00    +0.306 HD
ENDBRANCH 153 154
ENDBRANCH 152 153
ENDBRANCH 151 152
ENDBRANCH 147 151
ENDBRANCH 145 147
ENDBRANCH 142 143
BRANCH 142 162
ATOM    162  CB  VAL A   2       0.882   0.826 -21.426  0.00  0.00    +0.012 C 
ATOM    163  CG2 VAL A   2      -0.025   1.619 -20.483  0.00  0.00    +0.009 C 
ATOM    164  CG1 VAL A   2       2.368   1.158 -21.376  0.00  0.00    +0.009 C 
ENDBRANCH 142 162
ENDBRANCH 140 142
ENDBRANCH 137 138
BRANCH 137 165
ATOM    165  CB  VAL A   3       0.764   3.286 -26.783  0.00  0.00    +0.012 C 
ATOM    166  CG2 VAL A   3      -0.065   2.263 -27.595  0.00  0.00    +0.009 C 
ATOM    167  CG1 VAL A   3       1.291   4.275 -27.845  0.00  0.00    +0.009 C 
ENDBRANCH 137 165
ENDBRANCH 135 137
ENDBRANCH 132 133
BRANCH 132 168
ATOM    168  CB  ARG A   4       4.082   6.878 -25.234  0.00  0.00    +0.035 C 
BRANCH 168 169
ATOM    169  CG  ARG A   4       4.986   8.021 -24.698  0.00  0.00    +0.039 C 
BRANCH 169 170
ATOM    170  CD  ARG A   4       5.226   9.511 -25.162  0.00  0.00    +0.196 C 
BRANCH 170 171
ATOM    171  NE  ARG A   4       6.061  10.424 -24.261  0.00  0.00    -0.276 N 
ATOM    172  HE  ARG A   4       5.515  11.141 -23.795  0.00  0.00    +0.258 HD
ATOM    173  CZ  ARG A   4       7.382  10.455 -23.914  0.00  0.00    +0.376 C 
ATOM    174  NH2 ARG A   4       7.828  11.210 -22.904  0.00  0.00    -0.289 N 
ATOM    175 HH21 ARG A   4       8.826  10.981 -22.826  0.00  0.00    +0.255 HD
ATOM    176 HH22 ARG A   4       7.779  12.204 -23.069  0.00  0.00    +0.255 HD
ATOM    177  NH1 ARG A   4       8.331   9.739 -24.373  0.00  0.00    -0.130 NA
ATOM    178  HH1 ARG A   4       7.820   9.183 -25.073  0.00  0.00    +0.306 HD
ENDBRANCH 170 171
ENDBRANCH 169 170
ENDBRANCH 168 169
ENDBRANCH 132 168
ENDBRANCH 130 132
ENDBRANCH 127 128
BRANCH 127 179
ATOM    179  CB  ASP A   5       3.686   4.267 -19.815  0.00  0.00    +0.152 C 
BRANCH 179 180
ATOM    180  CG  ASP A   5       4.465   5.485 -20.046  0.00  0.00    +0.307 C 
ATOM    181  OD1 ASP A   5       4.415   5.990 -21.137  0.00  0.00    -0.251 OA
BRANCH 180 182
ATOM    182  OD2 ASP A   5       5.042   6.218 -19.127  0.00  0.00    -0.481 OA
ATOM    183  HD2 ASP A   5       4.989   7.107 -19.576  0.00  0.00    +0.295 HD
ENDBRANCH 180 182
ENDBRANCH 179 180
ENDBRANCH 127 179
ENDBRANCH 122 127
ENDBRANCH 118 120
ENDBRANCH 115 116
BRANCH 115 184
ATOM    184  CB  GLN A   7       0.639   4.906 -13.208  0.00  0.00    +0.041 C 
BRANCH 184 185
ATOM    185  CG  GLN A   7       1.352   4.947 -11.794  0.00  0.00    +0.098 C 
BRANCH 185 186
ATOM    186  CD  GLN A   7       1.854   6.388 -11.485  0.00  0.00    +0.211 C 
ATOM    187  NE2 GLN A   7       2.537   6.526 -10.311  0.00  0.00    -0.329 N 
ATOM    188 HE21 GLN A   7       2.794   7.475 -10.059  0.00  0.00    +0.145 HD
ATOM    189 HE22 GLN A   7       2.416   5.871  -9.554  0.00  0.00    +0.145 HD
ATOM    190  OE1 GLN A   7       1.711   7.366 -12.207  0.00  0.00    -0.276 OA
ENDBRANCH 185 186
ENDBRANCH 184 185
ENDBRANCH 115 184
ENDBRANCH 113 115
ENDBRANCH 110 111
ENDBRANCH 108 110
ENDBRANCH 105 106
BRANCH 105 191
ATOM    191  CB  ILE A   9      -2.271  -1.128  -9.913  0.00  0.00    +0.015 C 
ATOM    192  CG2 ILE A   9      -3.456  -1.586 -10.783  0.00  0.00    +0.010 C 
BRANCH 191 194
ATOM    193  CD1 ILE A   9      -2.831  -2.709  -7.938  0.00  0.00    +0.004 C 
ATOM    194  CG1 ILE A   9      -1.788  -2.226  -8.944  0.00  0.00    +0.002 C 
ENDBRANCH 191 194
ENDBRANCH 105 191
ENDBRANCH 101 105
ENDBRANCH   1 102
BRANCH   1 195
ATOM    195  CB  ARG A  10       2.957  -0.839 -10.945  0.00  0.00    +0.035 C 
BRANCH 195 196
ATOM    196  CG  ARG A  10       3.520  -2.283 -11.343  0.00  0.00    +0.039 C 
BRANCH 196 197
ATOM    197  CD  ARG A  10       4.407  -3.137 -10.331  0.00  0.00    +0.196 C 
BRANCH 197 198
ATOM    198  NE  ARG A  10       4.691  -4.442 -10.956  0.00  0.00    -0.276 N 
ATOM    199  HE  ARG A  10       4.015  -5.164 -10.732  0.00  0.00    +0.258 HD
ATOM    200  CZ  ARG A  10       5.903  -4.972 -11.258  0.00  0.00    +0.376 C 
ATOM    201  NH2 ARG A  10       5.740  -6.081 -12.019  0.00  0.00    -0.289 N 
ATOM    202 HH21 ARG A  10       6.573  -6.421 -12.483  0.00  0.00    +0.255 HD
ATOM    203 HH22 ARG A  10       4.999  -5.951 -12.700  0.00  0.00    +0.255 HD
ATOM    204  NH1 ARG A  10       7.055  -4.526 -10.922  0.00  0.00    -0.130 NA
ATOM    205  HH1 ARG A  10       7.781  -5.151 -11.286  0.00  0.00    +0.306 HD
ENDBRANCH 197 198
ENDBRANCH 196 197
ENDBRANCH 195 196
ENDBRANCH   1 195
TORSDOF 73
