REMARK  Name = 
REMARK  10 active torsions:
REMARK  status: ('A' for Active; 'I' for Inactive)
REMARK    1  A    between atoms: C_1  and  C_2
REMARK    2  A    between atoms: N_4  and  C_5
REMARK    3  A    between atoms: C_7  and  N_23
REMARK    4  A    between atoms: C_10  and  C_20
REMARK    5  A    between atoms: C_12  and  C_14
REMARK    6  A    between atoms: C_14  and  C_16
REMARK    7  A    between atoms: C_16  and  C_17
REMARK    8  A    between atoms: C_16  and  O_19
REMARK    9  A    between atoms: C_17  and  O_18
REMARK   10  A    between atoms: C_20  and  O_22
REMARK                            x       y       z     vdW  Elec       q    Type
REMARK                         _______ _______ _______ _____ _____    ______ ____
ROOT
ATOM      1  C   UNL     1       4.978  -1.028   0.173  0.00  0.00    +0.165 C 
ATOM      2  C   UNL     1       5.102  -0.965  -1.379  0.00  0.00    +0.266 C 
ATOM      3  O   UNL     1       5.763  -2.008  -2.095  0.00  0.00    -0.472 OA
ATOM      4  C   UNL     1       6.267  -3.077  -1.406  0.00  0.00    +0.205 C 
ATOM      5  C   UNL     1       6.087  -3.296  -0.101  0.00  0.00    +0.071 C 
ATOM      6  C   UNL     1       5.328  -2.395   0.804  0.00  0.00    +0.239 C 
ENDROOT
BRANCH   6   7
ATOM      7  N   UNL     1       4.144  -3.129   1.244  0.00  0.00    -0.104 NA
ATOM      8  C   UNL     1       3.478  -2.736   2.264  0.00  0.00    +0.377 C 
ATOM      9  N   UNL     1       2.458  -3.500   2.707  0.00  0.00    -0.289 N 
ATOM     10  H   UNL     1       1.605  -3.017   2.947  0.00  0.00    +0.255 HD
ATOM     11  H   UNL     1       2.280  -4.267   2.065  0.00  0.00    +0.255 HD
ATOM     12  N   UNL     1       3.657  -1.653   3.052  0.00  0.00    -0.289 N 
ATOM     13  H   UNL     1       2.825  -1.292   3.500  0.00  0.00    +0.255 HD
ATOM     14  H   UNL     1       4.253  -0.916   2.706  0.00  0.00    +0.255 HD
ENDBRANCH   6   7
BRANCH   1  17
ATOM     15  C   UNL     1       6.456   2.285   1.380  0.00  0.00    +0.109 C 
ATOM     16  C   UNL     1       5.583   1.374   0.566  0.00  0.00    +0.210 C 
ATOM     17  N   UNL     1       5.794   0.034   0.824  0.00  0.00    -0.305 N 
ATOM     18  H   UNL     1       6.389  -0.210   1.608  0.00  0.00    +0.149 HD
ATOM     19  O   UNL     1       4.755   1.773  -0.247  0.00  0.00    -0.276 OA
ENDBRANCH   1  17
BRANCH   2  20
ATOM     20  C   UNL     1       3.738  -0.752  -2.053  0.00  0.00    +0.206 C 
ATOM     21  O   UNL     1       2.674  -1.078  -1.523  0.00  0.00    -0.291 OA
BRANCH  20  22
ATOM     22  C   UNL     1       3.778  -0.141  -3.463  0.00  0.00    +0.209 C 
BRANCH  22  23
ATOM     23  O   UNL     1       4.485   1.101  -3.502  0.00  0.00    -0.382 OA
ATOM     24  H   UNL     1       4.062   1.708  -2.862  0.00  0.00    +0.210 HD
ENDBRANCH  22  23
BRANCH  22  25
ATOM     25  C   UNL     1       2.375   0.081  -4.034  0.00  0.00    +0.195 C 
BRANCH  25  26
ATOM     26  O   UNL     1       2.464   0.590  -5.368  0.00  0.00    -0.392 OA
ATOM     27  H   UNL     1       3.133   1.302  -5.349  0.00  0.00    +0.210 HD
ENDBRANCH  25  26
ENDBRANCH  22  25
ENDBRANCH  20  22
ENDBRANCH   2  20
BRANCH   4  28
ATOM     28  C   UNL     1       7.081  -4.064  -2.190  0.00  0.00    +0.372 C 
ATOM     29  O   UNL     1       7.603  -5.069  -1.743  0.00  0.00    -0.242 OA
BRANCH  28  30
ATOM     30  O   UNL     1       7.193  -3.669  -3.479  0.00  0.00    -0.475 OA
ATOM     31  H   UNL     1       6.710  -2.830  -3.626  0.00  0.00    +0.296 HD
ENDBRANCH  28  30
ENDBRANCH   4  28
TORSDOF 9
