REMARK  Name = 
REMARK  3 active torsions:
REMARK  status: ('A' for Active; 'I' for Inactive)
REMARK    1  A    between atoms: N_18  and  N_21
REMARK    2  A    between atoms: C_22  and  C_24
REMARK    3  A    between atoms: C_27  and  C_30
REMARK                            x       y       z     vdW  Elec       q    Type
REMARK                         _______ _______ _______ _____ _____    ______ ____
ROOT
ATOM      1  C   UNL     1      -2.876  -0.078   0.055  0.00  0.00    +0.009 C 
ATOM      2  C   UNL     1      -1.719  -0.814  -0.585  0.00  0.00    +0.001 C 
ATOM      3  C   UNL     1      -0.469  -1.303   0.179  0.00  0.00    +0.027 C 
ATOM      4  C   UNL     1       0.750  -0.781  -0.635  0.00  0.00    +0.097 C 
ATOM      5  C   UNL     1       2.073  -1.017   0.057  0.00  0.00    +0.243 C 
ATOM      6  N   UNL     1       2.630   0.202   0.356  0.00  0.00    -0.155 N 
ATOM      7  C   UNL     1       2.021   1.249  -0.294  0.00  0.00    +0.243 C 
ATOM      8  O   UNL     1       2.483   2.345  -0.582  0.00  0.00    -0.273 OA
ATOM      9  O   UNL     1       2.589  -2.114   0.233  0.00  0.00    -0.273 OA
ATOM     10  C   UNL     1       0.668   0.773  -0.756  0.00  0.00    +0.097 C 
ATOM     11  C   UNL     1      -0.531   1.295   0.091  0.00  0.00    +0.027 C 
ATOM     12  C   UNL     1      -0.394   0.715   1.498  0.00  0.00    -0.026 C 
ATOM     13  C   UNL     1      -0.381  -0.631   1.546  0.00  0.00    -0.026 C 
ATOM     14  C   UNL     1      -1.771   0.707  -0.618  0.00  0.00    +0.001 C 
ENDROOT
BRANCH   6  15
ATOM     15  N   UNL     1       3.954   0.268   0.807  0.00  0.00    -0.221 N 
ATOM     16  H   UNL     1       4.544  -0.518   0.559  0.00  0.00    +0.174 HD
ATOM     17  C   UNL     1       4.308   1.216   1.747  0.00  0.00    +0.261 C 
ATOM     18  O   UNL     1       3.543   2.055   2.212  0.00  0.00    -0.269 OA
BRANCH  17  19
ATOM     19  C   UNL     1       5.733   1.210   2.184  0.00  0.00    +0.038 A 
ATOM     20  C   UNL     1       6.470   0.033   2.357  0.00  0.00    +0.013 A 
ATOM     21  C   UNL     1       7.808   0.101   2.774  0.00  0.00    +0.013 A 
ATOM     22  C   UNL     1       8.426   1.340   3.019  0.00  0.00    +0.055 A 
ATOM     23  C   UNL     1       7.673   2.511   2.861  0.00  0.00    +0.013 A 
ATOM     24  C   UNL     1       6.338   2.446   2.452  0.00  0.00    +0.013 A 
BRANCH  22  25
ATOM     25  C   UNL     1       9.876   1.400   3.446  0.00  0.00    +0.417 C 
ATOM     26  F   UNL     1      10.707   0.814   2.539  0.00  0.00    -0.166 F 
ATOM     27  F   UNL     1      10.101   0.759   4.626  0.00  0.00    -0.166 F 
ATOM     28  F   UNL     1      10.344   2.668   3.614  0.00  0.00    -0.166 F 
ENDBRANCH  22  25
ENDBRANCH  17  19
ENDBRANCH   6  15
TORSDOF 3
