REMARK  Name = 
REMARK  3 active torsions:
REMARK  status: ('A' for Active; 'I' for Inactive)
REMARK    1  A    between atoms: N_18  and  N_21
REMARK    2  A    between atoms: C_22  and  C_24
REMARK    3  A    between atoms: C_27  and  C_30
REMARK                            x       y       z     vdW  Elec       q    Type
REMARK                         _______ _______ _______ _____ _____    ______ ____
ROOT
ATOM      1  C   UNL     1      -2.869  -0.082   0.060  0.00  0.00    +0.009 C 
ATOM      2  C   UNL     1      -1.713  -0.817  -0.583  0.00  0.00    +0.001 C 
ATOM      3  C   UNL     1      -0.460  -1.304   0.177  0.00  0.00    +0.027 C 
ATOM      4  C   UNL     1       0.755  -0.779  -0.639  0.00  0.00    +0.097 C 
ATOM      5  C   UNL     1       2.080  -1.013   0.048  0.00  0.00    +0.243 C 
ATOM      6  N   UNL     1       2.637   0.207   0.345  0.00  0.00    -0.155 N 
ATOM      7  C   UNL     1       2.020   1.256  -0.299  0.00  0.00    +0.243 C 
ATOM      8  O   UNL     1       2.478   2.353  -0.585  0.00  0.00    -0.273 OA
ATOM      9  O   UNL     1       2.595  -2.108   0.221  0.00  0.00    -0.273 OA
ATOM     10  C   UNL     1       0.670   0.774  -0.760  0.00  0.00    +0.097 C 
ATOM     11  C   UNL     1      -0.526   1.293   0.092  0.00  0.00    +0.027 C 
ATOM     12  C   UNL     1      -0.385   0.712   1.498  0.00  0.00    -0.026 C 
ATOM     13  C   UNL     1      -0.370  -0.634   1.545  0.00  0.00    -0.026 C 
ATOM     14  C   UNL     1      -1.766   0.705  -0.614  0.00  0.00    +0.001 C 
ENDROOT
BRANCH   6  15
ATOM     15  N   UNL     1       3.962   0.273   0.795  0.00  0.00    -0.221 N 
ATOM     16  H   UNL     1       4.554  -0.512   0.546  0.00  0.00    +0.174 HD
ATOM     17  C   UNL     1       4.318   1.227   1.728  0.00  0.00    +0.261 C 
ATOM     18  O   UNL     1       3.552   2.064   2.194  0.00  0.00    -0.269 OA
BRANCH  17  19
ATOM     19  C   UNL     1       5.745   1.229   2.158  0.00  0.00    +0.038 A 
ATOM     20  C   UNL     1       6.487   0.055   2.330  0.00  0.00    +0.013 A 
ATOM     21  C   UNL     1       7.827   0.128   2.736  0.00  0.00    +0.013 A 
ATOM     22  C   UNL     1       8.443   1.370   2.972  0.00  0.00    +0.055 A 
ATOM     23  C   UNL     1       7.685   2.538   2.817  0.00  0.00    +0.013 A 
ATOM     24  C   UNL     1       6.346   2.468   2.419  0.00  0.00    +0.013 A 
BRANCH  22  25
ATOM     25  C   UNL     1       9.896   1.434   3.386  0.00  0.00    +0.417 C 
ATOM     26  F   UNL     1      10.720   0.842   2.476  0.00  0.00    -0.166 F 
ATOM     27  F   UNL     1      10.132   0.801   4.568  0.00  0.00    -0.166 F 
ATOM     28  F   UNL     1      10.365   2.703   3.541  0.00  0.00    -0.166 F 
ENDBRANCH  22  25
ENDBRANCH  17  19
ENDBRANCH   6  15
TORSDOF 3
