REMARK  Name = 
REMARK  11 active torsions:
REMARK  status: ('A' for Active; 'I' for Inactive)
REMARK    1  A    between atoms: C_1  and  C_2
REMARK    2  A    between atoms: C_5  and  C_36
REMARK    3  A    between atoms: N_6  and  C_7
REMARK    4  A    between atoms: N_15  and  C_16
REMARK    5  A    between atoms: C_16  and  C_17
REMARK    6  A    between atoms: C_17  and  C_18
REMARK    7  A    between atoms: C_18  and  C_19
REMARK    8  A    between atoms: C_18  and  N_25
REMARK    9  A    between atoms: C_26  and  C_28
REMARK   10  A    between atoms: C_36  and  C_37
REMARK   11  A    between atoms: C_36  and  C_38
REMARK                            x       y       z     vdW  Elec       q    Type
REMARK                         _______ _______ _______ _____ _____    ______ ____
ROOT
ATOM      1  C   UNL     1      -0.264  -6.101   1.404  0.00  0.00    +0.042 C 
ENDROOT
BRANCH   1   2
ATOM      2  C   UNL     1       0.271  -5.660   0.024  0.00  0.00    +0.087 C 
BRANCH   2   6
ATOM      3  C   UNL     1       2.662  -2.312   0.341  0.00  0.00    +0.093 C 
ATOM      4  C   UNL     1       2.431  -2.725  -1.121  0.00  0.00    +0.044 C 
ATOM      5  C   UNL     1       1.735  -4.111  -1.233  0.00  0.00    +0.059 C 
ATOM      6  N   UNL     1       1.233  -4.533   0.101  0.00  0.00    -0.296 NA
ATOM      7  C   UNL     1       2.494  -4.837   0.804  0.00  0.00    +0.059 C 
ATOM      8  C   UNL     1       3.371  -5.556  -0.229  0.00  0.00    +0.020 C 
ATOM      9  C   UNL     1       2.781  -5.174  -1.580  0.00  0.00    +0.020 C 
ATOM     10  C   UNL     1       3.108  -3.486   1.238  0.00  0.00    +0.044 C 
BRANCH   3  13
ATOM     11  C   UNL     1       1.907  -0.306   2.504  0.00  0.00    +0.088 C 
ATOM     12  C   UNL     1       3.072  -0.184   1.593  0.00  0.00    +0.131 A 
ATOM     13  N   UNL     1       3.420  -1.091   0.600  0.00  0.00    -0.312 N 
ATOM     14  C   UNL     1       4.580  -0.586   0.038  0.00  0.00    +0.136 A 
ATOM     15  N   UNL     1       4.883   0.542   0.654  0.00  0.00    -0.134 NA
ATOM     16  N   UNL     1       3.956   0.786   1.622  0.00  0.00    -0.135 NA
BRANCH  14  17
ATOM     17  C   UNL     1       5.400  -1.135  -1.098  0.00  0.00    +0.051 C 
ATOM     18  C   UNL     1       6.898  -0.841  -0.902  0.00  0.00    +0.015 C 
ATOM     19  C   UNL     1       4.962  -0.504  -2.425  0.00  0.00    +0.015 C 
ENDBRANCH  14  17
ENDBRANCH   3  13
ENDBRANCH   2   6
ENDBRANCH   1   2
BRANCH   1  20
ATOM     20  C   UNL     1      -1.350  -7.208   1.341  0.00  0.00    +0.104 C 
BRANCH  20  21
ATOM     21  C   UNL     1      -0.859  -8.503   0.720  0.00  0.00    -0.027 A 
ATOM     22  C   UNL     1      -1.501  -9.008  -0.423  0.00  0.00    +0.005 A 
ATOM     23  C   UNL     1      -1.014 -10.143  -1.073  0.00  0.00    +0.000 A 
ATOM     24  C   UNL     1       0.111 -10.798  -0.579  0.00  0.00    +0.000 A 
ATOM     25  C   UNL     1       0.729 -10.339   0.583  0.00  0.00    +0.000 A 
ATOM     26  C   UNL     1       0.244  -9.203   1.234  0.00  0.00    +0.005 A 
ENDBRANCH  20  21
BRANCH  20  27
ATOM     27  N   UNL     1      -1.876  -7.461   2.684  0.00  0.00    -0.308 N 
ATOM     28  H   UNL     1      -1.391  -8.118   3.283  0.00  0.00    +0.149 HD
ATOM     29  C   UNL     1      -2.913  -6.707   3.181  0.00  0.00    +0.217 C 
ATOM     30  O   UNL     1      -3.557  -5.944   2.466  0.00  0.00    -0.275 OA
BRANCH  29  31
ATOM     31  C   UNL     1      -3.178  -6.846   4.683  0.00  0.00    +0.075 C 
ATOM     32  C   UNL     1      -4.392  -5.994   5.116  0.00  0.00    +0.018 C 
ATOM     33  C   UNL     1      -4.128  -4.484   5.048  0.00  0.00    +0.076 C 
ATOM     34  C   UNL     1      -2.836  -4.087   5.741  0.00  0.00    +0.249 C 
ATOM     35  F   UNL     1      -3.020  -4.163   7.086  0.00  0.00    -0.206 F 
ATOM     36  F   UNL     1      -2.552  -2.789   5.467  0.00  0.00    -0.206 F 
ATOM     37  C   UNL     1      -1.642  -4.951   5.368  0.00  0.00    +0.076 C 
ATOM     38  C   UNL     1      -1.956  -6.440   5.517  0.00  0.00    +0.018 C 
ENDBRANCH  29  31
ENDBRANCH  20  27
ENDBRANCH   1  20
TORSDOF 8
