REMARK  Name = 
REMARK  83 active torsions:
REMARK  status: ('A' for Active; 'I' for Inactive)
REMARK    1  A    between atoms: CD1_1  and  CG1_2
REMARK    2  A    between atoms: CG1_2  and  CB_3
REMARK    3  A    between atoms: CB_3  and  CG2_5
REMARK    4  A    between atoms: CB_3  and  CA_6
REMARK    5  A    between atoms: CA_6  and  C_8
REMARK    6  A    between atoms: CA_6  and  N_106
REMARK    7  A    between atoms: N_10  and  CA_11
REMARK    8  A    between atoms: CA_11  and  CB_13
REMARK    9  A    between atoms: CA_11  and  C_20
REMARK   10  A    between atoms: CB_13  and  CG_14
REMARK   11  A    between atoms: CG_14  and  CD_15
REMARK   12  A    between atoms: CD_15  and  NE_16
REMARK   13  A    between atoms: N_22  and  CA_23
REMARK   14  A    between atoms: CA_23  and  CB_25
REMARK   15  A    between atoms: CA_23  and  C_26
REMARK   16  A    between atoms: N_28  and  CA_29
REMARK   17  A    between atoms: CA_29  and  CB_31
REMARK   18  A    between atoms: CA_29  and  C_41
REMARK   19  A    between atoms: CB_31  and  CG_32
REMARK   20  A    between atoms: N_43  and  CA_44
REMARK   21  A    between atoms: CA_44  and  CB_46
REMARK   22  A    between atoms: CA_44  and  C_49
REMARK   23  A    between atoms: CB_46  and  CG1_47
REMARK   24  A    between atoms: CB_46  and  CG2_48
REMARK   25  A    between atoms: N_51  and  CA_52
REMARK   26  A    between atoms: CA_52  and  CB_54
REMARK   27  A    between atoms: CA_52  and  C_55
REMARK   28  A    between atoms: N_57  and  CA_58
REMARK   29  A    between atoms: CA_58  and  CB_60
REMARK   30  A    between atoms: CA_58  and  C_70
REMARK   31  A    between atoms: CB_60  and  CG_61
REMARK   32  A    between atoms: N_72  and  CA_73
REMARK   33  A    between atoms: CA_73  and  CB_75
REMARK   34  A    between atoms: CA_73  and  C_82
REMARK   35  A    between atoms: CB_75  and  CG_76
REMARK   36  A    between atoms: CG_76  and  CD_77
REMARK   37  A    between atoms: CD_77  and  NE_78
REMARK   38  A    between atoms: N_84  and  CA_85
REMARK   39  A    between atoms: CA_85  and  CB_87
REMARK   40  A    between atoms: CA_85  and  C_91
REMARK   41  A    between atoms: CB_87  and  CG_88
REMARK   42  A    between atoms: N_93  and  CA_94
REMARK   43  A    between atoms: CA_94  and  CB_96
REMARK   44  A    between atoms: CA_94  and  C_103
REMARK   45  A    between atoms: CB_96  and  CG_97
REMARK   46  A    between atoms: CG_97  and  CD_98
REMARK   47  A    between atoms: CD_98  and  NE_99
REMARK   48  A    between atoms: C_103  and  OXT_105
REMARK   49  A    between atoms: C_107  and  CA_109
REMARK   50  A    between atoms: CA_109  and  N_110
REMARK   51  A    between atoms: C_111  and  CA_113
REMARK   52  A    between atoms: CA_113  and  CB_115
REMARK   53  A    between atoms: CA_113  and  N_120
REMARK   54  A    between atoms: CB_115  and  CG_116
REMARK   55  A    between atoms: CG_116  and  CD_117
REMARK   56  A    between atoms: C_121  and  CA_123
REMARK   57  A    between atoms: C_129  and  CA_131
REMARK   58  A    between atoms: CA_131  and  CB_133
REMARK   59  A    between atoms: CA_131  and  N_137
REMARK   60  A    between atoms: CB_133  and  CG_134
REMARK   61  A    between atoms: CG_134  and  OD2_136
REMARK   62  A    between atoms: C_138  and  CA_140
REMARK   63  A    between atoms: CA_140  and  CB_142
REMARK   64  A    between atoms: CA_140  and  N_149
REMARK   65  A    between atoms: CB_142  and  CG_143
REMARK   66  A    between atoms: CG_143  and  CD_144
REMARK   67  A    between atoms: CD_144  and  NE_145
REMARK   68  A    between atoms: C_150  and  CA_152
REMARK   69  A    between atoms: CA_152  and  CB_154
REMARK   70  A    between atoms: CA_152  and  N_157
REMARK   71  A    between atoms: CB_154  and  CG1_155
REMARK   72  A    between atoms: CB_154  and  CG2_156
REMARK   73  A    between atoms: C_158  and  CA_160
REMARK   74  A    between atoms: CA_160  and  CB_162
REMARK   75  A    between atoms: CA_160  and  N_165
REMARK   76  A    between atoms: CB_162  and  CG1_163
REMARK   77  A    between atoms: CB_162  and  CG2_164
REMARK   78  A    between atoms: C_166  and  CA_168
REMARK   79  A    between atoms: CA_168  and  CB_170
REMARK   80  A    between atoms: CA_168  and  N_177
REMARK   81  A    between atoms: CB_170  and  CG_171
REMARK   82  A    between atoms: CG_171  and  CD_172
REMARK   83  A    between atoms: CD_172  and  NE_173
REMARK                            x       y       z     vdW  Elec       q    Type
REMARK                         _______ _______ _______ _____ _____    ______ ____
ROOT
ATOM      1  CA  ARG A  10       7.515 -10.192  -6.825  0.00  0.00    +0.159 C 
ENDROOT
BRANCH   1   3
ATOM      2  C   ILE A   9       7.893 -10.209  -9.233  0.00  0.00    +0.234 C 
ATOM      3  N   ARG A  10       8.359  -9.909  -7.981  0.00  0.00    -0.302 N 
ATOM      4  H   ARG A  10       9.365 -10.018  -7.891  0.00  0.00    +0.150 HD
ATOM      5  O   ILE A   9       6.870 -10.856  -9.443  0.00  0.00    -0.274 OA
BRANCH   2   6
ATOM      6  CA  ILE A   9       8.822  -9.750 -10.354  0.00  0.00    +0.162 C 
BRANCH   6   7
ATOM      7  N   ILE A   9       9.442 -10.989 -10.801  0.00  0.00    -0.302 N 
ATOM      8  H   ILE A   9       8.768 -11.700 -11.057  0.00  0.00    +0.150 HD
ATOM      9  C   GLY A   8      10.618 -11.442 -10.231  0.00  0.00    +0.231 C 
ATOM     10  O   GLY A   8      11.215 -10.826  -9.353  0.00  0.00    -0.274 OA
BRANCH   9  11
ATOM     11  CA  GLY A   8      11.128 -12.763 -10.815  0.00  0.00    +0.200 C 
BRANCH  11  12
ATOM     12  N   GLY A   8      11.802 -12.589 -12.091  0.00  0.00    -0.305 N 
ATOM     13  H   GLY A   8      12.769 -12.277 -12.069  0.00  0.00    +0.149 HD
ATOM     14  C   GLN A   7      11.291 -12.653 -13.358  0.00  0.00    +0.234 C 
ATOM     15  O   GLN A   7      12.068 -12.424 -14.288  0.00  0.00    -0.274 OA
BRANCH  14  16
ATOM     16  CA  GLN A   7       9.774 -12.959 -13.554  0.00  0.00    +0.159 C 
BRANCH  16  17
ATOM     17  N   GLN A   7       9.221 -12.108 -14.602  0.00  0.00    -0.302 N 
ATOM     18  H   GLN A   7       8.505 -11.440 -14.349  0.00  0.00    +0.150 HD
ATOM     19  C   PRO A   6       9.499 -12.322 -15.931  0.00  0.00    +0.234 C 
ATOM     20  O   PRO A   6      10.270 -13.195 -16.328  0.00  0.00    -0.274 OA
BRANCH  19  21
ATOM     21  CA  PRO A   6       8.827 -11.327 -16.891  0.00  0.00    +0.162 C 
ATOM     22  N   PRO A   6       9.116 -11.753 -18.259  0.00  0.00    -0.288 N 
ATOM     23  C   ASP A   5      10.334 -11.674 -18.909  0.00  0.00    +0.237 C 
ATOM     24  O   ASP A   5      10.493 -12.184 -20.021  0.00  0.00    -0.274 OA
ATOM     25  CD  PRO A   6       8.026 -12.578 -18.769  0.00  0.00    +0.109 C 
ATOM     26  CG  PRO A   6       6.971 -12.599 -17.661  0.00  0.00    +0.021 C 
ATOM     27  CB  PRO A   6       7.305 -11.375 -16.817  0.00  0.00    +0.033 C 
BRANCH  23  28
ATOM     28  CA  ASP A   5      11.500 -10.909 -18.216  0.00  0.00    +0.170 C 
BRANCH  28  29
ATOM     29  N   ASP A   5      12.766 -11.651 -18.443  0.00  0.00    -0.302 N 
ATOM     30  H   ASP A   5      12.716 -12.633 -18.190  0.00  0.00    +0.150 HD
ATOM     31  C   ARG A   4      13.709 -11.315 -19.389  0.00  0.00    +0.234 C 
ATOM     32  O   ARG A   4      13.606 -10.324 -20.109  0.00  0.00    -0.274 OA
BRANCH  31  33
ATOM     33  CA  ARG A   4      14.966 -12.209 -19.480  0.00  0.00    +0.159 C 
BRANCH  33  34
ATOM     34  N   ARG A   4      15.046 -13.231 -18.407  0.00  0.00    -0.302 N 
ATOM     35  H   ARG A   4      14.553 -13.015 -17.547  0.00  0.00    +0.150 HD
ATOM     36  C   VAL A   3      16.256 -13.892 -18.210  0.00  0.00    +0.234 C 
ATOM     37  O   VAL A   3      17.212 -13.681 -18.950  0.00  0.00    -0.274 OA
BRANCH  36  38
ATOM     38  CA  VAL A   3      16.331 -14.810 -16.953  0.00  0.00    +0.161 C 
BRANCH  38  39
ATOM     39  N   VAL A   3      15.187 -15.728 -16.971  0.00  0.00    -0.302 N 
ATOM     40  H   VAL A   3      14.422 -15.591 -17.599  0.00  0.00    +0.150 HD
ATOM     41  C   VAL A   2      15.028 -16.758 -15.987  0.00  0.00    +0.234 C 
ATOM     42  O   VAL A   2      15.898 -16.979 -15.179  0.00  0.00    -0.274 OA
BRANCH  41  43
ATOM     43  CA  VAL A   2      13.763 -17.576 -16.098  0.00  0.00    +0.161 C 
BRANCH  43  44
ATOM     44  N   VAL A   2      14.150 -18.966 -15.920  0.00  0.00    -0.302 N 
ATOM     45  H   VAL A   2      15.035 -19.224 -16.364  0.00  0.00    +0.150 HD
ATOM     46  C   ARG A   1      13.384 -19.981 -15.408  0.00  0.00    +0.230 C 
ATOM     47  O   ARG A   1      12.295 -19.828 -14.859  0.00  0.00    -0.274 OA
BRANCH  46  48
ATOM     48  CA  ARG A   1      13.929 -21.397 -15.685  0.00  0.00    +0.138 C 
BRANCH  48  49
ATOM     49  N   ARG A   1      13.434 -22.305 -14.633  0.00  0.00    -0.320 NA
ATOM     50  H1  ARG A   1      12.517 -21.952 -14.330  0.00  0.00    +0.119 HD
ATOM     51  H2  ARG A   1      13.262 -23.235 -15.007  0.00  0.00    +0.119 HD
ENDBRANCH  48  49
BRANCH  48  52
ATOM     52  CB  ARG A   1      13.409 -21.834 -17.064  0.00  0.00    +0.031 C 
BRANCH  52  53
ATOM     53  CG  ARG A   1      13.962 -20.989 -18.216  0.00  0.00    +0.039 C 
BRANCH  53  54
ATOM     54  CD  ARG A   1      13.412 -21.438 -19.561  0.00  0.00    +0.196 C 
BRANCH  54  55
ATOM     55  NE  ARG A   1      13.924 -20.568 -20.594  0.00  0.00    -0.276 N 
ATOM     56  HE  ARG A   1      14.695 -20.937 -21.136  0.00  0.00    +0.258 HD
ATOM     57  CZ  ARG A   1      13.367 -19.419 -21.030  0.00  0.00    +0.376 C 
ATOM     58  NH2 ARG A   1      14.022 -18.900 -22.091  0.00  0.00    -0.289 N 
ATOM     59 HH21 ARG A   1      13.671 -17.973 -22.299  0.00  0.00    +0.255 HD
ATOM     60 HH22 ARG A   1      15.030 -18.919 -22.036  0.00  0.00    +0.255 HD
ATOM     61  NH1 ARG A   1      12.349 -18.808 -20.567  0.00  0.00    -0.130 NA
ATOM     62  HH1 ARG A   1      11.946 -19.345 -19.797  0.00  0.00    +0.306 HD
ENDBRANCH  54  55
ENDBRANCH  53  54
ENDBRANCH  52  53
ENDBRANCH  48  52
ENDBRANCH  46  48
ENDBRANCH  43  44
BRANCH  43  63
ATOM     63  CB  VAL A   2      12.768 -17.025 -15.071  0.00  0.00    +0.012 C 
ATOM     64  CG2 VAL A   2      12.427 -15.567 -15.368  0.00  0.00    +0.009 C 
ATOM     65  CG1 VAL A   2      13.215 -17.190 -13.612  0.00  0.00    +0.009 C 
ENDBRANCH  43  63
ENDBRANCH  41  43
ENDBRANCH  38  39
BRANCH  38  66
ATOM     66  CB  VAL A   3      17.701 -15.536 -16.797  0.00  0.00    +0.012 C 
ATOM     67  CG2 VAL A   3      18.906 -14.600 -16.706  0.00  0.00    +0.009 C 
ATOM     68  CG1 VAL A   3      17.914 -16.639 -17.836  0.00  0.00    +0.009 C 
ENDBRANCH  38  66
ENDBRANCH  36  38
ENDBRANCH  33  34
BRANCH  33  69
ATOM     69  CB  ARG A   4      15.090 -12.840 -20.888  0.00  0.00    +0.035 C 
BRANCH  69  70
ATOM     70  CG  ARG A   4      15.062 -11.858 -22.070  0.00  0.00    +0.039 C 
BRANCH  70  71
ATOM     71  CD  ARG A   4      15.297 -12.590 -23.390  0.00  0.00    +0.196 C 
BRANCH  71  72
ATOM     72  NE  ARG A   4      15.215 -11.671 -24.507  0.00  0.00    -0.276 N 
ATOM     73  HE  ARG A   4      14.684 -10.822 -24.343  0.00  0.00    +0.258 HD
ATOM     74  CZ  ARG A   4      15.330 -12.042 -25.797  0.00  0.00    +0.376 C 
ATOM     75  NH2 ARG A   4      14.713 -11.206 -26.651  0.00  0.00    -0.289 N 
ATOM     76 HH21 ARG A   4      14.701 -11.623 -27.578  0.00  0.00    +0.255 HD
ATOM     77 HH22 ARG A   4      13.786 -10.920 -26.371  0.00  0.00    +0.255 HD
ATOM     78  NH1 ARG A   4      15.951 -13.065 -26.255  0.00  0.00    -0.130 NA
ATOM     79  HH1 ARG A   4      16.400 -13.550 -25.477  0.00  0.00    +0.306 HD
ENDBRANCH  71  72
ENDBRANCH  70  71
ENDBRANCH  69  70
ENDBRANCH  33  69
ENDBRANCH  31  33
ENDBRANCH  28  29
BRANCH  28  80
ATOM     80  CB  ASP A   5      11.554  -9.431 -18.607  0.00  0.00    +0.152 C 
BRANCH  80  81
ATOM     81  CG  ASP A   5      10.279  -8.683 -18.381  0.00  0.00    +0.307 C 
ATOM     82  OD1 ASP A   5       9.985  -8.139 -17.327  0.00  0.00    -0.251 OA
BRANCH  81  83
ATOM     83  OD2 ASP A   5       9.453  -8.690 -19.451  0.00  0.00    -0.481 OA
ATOM     84  HD2 ASP A   5       9.811  -9.150 -20.240  0.00  0.00    +0.295 HD
ENDBRANCH  81  83
ENDBRANCH  80  81
ENDBRANCH  28  80
ENDBRANCH  23  28
ENDBRANCH  19  21
ENDBRANCH  16  17
BRANCH  16  85
ATOM     85  CB  GLN A   7       9.329 -14.404 -13.763  0.00  0.00    +0.041 C 
BRANCH  85  86
ATOM     86  CG  GLN A   7       9.806 -15.421 -12.742  0.00  0.00    +0.098 C 
BRANCH  86  87
ATOM     87  CD  GLN A   7       9.247 -16.790 -13.068  0.00  0.00    +0.211 C 
ATOM     88  NE2 GLN A   7       9.541 -17.288 -14.298  0.00  0.00    -0.329 N 
ATOM     89 HE21 GLN A   7       9.270 -18.238 -14.516  0.00  0.00    +0.145 HD
ATOM     90 HE22 GLN A   7      10.113 -16.806 -14.975  0.00  0.00    +0.145 HD
ATOM     91  OE1 GLN A   7       8.553 -17.418 -12.278  0.00  0.00    -0.276 OA
ENDBRANCH  86  87
ENDBRANCH  85  86
ENDBRANCH  16  85
ENDBRANCH  14  16
ENDBRANCH  11  12
ENDBRANCH   9  11
ENDBRANCH   6   7
BRANCH   6  92
ATOM     92  CB  ILE A   9       7.958  -9.072 -11.441  0.00  0.00    +0.015 C 
ATOM     93  CG2 ILE A   9       7.395  -7.746 -10.903  0.00  0.00    +0.010 C 
BRANCH  92  95
ATOM     94  CD1 ILE A   9       7.864  -8.308 -13.862  0.00  0.00    +0.004 C 
ATOM     95  CG1 ILE A   9       8.744  -8.847 -12.742  0.00  0.00    +0.002 C 
ENDBRANCH  92  95
ENDBRANCH   6  92
ENDBRANCH   2   6
ENDBRANCH   1   3
BRANCH   1  96
ATOM     96  C   ARG A  10       6.065  -9.456  -7.009  0.00  0.00    +0.234 C 
ATOM     97  N   ALA A  11       4.991  -9.897  -6.175  0.00  0.00    -0.303 N 
ATOM     98  H   ALA A  11       5.358 -10.263  -5.307  0.00  0.00    +0.149 HD
ATOM     99  O   ARG A  10       5.935  -8.516  -7.806  0.00  0.00    -0.274 OA
BRANCH  97 100
ATOM    100  CA  ALA A  11       3.791  -9.016  -5.896  0.00  0.00    +0.156 C 
ATOM    101  CB  ALA A  11       2.713  -9.174  -6.945  0.00  0.00    +0.038 C 
BRANCH 100 102
ATOM    102  C   ALA A  11       3.195  -8.637  -4.444  0.00  0.00    +0.234 C 
ATOM    103  N   TRP A  12       2.713  -7.312  -4.332  0.00  0.00    -0.302 N 
ATOM    104  H   TRP A  12       2.816  -6.697  -5.120  0.00  0.00    +0.150 HD
ATOM    105  O   ALA A  11       3.228  -9.412  -3.491  0.00  0.00    -0.274 OA
BRANCH 103 106
ATOM    106  CA  TRP A  12       2.174  -6.602  -3.144  0.00  0.00    +0.163 C 
BRANCH 106 107
ATOM    107  C   TRP A  12       1.203  -5.371  -3.235  0.00  0.00    +0.234 C 
ATOM    108  N   VAL A  13       0.417  -5.241  -4.359  0.00  0.00    -0.302 N 
ATOM    109  H   VAL A  13       0.956  -5.381  -5.209  0.00  0.00    +0.150 HD
ATOM    110  O   TRP A  12       0.936  -4.646  -2.272  0.00  0.00    -0.274 OA
BRANCH 108 111
ATOM    111  CA  VAL A  13      -0.768  -4.289  -4.419  0.00  0.00    +0.161 C 
BRANCH 111 112
ATOM    112  C   VAL A  13      -1.104  -4.207  -5.914  0.00  0.00    +0.234 C 
ATOM    113  N   ALA A  14      -1.343  -5.417  -6.527  0.00  0.00    -0.303 N 
ATOM    114  H   ALA A  14      -1.641  -6.201  -5.952  0.00  0.00    +0.149 HD
ATOM    115  O   VAL A  13      -1.096  -3.144  -6.523  0.00  0.00    -0.274 OA
BRANCH 113 116
ATOM    116  CA  ALA A  14      -1.519  -5.552  -7.990  0.00  0.00    +0.156 C 
ATOM    117  CB  ALA A  14      -2.098  -4.304  -8.663  0.00  0.00    +0.038 C 
BRANCH 116 118
ATOM    118  C   ALA A  14      -0.227  -6.025  -8.743  0.00  0.00    +0.234 C 
ATOM    119  N   TRP A  15       0.939  -6.052  -8.025  0.00  0.00    -0.302 N 
ATOM    120  H   TRP A  15       0.851  -5.839  -7.024  0.00  0.00    +0.150 HD
ATOM    121  O   ALA A  14      -0.230  -6.311  -9.936  0.00  0.00    -0.274 OA
BRANCH 119 122
ATOM    122  CA  TRP A  15       2.338  -6.318  -8.490  0.00  0.00    +0.163 C 
BRANCH 122 123
ATOM    123  C   TRP A  15       3.222  -6.066  -7.203  0.00  0.00    +0.234 C 
ATOM    124  N   ARG A  16       4.580  -6.327  -7.162  0.00  0.00    -0.302 N 
ATOM    125  H   ARG A  16       5.005  -6.690  -8.030  0.00  0.00    +0.150 HD
ATOM    126  O   TRP A  15       2.620  -5.710  -6.180  0.00  0.00    -0.274 OA
BRANCH 124 127
ATOM    127  CA  ARG A  16       5.608  -6.234  -5.981  0.00  0.00    +0.159 C 
BRANCH 127 128
ATOM    128  C   ARG A  16       5.945  -7.259  -4.659  0.00  0.00    +0.234 C 
ATOM    129  N   ASN A  17       6.115  -6.966  -3.328  0.00  0.00    -0.302 N 
ATOM    130  H   ASN A  17       6.573  -6.098  -3.062  0.00  0.00    +0.150 HD
ATOM    131  O   ARG A  16       6.215  -8.445  -4.840  0.00  0.00    -0.274 OA
BRANCH 129 132
ATOM    132  CA  ASN A  17       6.126  -8.109  -2.265  0.00  0.00    +0.168 C 
BRANCH 132 133
ATOM    133  C   ASN A  17       5.586  -7.642  -0.870  0.00  0.00    +0.234 C 
ATOM    134  N   ARG A  18       4.541  -8.422  -0.352  0.00  0.00    -0.301 N 
ATOM    135  H   ARG A  18       4.447  -9.358  -0.748  0.00  0.00    +0.150 HD
ATOM    136  O   ASN A  17       6.065  -6.643  -0.339  0.00  0.00    -0.274 OA
BRANCH 134 137
ATOM    137  CA  ARG A  18       3.674  -8.157   0.843  0.00  0.00    +0.182 C 
BRANCH 137 138
ATOM    138  C   ARG A  18       2.585  -9.129   1.202  0.00  0.00    +0.325 C 
ATOM    139  O   ARG A  18       2.331 -10.146   0.562  0.00  0.00    -0.249 OA
BRANCH 138 140
ATOM    140  OXT ARG A  18       1.811  -8.754   2.262  0.00  0.00    -0.479 OA
ATOM    141  HXT ARG A  18       2.067  -7.944   2.751  0.00  0.00    +0.295 HD
ENDBRANCH 138 140
ENDBRANCH 137 138
BRANCH 137 142
ATOM    142  CB  ARG A  18       2.852  -6.871   0.821  0.00  0.00    +0.037 C 
BRANCH 142 143
ATOM    143  CG  ARG A  18       1.299  -6.520   0.035  0.00  0.00    +0.039 C 
BRANCH 143 144
ATOM    144  CD  ARG A  18       0.075  -7.365  -0.419  0.00  0.00    +0.196 C 
BRANCH 144 145
ATOM    145  NE  ARG A  18      -0.484  -7.097  -1.789  0.00  0.00    -0.276 N 
ATOM    146  HE  ARG A  18      -0.861  -6.157  -1.930  0.00  0.00    +0.258 HD
ATOM    147  CZ  ARG A  18      -0.635  -7.965  -2.837  0.00  0.00    +0.376 C 
ATOM    148  NH2 ARG A  18      -1.034  -7.451  -4.018  0.00  0.00    -0.289 N 
ATOM    149 HH21 ARG A  18      -0.667  -8.080  -4.736  0.00  0.00    +0.255 HD
ATOM    150 HH22 ARG A  18      -0.603  -6.553  -4.182  0.00  0.00    +0.255 HD
ATOM    151  NH1 ARG A  18      -0.242  -9.181  -2.918  0.00  0.00    -0.130 NA
ATOM    152  HH1 ARG A  18       0.187  -9.459  -2.038  0.00  0.00    +0.306 HD
ENDBRANCH 144 145
ENDBRANCH 143 144
ENDBRANCH 142 143
ENDBRANCH 137 142
ENDBRANCH 134 137
ENDBRANCH 132 133
BRANCH 132 153
ATOM    153  CB  ASN A  17       7.471  -8.802  -1.985  0.00  0.00    +0.127 C 
BRANCH 153 154
ATOM    154  CG  ASN A  17       7.286  -9.797  -0.852  0.00  0.00    +0.213 C 
ATOM    155  ND2 ASN A  17       8.064  -9.578   0.243  0.00  0.00    -0.329 N 
ATOM    156 HD21 ASN A  17       7.844 -10.123   1.068  0.00  0.00    +0.145 HD
ATOM    157 HD22 ASN A  17       8.523  -8.689   0.385  0.00  0.00    +0.145 HD
ATOM    158  OD1 ASN A  17       6.459 -10.702  -0.877  0.00  0.00    -0.276 OA
ENDBRANCH 153 154
ENDBRANCH 132 153
ENDBRANCH 129 132
ENDBRANCH 127 128
BRANCH 127 159
ATOM    159  CB  ARG A  16       5.849  -4.810  -5.636  0.00  0.00    +0.035 C 
BRANCH 159 160
ATOM    160  CG  ARG A  16       4.620  -4.102  -5.161  0.00  0.00    +0.039 C 
BRANCH 160 161
ATOM    161  CD  ARG A  16       5.093  -2.811  -4.555  0.00  0.00    +0.196 C 
BRANCH 161 162
ATOM    162  NE  ARG A  16       4.038  -2.204  -3.789  0.00  0.00    -0.276 N 
ATOM    163  HE  ARG A  16       3.476  -2.864  -3.255  0.00  0.00    +0.258 HD
ATOM    164  CZ  ARG A  16       3.346  -1.111  -4.127  0.00  0.00    +0.376 C 
ATOM    165  NH2 ARG A  16       2.677  -0.582  -3.081  0.00  0.00    -0.289 N 
ATOM    166 HH21 ARG A  16       1.941   0.039  -3.413  0.00  0.00    +0.255 HD
ATOM    167 HH22 ARG A  16       2.261  -1.281  -2.456  0.00  0.00    +0.255 HD
ATOM    168  NH1 ARG A  16       3.181  -0.705  -5.331  0.00  0.00    -0.130 NA
ATOM    169  HH1 ARG A  16       3.708  -1.378  -5.891  0.00  0.00    +0.306 HD
ENDBRANCH 161 162
ENDBRANCH 160 161
ENDBRANCH 159 160
ENDBRANCH 127 159
ENDBRANCH 124 127
ENDBRANCH 122 123
BRANCH 122 170
ATOM    170  CB  TRP A  15       2.812  -5.451  -9.657  0.00  0.00    +0.069 C 
BRANCH 170 171
ATOM    171  CG  TRP A  15       3.018  -4.061  -9.189  0.00  0.00    -0.020 A 
ATOM    172  CD2 TRP A  15       4.218  -3.293  -9.204  0.00  0.00    +0.003 A 
ATOM    173  CE2 TRP A  15       3.981  -2.183  -8.393  0.00  0.00    +0.047 A 
ATOM    174  CZ2 TRP A  15       4.948  -1.211  -8.136  0.00  0.00    +0.026 A 
ATOM    175  CH2 TRP A  15       6.159  -1.315  -8.810  0.00  0.00    +0.002 A 
ATOM    176  CZ3 TRP A  15       6.426  -2.402  -9.639  0.00  0.00    +0.001 A 
ATOM    177  NE1 TRP A  15       2.683  -2.255  -7.952  0.00  0.00    -0.360 N 
ATOM    178  HE1 TRP A  15       2.246  -1.618  -7.293  0.00  0.00    +0.165 HD
ATOM    179  CE3 TRP A  15       5.488  -3.431  -9.800  0.00  0.00    +0.010 A 
ATOM    180  CD1 TRP A  15       2.062  -3.311  -8.538  0.00  0.00    +0.087 A 
ENDBRANCH 170 171
ENDBRANCH 122 170
ENDBRANCH 119 122
ENDBRANCH 116 118
ENDBRANCH 113 116
ENDBRANCH 111 112
BRANCH 111 181
ATOM    181  CB  VAL A  13      -0.466  -2.906  -3.821  0.00  0.00    +0.012 C 
ATOM    182  CG2 VAL A  13      -1.515  -1.800  -3.879  0.00  0.00    +0.009 C 
ATOM    183  CG1 VAL A  13       0.812  -2.453  -4.474  0.00  0.00    +0.009 C 
ENDBRANCH 111 181
ENDBRANCH 108 111
ENDBRANCH 106 107
BRANCH 106 184
ATOM    184  CB  TRP A  12       3.188  -6.392  -2.018  0.00  0.00    +0.069 C 
BRANCH 184 185
ATOM    185  CG  TRP A  12       3.506  -4.965  -1.305  0.00  0.00    -0.020 A 
ATOM    186  CD2 TRP A  12       3.203  -4.131  -0.005  0.00  0.00    +0.003 A 
ATOM    187  CE2 TRP A  12       3.978  -2.978  -0.076  0.00  0.00    +0.047 A 
ATOM    188  CZ2 TRP A  12       4.003  -1.982   0.924  0.00  0.00    +0.026 A 
ATOM    189  CH2 TRP A  12       3.359  -2.194   2.150  0.00  0.00    +0.002 A 
ATOM    190  CZ3 TRP A  12       2.627  -3.310   2.346  0.00  0.00    +0.001 A 
ATOM    191  NE1 TRP A  12       4.652  -3.032  -1.256  0.00  0.00    -0.360 N 
ATOM    192  HE1 TRP A  12       5.121  -2.250  -1.682  0.00  0.00    +0.165 HD
ATOM    193  CE3 TRP A  12       2.494  -4.190   1.267  0.00  0.00    +0.010 A 
ATOM    194  CD1 TRP A  12       4.532  -4.254  -1.849  0.00  0.00    +0.087 A 
ENDBRANCH 184 185
ENDBRANCH 106 184
ENDBRANCH 103 106
ENDBRANCH 100 102
ENDBRANCH  97 100
ENDBRANCH   1  96
BRANCH   1 195
ATOM    195  CB  ARG A  10       8.426 -10.004  -5.566  0.00  0.00    +0.035 C 
BRANCH 195 196
ATOM    196  CG  ARG A  10       9.473  -8.832  -5.439  0.00  0.00    +0.039 C 
BRANCH 196 197
ATOM    197  CD  ARG A  10       8.889  -7.451  -5.220  0.00  0.00    +0.196 C 
BRANCH 197 198
ATOM    198  NE  ARG A  10       9.865  -6.383  -4.967  0.00  0.00    -0.276 N 
ATOM    199  HE  ARG A  10      10.339  -6.569  -4.074  0.00  0.00    +0.258 HD
ATOM    200  CZ  ARG A  10       9.515  -5.083  -5.034  0.00  0.00    +0.376 C 
ATOM    201  NH2 ARG A  10       9.977  -4.338  -4.010  0.00  0.00    -0.289 N 
ATOM    202 HH21 ARG A  10       9.743  -3.358  -4.192  0.00  0.00    +0.255 HD
ATOM    203 HH22 ARG A  10      10.972  -4.422  -3.901  0.00  0.00    +0.255 HD
ATOM    204  NH1 ARG A  10       8.755  -4.517  -5.889  0.00  0.00    -0.130 NA
ATOM    205  HH1 ARG A  10       8.454  -5.194  -6.588  0.00  0.00    +0.306 HD
ENDBRANCH 197 198
ENDBRANCH 196 197
ENDBRANCH 195 196
ENDBRANCH   1 195
TORSDOF 73
