REMARK  Name = 
REMARK  11 active torsions:
REMARK  status: ('A' for Active; 'I' for Inactive)
REMARK    1  A    between atoms: C_1  and  C_2
REMARK    2  A    between atoms: C_5  and  C_36
REMARK    3  A    between atoms: N_6  and  C_7
REMARK    4  A    between atoms: N_15  and  C_16
REMARK    5  A    between atoms: C_16  and  C_17
REMARK    6  A    between atoms: C_17  and  C_18
REMARK    7  A    between atoms: C_18  and  C_19
REMARK    8  A    between atoms: C_18  and  N_25
REMARK    9  A    between atoms: C_26  and  C_28
REMARK   10  A    between atoms: C_36  and  C_37
REMARK   11  A    between atoms: C_36  and  C_38
REMARK                            x       y       z     vdW  Elec       q    Type
REMARK                         _______ _______ _______ _____ _____    ______ ____
ROOT
ATOM      1  C   UNL     1      -0.389  -6.155   1.550  0.00  0.00    +0.042 C 
ENDROOT
BRANCH   1   2
ATOM      2  C   UNL     1       0.153  -5.725   0.169  0.00  0.00    +0.087 C 
BRANCH   2   6
ATOM      3  C   UNL     1       2.556  -2.383   0.463  0.00  0.00    +0.093 C 
ATOM      4  C   UNL     1       2.319  -2.805  -0.996  0.00  0.00    +0.044 C 
ATOM      5  C   UNL     1       1.620  -4.190  -1.098  0.00  0.00    +0.059 C 
ATOM      6  N   UNL     1       1.117  -4.600   0.239  0.00  0.00    -0.296 NA
ATOM      7  C   UNL     1       2.377  -4.906   0.943  0.00  0.00    +0.059 C 
ATOM      8  C   UNL     1       3.250  -5.634  -0.084  0.00  0.00    +0.020 C 
ATOM      9  C   UNL     1       2.662  -5.261  -1.438  0.00  0.00    +0.020 C 
ATOM     10  C   UNL     1       2.998  -3.555   1.366  0.00  0.00    +0.044 C 
BRANCH   3  13
ATOM     11  C   UNL     1       1.814  -0.372   2.624  0.00  0.00    +0.088 C 
ATOM     12  C   UNL     1       2.979  -0.258   1.712  0.00  0.00    +0.131 A 
ATOM     13  N   UNL     1       3.317  -1.164   0.715  0.00  0.00    -0.312 N 
ATOM     14  C   UNL     1       4.476  -0.660   0.154  0.00  0.00    +0.136 A 
ATOM     15  N   UNL     1       4.779   0.472   0.762  0.00  0.00    -0.134 NA
ATOM     16  N   UNL     1       3.857   0.717   1.731  0.00  0.00    -0.135 NA
BRANCH  14  17
ATOM     17  C   UNL     1       5.295  -1.211  -0.980  0.00  0.00    +0.051 C 
ATOM     18  C   UNL     1       6.793  -0.930  -0.771  0.00  0.00    +0.015 C 
ATOM     19  C   UNL     1       4.866  -0.568  -2.304  0.00  0.00    +0.015 C 
ENDBRANCH  14  17
ENDBRANCH   3  13
ENDBRANCH   2   6
ENDBRANCH   1   2
BRANCH   1  20
ATOM     20  C   UNL     1      -1.469  -7.268   1.483  0.00  0.00    +0.104 C 
BRANCH  20  21
ATOM     21  C   UNL     1      -0.959  -8.557   0.865  0.00  0.00    -0.027 A 
ATOM     22  C   UNL     1      -1.578  -9.060  -0.292  0.00  0.00    +0.005 A 
ATOM     23  C   UNL     1      -1.067 -10.183  -0.944  0.00  0.00    +0.000 A 
ATOM     24  C   UNL     1       0.058 -10.829  -0.440  0.00  0.00    +0.000 A 
ATOM     25  C   UNL     1       0.653 -10.373   0.735  0.00  0.00    +0.000 A 
ATOM     26  C   UNL     1       0.144  -9.249   1.389  0.00  0.00    +0.005 A 
ENDBRANCH  20  21
BRANCH  20  27
ATOM     27  N   UNL     1      -2.005  -7.525   2.820  0.00  0.00    -0.308 N 
ATOM     28  H   UNL     1      -1.537  -8.199   3.409  0.00  0.00    +0.149 HD
ATOM     29  C   UNL     1      -3.047  -6.779   3.316  0.00  0.00    +0.217 C 
ATOM     30  O   UNL     1      -3.685  -6.003   2.605  0.00  0.00    -0.275 OA
BRANCH  29  31
ATOM     31  C   UNL     1      -3.344  -6.959   4.807  0.00  0.00    +0.075 C 
ATOM     32  C   UNL     1      -4.556  -6.115   5.246  0.00  0.00    +0.018 C 
ATOM     33  C   UNL     1      -4.270  -4.607   5.237  0.00  0.00    +0.076 C 
ATOM     34  C   UNL     1      -2.993  -4.252   5.976  0.00  0.00    +0.249 C 
ATOM     35  F   UNL     1      -3.206  -4.384   7.312  0.00  0.00    -0.206 F 
ATOM     36  F   UNL     1      -2.689  -2.947   5.759  0.00  0.00    -0.206 F 
ATOM     37  C   UNL     1      -1.799  -5.113   5.590  0.00  0.00    +0.076 C 
ATOM     38  C   UNL     1      -2.134  -6.604   5.680  0.00  0.00    +0.018 C 
ENDBRANCH  29  31
ENDBRANCH  20  27
ENDBRANCH   1  20
TORSDOF 8
