REMARK  Name = 
REMARK  10 active torsions:
REMARK  status: ('A' for Active; 'I' for Inactive)
REMARK    1  A    between atoms: C_1  and  C_2
REMARK    2  A    between atoms: N_4  and  C_5
REMARK    3  A    between atoms: C_7  and  N_23
REMARK    4  A    between atoms: C_10  and  C_20
REMARK    5  A    between atoms: C_12  and  C_14
REMARK    6  A    between atoms: C_14  and  C_16
REMARK    7  A    between atoms: C_16  and  C_17
REMARK    8  A    between atoms: C_16  and  O_19
REMARK    9  A    between atoms: C_17  and  O_18
REMARK   10  A    between atoms: C_20  and  O_22
REMARK                            x       y       z     vdW  Elec       q    Type
REMARK                         _______ _______ _______ _____ _____    ______ ____
ROOT
ATOM      1  C   UNL     1       4.995  -0.864  -0.664  0.00  0.00    +0.165 C 
ATOM      2  C   UNL     1       5.095  -0.053  -1.988  0.00  0.00    +0.266 C 
ATOM      3  O   UNL     1       5.947  -0.555  -3.019  0.00  0.00    -0.472 OA
ATOM      4  C   UNL     1       6.320  -1.876  -3.024  0.00  0.00    +0.205 C 
ATOM      5  C   UNL     1       6.001  -2.746  -2.066  0.00  0.00    +0.071 C 
ATOM      6  C   UNL     1       5.214  -2.390  -0.858  0.00  0.00    +0.239 C 
ENDROOT
BRANCH   6   7
ATOM      7  N   UNL     1       3.917  -3.055  -0.992  0.00  0.00    -0.104 NA
ATOM      8  C   UNL     1       3.321  -3.495   0.050  0.00  0.00    +0.377 C 
ATOM      9  N   UNL     1       2.113  -4.088  -0.065  0.00  0.00    -0.289 N 
ATOM     10  H   UNL     1       1.998  -4.901   0.526  0.00  0.00    +0.255 HD
ATOM     11  H   UNL     1       1.902  -4.303  -1.034  0.00  0.00    +0.255 HD
ATOM     12  N   UNL     1       3.693  -3.481   1.349  0.00  0.00    -0.289 N 
ATOM     13  H   UNL     1       2.909  -3.329   1.974  0.00  0.00    +0.255 HD
ATOM     14  H   UNL     1       4.467  -2.882   1.591  0.00  0.00    +0.255 HD
ENDBRANCH   6   7
BRANCH   1  17
ATOM     15  C   UNL     1       6.438   1.293   2.123  0.00  0.00    +0.109 C 
ATOM     16  C   UNL     1       5.651   0.960   0.886  0.00  0.00    +0.210 C 
ATOM     17  N   UNL     1       5.869  -0.321   0.405  0.00  0.00    -0.305 N 
ATOM     18  H   UNL     1       6.336  -0.971   1.025  0.00  0.00    +0.149 HD
ATOM     19  O   UNL     1       4.906   1.771   0.350  0.00  0.00    -0.276 OA
ENDBRANCH   1  17
BRANCH   2  20
ATOM     20  C   UNL     1       3.695   0.336  -2.500  0.00  0.00    +0.206 C 
ATOM     21  O   UNL     1       2.758   0.588  -1.734  0.00  0.00    -0.291 OA
BRANCH  20  22
ATOM     22  C   UNL     1       3.520   0.495  -4.012  0.00  0.00    +0.209 C 
BRANCH  22  23
ATOM     23  O   UNL     1       4.514   1.362  -4.557  0.00  0.00    -0.382 OA
ATOM     24  H   UNL     1       4.164   2.270  -4.427  0.00  0.00    +0.210 HD
ENDBRANCH  22  23
BRANCH  22  25
ATOM     25  C   UNL     1       2.135   1.065  -4.343  0.00  0.00    +0.195 C 
BRANCH  25  26
ATOM     26  O   UNL     1       2.073   2.438  -3.937  0.00  0.00    -0.392 OA
ATOM     27  H   UNL     1       1.934   2.428  -2.967  0.00  0.00    +0.210 HD
ENDBRANCH  25  26
ENDBRANCH  22  25
ENDBRANCH  20  22
ENDBRANCH   2  20
BRANCH   4  28
ATOM     28  C   UNL     1       7.141  -2.343  -4.182  0.00  0.00    +0.372 C 
ATOM     29  O   UNL     1       7.606  -3.463  -4.308  0.00  0.00    -0.242 OA
BRANCH  28  30
ATOM     30  O   UNL     1       7.318  -1.350  -5.082  0.00  0.00    -0.475 OA
ATOM     31  H   UNL     1       6.857  -0.530  -4.796  0.00  0.00    +0.296 HD
ENDBRANCH  28  30
ENDBRANCH   4  28
TORSDOF 9
