REMARK  Name = 
REMARK  185 active torsions:
REMARK  status: ('A' for Active; 'I' for Inactive)
REMARK    1  A    between atoms: CD1_1  and  CG1_2
REMARK    2  A    between atoms: CG1_2  and  CB_3
REMARK    3  A    between atoms: CB_3  and  CG2_5
REMARK    4  A    between atoms: CB_3  and  CA_6
REMARK    5  A    between atoms: CA_6  and  C_8
REMARK    6  A    between atoms: CA_6  and  N_280
REMARK    7  A    between atoms: N_10  and  CA_11
REMARK    8  A    between atoms: CA_11  and  CB_13
REMARK    9  A    between atoms: CA_11  and  C_18
REMARK   10  A    between atoms: CB_13  and  CG_14
REMARK   11  A    between atoms: CG_14  and  CD_15
REMARK   12  A    between atoms: CD_15  and  OE2_17
REMARK   13  A    between atoms: N_20  and  CA_21
REMARK   14  A    between atoms: CA_21  and  CB_23
REMARK   15  A    between atoms: CA_21  and  C_28
REMARK   16  A    between atoms: CB_23  and  CG_24
REMARK   17  A    between atoms: CG_24  and  CD_25
REMARK   18  A    between atoms: CD_25  and  OE2_27
REMARK   19  A    between atoms: N_30  and  CA_31
REMARK   20  A    between atoms: CA_31  and  CB_33
REMARK   21  A    between atoms: CA_31  and  C_35
REMARK   22  A    between atoms: CB_33  and  OG_34
REMARK   23  A    between atoms: N_37  and  CA_38
REMARK   24  A    between atoms: CA_38  and  CB_40
REMARK   25  A    between atoms: CA_38  and  C_45
REMARK   26  A    between atoms: CB_40  and  CG_41
REMARK   27  A    between atoms: CG_41  and  CD_42
REMARK   28  A    between atoms: N_47  and  CA_48
REMARK   29  A    between atoms: CA_48  and  CB_50
REMARK   30  A    between atoms: CA_48  and  C_54
REMARK   31  A    between atoms: CB_50  and  CG_51
REMARK   32  A    between atoms: N_56  and  CA_57
REMARK   33  A    between atoms: CA_57  and  CB_59
REMARK   34  A    between atoms: CA_57  and  C_64
REMARK   35  A    between atoms: CB_59  and  CG_60
REMARK   36  A    between atoms: CG_60  and  CD_61
REMARK   37  A    between atoms: N_66  and  CA_67
REMARK   38  A    between atoms: CA_67  and  CB_69
REMARK   39  A    between atoms: CA_67  and  C_74
REMARK   40  A    between atoms: CB_69  and  CG_70
REMARK   41  A    between atoms: CG_70  and  CD_71
REMARK   42  A    between atoms: N_76  and  CA_77
REMARK   43  A    between atoms: CA_77  and  CB_79
REMARK   44  A    between atoms: CA_77  and  C_84
REMARK   45  A    between atoms: CB_79  and  CG_80
REMARK   46  A    between atoms: CG_80  and  CD_81
REMARK   47  A    between atoms: CD_81  and  OE2_83
REMARK   48  A    between atoms: N_86  and  CA_87
REMARK   49  A    between atoms: CA_87  and  CB_89
REMARK   50  A    between atoms: CA_87  and  C_94
REMARK   51  A    between atoms: CB_89  and  CG_90
REMARK   52  A    between atoms: CG_90  and  CD_91
REMARK   53  A    between atoms: CD_91  and  CE_92
REMARK   54  A    between atoms: CE_92  and  NZ_93
REMARK   55  A    between atoms: N_96  and  CA_97
REMARK   56  A    between atoms: CA_97  and  CB_99
REMARK   57  A    between atoms: CA_97  and  C_103
REMARK   58  A    between atoms: CB_99  and  CG_100
REMARK   59  A    between atoms: N_105  and  CA_106
REMARK   60  A    between atoms: CA_106  and  CB_108
REMARK   61  A    between atoms: CA_106  and  C_113
REMARK   62  A    between atoms: CB_108  and  CG_109
REMARK   63  A    between atoms: CG_109  and  CD_110
REMARK   64  A    between atoms: CD_110  and  OE2_112
REMARK   65  A    between atoms: N_115  and  CA_116
REMARK   66  A    between atoms: CA_116  and  CB_118
REMARK   67  A    between atoms: CA_116  and  C_123
REMARK   68  A    between atoms: CB_118  and  CG_119
REMARK   69  A    between atoms: CG_119  and  CD_120
REMARK   70  A    between atoms: N_125  and  CA_126
REMARK   71  A    between atoms: CA_126  and  CB_128
REMARK   72  A    between atoms: CA_126  and  C_133
REMARK   73  A    between atoms: CB_128  and  CG_129
REMARK   74  A    between atoms: CG_129  and  CD_130
REMARK   75  A    between atoms: CD_130  and  OE2_132
REMARK   76  A    between atoms: N_135  and  CA_136
REMARK   77  A    between atoms: CA_136  and  CB_138
REMARK   78  A    between atoms: CA_136  and  C_142
REMARK   79  A    between atoms: CB_138  and  CG_139
REMARK   80  A    between atoms: CG_139  and  CD1_140
REMARK   81  A    between atoms: CG_139  and  CD2_141
REMARK   82  A    between atoms: N_144  and  CA_145
REMARK   83  A    between atoms: CA_145  and  CB_147
REMARK   84  A    between atoms: CA_145  and  C_151
REMARK   85  A    between atoms: CB_147  and  CG_148
REMARK   86  A    between atoms: CG_148  and  CD1_149
REMARK   87  A    between atoms: CG_148  and  CD2_150
REMARK   88  A    between atoms: N_153  and  CA_154
REMARK   89  A    between atoms: CA_154  and  CB_156
REMARK   90  A    between atoms: CA_154  and  C_161
REMARK   91  A    between atoms: CB_156  and  CG_157
REMARK   92  A    between atoms: CG_157  and  CD_158
REMARK   93  A    between atoms: CD_158  and  OE2_160
REMARK   94  A    between atoms: N_163  and  CA_164
REMARK   95  A    between atoms: CA_164  and  CB_166
REMARK   96  A    between atoms: CA_164  and  C_170
REMARK   97  A    between atoms: CB_166  and  CG_167
REMARK   98  A    between atoms: CG_167  and  CD1_168
REMARK   99  A    between atoms: CG_167  and  CD2_169
REMARK  100  A    between atoms: N_172  and  CA_173
REMARK  101  A    between atoms: CA_173  and  CB_175
REMARK  102  A    between atoms: CA_173  and  C_179
REMARK  103  A    between atoms: CB_175  and  CG_176
REMARK  104  A    between atoms: CG_176  and  OD2_178
REMARK  105  A    between atoms: N_181  and  CA_182
REMARK  106  A    between atoms: CA_182  and  CB_184
REMARK  107  A    between atoms: CA_182  and  C_189
REMARK  108  A    between atoms: CB_184  and  CG_185
REMARK  109  A    between atoms: CG_185  and  CD_186
REMARK  110  A    between atoms: CD_186  and  CE_187
REMARK  111  A    between atoms: CE_187  and  NZ_188
REMARK  112  A    between atoms: N_191  and  CA_192
REMARK  113  A    between atoms: CA_192  and  CB_194
REMARK  114  A    between atoms: CA_192  and  C_204
REMARK  115  A    between atoms: CB_194  and  CG_195
REMARK  116  A    between atoms: N_206  and  CA_207
REMARK  117  A    between atoms: CA_207  and  CB_209
REMARK  118  A    between atoms: CA_207  and  C_210
REMARK  119  A    between atoms: N_212  and  C_213
REMARK  120  A    between atoms: C_213  and  C_215
REMARK  121  A    between atoms: C_213  and  C_217
REMARK  122  A    between atoms: C_215  and  O_216
REMARK  123  A    between atoms: N_219  and  C_220
REMARK  124  A    between atoms: C_220  and  C_222
REMARK  125  A    between atoms: C_220  and  C_226
REMARK  126  A    between atoms: C_222  and  C_223
REMARK  127  A    between atoms: C_223  and  C_224
REMARK  128  A    between atoms: C_223  and  C_225
REMARK  129  A    between atoms: N_228  and  C_229
REMARK  130  A    between atoms: C_229  and  C_231
REMARK  131  A    between atoms: C_229  and  C_241
REMARK  132  A    between atoms: C_231  and  C_232
REMARK  133  A    between atoms: N_243  and  C_244
REMARK  134  A    between atoms: C_244  and  C_246
REMARK  135  A    between atoms: C_244  and  C_250
REMARK  136  A    between atoms: C_246  and  C_247
REMARK  137  A    between atoms: N_252  and  C_253
REMARK  138  A    between atoms: C_253  and  C_255
REMARK  139  A    between atoms: C_253  and  C_265
REMARK  140  A    between atoms: C_255  and  C_256
REMARK  141  A    between atoms: N_267  and  C_268
REMARK  142  A    between atoms: C_268  and  C_270
REMARK  143  A    between atoms: C_268  and  C_277
REMARK  144  A    between atoms: C_270  and  C_271
REMARK  145  A    between atoms: C_281  and  CA_283
REMARK  146  A    between atoms: CA_283  and  CB_285
REMARK  147  A    between atoms: CA_283  and  N_289
REMARK  148  A    between atoms: CB_285  and  CG_286
REMARK  149  A    between atoms: CG_286  and  CD1_287
REMARK  150  A    between atoms: CG_286  and  CD2_288
REMARK  151  A    between atoms: C_290  and  CA_292
REMARK  152  A    between atoms: CA_292  and  CB_294
REMARK  153  A    between atoms: CA_292  and  N_296
REMARK  154  A    between atoms: CB_294  and  O_295
REMARK  155  A    between atoms: C_297  and  CA_299
REMARK  156  A    between atoms: CA_299  and  CB_301
REMARK  157  A    between atoms: CA_299  and  N_307
REMARK  158  A    between atoms: CB_301  and  CG_302
REMARK  159  A    between atoms: C_308  and  CA_310
REMARK  160  A    between atoms: CA_310  and  CB_312
REMARK  161  A    between atoms: CA_310  and  N_317
REMARK  162  A    between atoms: CB_312  and  CG2_314
REMARK  163  A    between atoms: CB_312  and  CG1_315
REMARK  164  A    between atoms: CG1_315  and  CD1_316
REMARK  165  A    between atoms: C_318  and  CA_320
REMARK  166  A    between atoms: CA_320  and  CB_322
REMARK  167  A    between atoms: CA_320  and  N_326
REMARK  168  A    between atoms: CB_322  and  CG_323
REMARK  169  A    between atoms: CG_323  and  CD1_324
REMARK  170  A    between atoms: CG_323  and  CD2_325
REMARK  171  A    between atoms: C_327  and  CA_329
REMARK  172  A    between atoms: CA_329  and  CB_331
REMARK  173  A    between atoms: CA_329  and  N_333
REMARK  174  A    between atoms: CB_331  and  O_332
REMARK  175  A    between atoms: C_334  and  CA_336
REMARK  176  A    between atoms: CA_336  and  CB_338
REMARK  177  A    between atoms: CA_336  and  N_342
REMARK  178  A    between atoms: CB_338  and  CG2_340
REMARK  179  A    between atoms: CB_338  and  OG1_341
REMARK  180  A    between atoms: C_343  and  CA_345
REMARK  181  A    between atoms: CA_345  and  CB_347
REMARK  182  A    between atoms: CA_345  and  N_355
REMARK  183  A    between atoms: CB_347  and  CG_348
REMARK  184  A    between atoms: CZ_351  and  OH_354
REMARK  185  A    between atoms: C_356  and  C_358
REMARK                            x       y       z     vdW  Elec       q    Type
REMARK                         _______ _______ _______ _____ _____    ______ ____
ROOT
ATOM      1  CA  ASN A  11      70.481 -20.603   8.754  0.00  0.00    +0.168 C 
ENDROOT
BRANCH   1   3
ATOM      2  C   LYS A  10      68.264 -21.085   7.615  0.00  0.00    +0.234 C 
ATOM      3  N   ASN A  11      69.056 -20.953   8.735  0.00  0.00    -0.302 N 
ATOM      4  H   ASN A  11      68.590 -20.773   9.619  0.00  0.00    +0.150 HD
ATOM      5  O   LYS A  10      68.687 -20.883   6.477  0.00  0.00    -0.274 OA
BRANCH   2   6
ATOM      6  CA  LYS A  10      66.801 -21.564   7.894  0.00  0.00    +0.159 C 
BRANCH   6   8
ATOM      7  C   GLU A   9      64.728 -21.603   6.468  0.00  0.00    +0.234 C 
ATOM      8  N   LYS A  10      66.109 -21.659   6.620  0.00  0.00    -0.302 N 
ATOM      9  H   LYS A  10      66.631 -22.167   5.920  0.00  0.00    +0.150 HD
ATOM     10  O   GLU A   9      63.980 -21.247   7.369  0.00  0.00    -0.274 OA
BRANCH   7  11
ATOM     11  CA  GLU A   9      64.246 -21.949   5.029  0.00  0.00    +0.159 C 
BRANCH  11  13
ATOM     12  C   GLN A   8      65.849 -23.233   3.460  0.00  0.00    +0.234 C 
ATOM     13  N   GLU A   9      65.508 -22.251   4.328  0.00  0.00    -0.302 N 
ATOM     14  H   GLU A   9      66.158 -21.502   4.413  0.00  0.00    +0.150 HD
ATOM     15  O   GLN A   8      65.008 -24.104   3.182  0.00  0.00    -0.274 OA
BRANCH  12  16
ATOM     16  CA  GLN A   8      67.364 -23.201   2.821  0.00  0.00    +0.159 C 
BRANCH  16  18
ATOM     17  C   GLN A   7      67.755 -24.699   0.690  0.00  0.00    +0.234 C 
ATOM     18  N   GLN A   8      67.044 -24.174   1.709  0.00  0.00    -0.302 N 
ATOM     19  H   GLN A   8      66.106 -24.594   1.750  0.00  0.00    +0.150 HD
ATOM     20  O   GLN A   7      68.986 -24.703   0.772  0.00  0.00    -0.274 OA
BRANCH  17  21
ATOM     21  CA  GLN A   7      66.889 -25.302  -0.675  0.00  0.00    +0.159 C 
BRANCH  21  23
ATOM     22  C   ASN A   6      64.640 -26.190  -2.143  0.00  0.00    +0.234 C 
ATOM     23  N   GLN A   7      65.436 -25.194  -1.474  0.00  0.00    -0.302 N 
ATOM     24  H   GLN A   7      65.437 -24.360  -2.071  0.00  0.00    +0.150 HD
ATOM     25  O   ASN A   6      65.185 -27.206  -2.545  0.00  0.00    -0.274 OA
BRANCH  22  26
ATOM     26  CA  ASN A   6      63.038 -26.016  -2.496  0.00  0.00    +0.168 C 
BRANCH  26  28
ATOM     27  C   GLN A   5      61.867 -24.013  -2.984  0.00  0.00    +0.234 C 
ATOM     28  N   ASN A   6      62.780 -24.884  -3.410  0.00  0.00    -0.302 N 
ATOM     29  H   ASN A   6      63.561 -24.490  -3.901  0.00  0.00    +0.150 HD
ATOM     30  O   GLN A   5      61.110 -24.453  -2.108  0.00  0.00    -0.274 OA
BRANCH  27  31
ATOM     31  CA  GLN A   5      61.923 -22.633  -3.527  0.00  0.00    +0.159 C 
BRANCH  31  33
ATOM     32  C   SER A   4      64.329 -22.130  -4.110  0.00  0.00    +0.236 C 
ATOM     33  N   GLN A   5      63.065 -22.619  -4.282  0.00  0.00    -0.302 N 
ATOM     34  H   GLN A   5      62.889 -23.292  -4.989  0.00  0.00    +0.150 HD
ATOM     35  O   SER A   4      64.769 -21.590  -3.116  0.00  0.00    -0.274 OA
BRANCH  32  36
ATOM     36  CA  SER A   4      65.118 -22.438  -5.354  0.00  0.00    +0.184 C 
BRANCH  36  38
ATOM     37  C   GLU A   3      65.689 -25.035  -5.031  0.00  0.00    +0.234 C 
ATOM     38  N   SER A   4      66.041 -23.676  -5.176  0.00  0.00    -0.301 N 
ATOM     39  H   SER A   4      67.023 -23.387  -5.235  0.00  0.00    +0.150 HD
ATOM     40  O   GLU A   3      64.728 -25.151  -4.244  0.00  0.00    -0.274 OA
BRANCH  37  41
ATOM     41  CA  GLU A   3      66.372 -26.680  -5.740  0.00  0.00    +0.159 C 
BRANCH  41  43
ATOM     42  C   GLU A   2      65.900 -29.327  -4.780  0.00  0.00    +0.234 C 
ATOM     43  N   GLU A   3      65.648 -27.969  -4.961  0.00  0.00    -0.302 N 
ATOM     44  H   GLU A   3      64.934 -27.663  -4.275  0.00  0.00    +0.150 HD
ATOM     45  O   GLU A   2      66.848 -29.776  -5.450  0.00  0.00    -0.274 OA
BRANCH  42  46
ATOM     46  CA  GLU A   2      65.145 -30.359  -3.477  0.00  0.00    +0.159 C 
BRANCH  46  48
ATOM     47  C   TYR A   1      63.384 -29.186  -1.630  0.00  0.00    +0.234 C 
ATOM     48  N   GLU A   2      64.385 -30.091  -2.043  0.00  0.00    -0.302 N 
ATOM     49  H   GLU A   2      64.844 -30.576  -1.260  0.00  0.00    +0.150 HD
ATOM     50  O   TYR A   1      62.267 -29.530  -2.046  0.00  0.00    -0.274 OA
BRANCH  47  51
ATOM     51  CA  TYR A   1      63.514 -27.922  -0.260  0.00  0.00    +0.162 C 
BRANCH  51  52
ATOM     52  N   TYR A   1      63.163 -26.328   0.003  0.00  0.00    -0.302 N 
ATOM     53  H   TYR A   1      62.184 -26.045   0.008  0.00  0.00    +0.150 HD
ATOM     54  C   TYR A   1      63.959 -25.265   0.529  0.00  0.00    +0.234 C 
ATOM     55  O   TYR A   1      64.986 -25.584   1.129  0.00  0.00    -0.274 OA
BRANCH  54  56
ATOM     56  CA  TYR A   1      63.652 -23.687  -0.140  0.00  0.00    +0.159 C 
BRANCH  56  57
ATOM     57  N   TYR A   1      62.391 -23.304  -0.634  0.00  0.00    -0.302 N 
ATOM     58  H   TYR A   1      62.712 -22.867  -1.467  0.00  0.00    +0.150 HD
ATOM     59  C   TYR A   1      61.360 -22.511  -0.229  0.00  0.00    +0.236 C 
ATOM     60  O   TYR A   1      61.456 -21.866   0.809  0.00  0.00    -0.274 OA
BRANCH  59  61
ATOM     61  CA  TYR A   1      60.204 -22.247  -1.378  0.00  0.00    +0.184 C 
BRANCH  61  62
ATOM     62  N   TYR A   1      60.399 -20.795  -2.204  0.00  0.00    -0.301 N 
ATOM     63  H   TYR A   1      59.476 -20.393  -2.257  0.00  0.00    +0.150 HD
ATOM     64  C   TYR A   1      61.471 -19.998  -2.855  0.00  0.00    +0.234 C 
ATOM     65  O   TYR A   1      62.659 -20.061  -2.515  0.00  0.00    -0.274 OA
BRANCH  64  66
ATOM     66  CA  TYR A   1      61.080 -18.754  -4.064  0.00  0.00    +0.165 C 
BRANCH  66  67
ATOM     67  N   TYR A   1      60.824 -18.894  -5.931  0.00  0.00    -0.302 N 
ATOM     68  H   TYR A   1      61.587 -19.451  -6.339  0.00  0.00    +0.150 HD
ATOM     69  C   TYR A   1      59.603 -18.937  -6.962  0.00  0.00    +0.234 C 
ATOM     70  O   TYR A   1      58.585 -18.243  -6.771  0.00  0.00    -0.274 OA
BRANCH  69  71
ATOM     71  CA  TYR A   1      59.413 -19.854  -8.230  0.00  0.00    +0.162 C 
BRANCH  71  72
ATOM     72  N   TYR A   1      60.645 -19.674  -8.909  0.00  0.00    -0.302 N 
ATOM     73  H   TYR A   1      60.747 -18.758  -9.335  0.00  0.00    +0.150 HD
ATOM     74  C   TYR A   1      61.717 -20.477  -8.702  0.00  0.00    +0.234 C 
ATOM     75  O   TYR A   1      61.587 -21.564  -8.160  0.00  0.00    -0.274 OA
BRANCH  74  76
ATOM     76  CA  TYR A   1      63.090 -19.952  -9.153  0.00  0.00    +0.159 C 
BRANCH  76  77
ATOM     77  N   TYR A   1      63.966 -21.123  -9.336  0.00  0.00    -0.302 N 
ATOM     78  H   TYR A   1      63.527 -22.013  -9.118  0.00  0.00    +0.150 HD
ATOM     79  C   TYR A   1      65.264 -21.102  -9.791  0.00  0.00    +0.236 C 
ATOM     80  O   TYR A   1      65.824 -20.031 -10.024  0.00  0.00    -0.274 OA
BRANCH  79  81
ATOM     81  CA  TYR A   1      65.958 -22.499 -10.113  0.00  0.00    +0.184 C 
BRANCH  81  82
ATOM     82  N   TYR A   1      65.743 -23.509  -9.101  0.00  0.00    -0.300 N 
ATOM     83  H   TYR A   1      65.884 -23.141  -8.192  0.00  0.00    +0.150 HD
ATOM     84  C   TYR A   1      66.012 -24.877  -9.208  0.00  0.00    +0.237 C 
ATOM     85  O   TYR A   1      66.569 -25.378 -10.160  0.00  0.00    -0.274 OA
BRANCH  84  86
ATOM     86  CA  TYR A   1      65.800 -25.800  -8.005  0.00  0.00    +0.187 C 
BRANCH  86  87
ATOM     87  N   TYR A   1      67.203 -25.111  -7.105  0.00  0.00    -0.300 N 
ATOM     88  H   TYR A   1      67.676 -25.310  -7.967  0.00  0.00    +0.150 HD
ATOM     89  C   TYR A   1      68.332 -25.095  -5.812  0.00  0.00    +0.234 C 
ATOM     90  O   TYR A   1      68.384 -23.859  -5.613  0.00  0.00    -0.274 OA
BRANCH  89  91
ATOM     91  CA  TYR A   1      69.586 -26.308  -4.795  0.00  0.00    +0.163 C 
BRANCH  91  92
ATOM     92  N   TYR A   1      70.282 -25.270  -3.838  0.00  0.00    -0.304 N 
ATOM     93  H   TYR A   1      70.347 -25.637  -2.886  0.00  0.00    +0.149 HD
ATOM     94  C   UNK A   0      70.423 -23.901  -3.939  0.00  0.00    +0.211 C 
ATOM     95  C   UNK A   0      70.406 -23.111  -2.638  0.00  0.00    +0.109 C 
ATOM     96  O   UNK A   0      70.537 -23.294  -4.999  0.00  0.00    -0.276 OA
ENDBRANCH  91  92
BRANCH  91  97
ATOM     97  CB  TYR A   1      69.817 -28.029  -3.778  0.00  0.00    +0.067 C 
BRANCH  97  98
ATOM     98  CG  TYR A   1      68.960 -28.880  -2.288  0.00  0.00    -0.045 A 
ATOM     99  CD2 TYR A   1      69.139 -28.614  -0.882  0.00  0.00    +0.007 A 
ATOM    100  CE2 TYR A   1      68.087 -28.687   0.215  0.00  0.00    +0.045 A 
ATOM    101  CZ  TYR A   1      66.840 -29.127   0.006  0.00  0.00    +0.117 A 
ATOM    102  CE1 TYR A   1      66.644 -29.155  -1.306  0.00  0.00    +0.045 A 
ATOM    103  CD1 TYR A   1      67.622 -29.241  -2.334  0.00  0.00    +0.007 A 
BRANCH 101 104
ATOM    104  OH  TYR A   1      65.803 -29.271   0.845  0.00  0.00    -0.507 OA
ATOM    105  HH  TYR A   1      65.688 -28.498   1.428  0.00  0.00    +0.292 HD
ENDBRANCH 101 104
ENDBRANCH  97  98
ENDBRANCH  91  97
ENDBRANCH  89  91
ENDBRANCH  86  87
BRANCH  86 106
ATOM    106  CB  TYR A   1      64.388 -25.444  -7.576  0.00  0.00    +0.141 C 
ATOM    107  CG2 TYR A   1      63.521 -26.121  -6.548  0.00  0.00    +0.040 C 
BRANCH 106 108
ATOM    108  OG1 TYR A   1      64.852 -24.316  -6.958  0.00  0.00    -0.390 OA
ATOM    109  HG1 TYR A   1      65.843 -24.247  -6.851  0.00  0.00    +0.210 HD
ENDBRANCH 106 108
ENDBRANCH  86 106
ENDBRANCH  84  86
ENDBRANCH  81  82
BRANCH  81 110
ATOM    110  CB  TYR A   1      65.568 -22.997 -11.503  0.00  0.00    +0.187 C 
BRANCH 110 111
ATOM    111  O   TYR A   1      64.240 -23.525 -11.526  0.00  0.00    -0.393 OA
ATOM    112  H   TYR A   1      64.163 -24.160 -10.795  0.00  0.00    +0.209 HD
ENDBRANCH 110 111
ENDBRANCH  81 110
ENDBRANCH  79  81
ENDBRANCH  76  77
BRANCH  76 113
ATOM    113  CB  TYR A   1      62.876 -19.122 -10.413  0.00  0.00    +0.034 C 
BRANCH 113 114
ATOM    114  CG  TYR A   1      62.009 -19.862 -11.465  0.00  0.00    -0.015 C 
ATOM    115  CD2 TYR A   1      62.643 -21.156 -11.925  0.00  0.00    +0.007 C 
ATOM    116  CD1 TYR A   1      61.697 -18.931 -12.609  0.00  0.00    +0.007 C 
ENDBRANCH 113 114
ENDBRANCH  76 113
ENDBRANCH  74  76
ENDBRANCH  71  72
BRANCH  71 117
ATOM    117  CB  TYR A   1      58.487 -21.168  -8.332  0.00  0.00    +0.015 C 
ATOM    118  CG2 TYR A   1      59.089 -22.515  -7.911  0.00  0.00    +0.010 C 
BRANCH 117 119
ATOM    119  CG1 TYR A   1      57.103 -21.106  -7.598  0.00  0.00    +0.002 C 
ATOM    120  CD1 TYR A   1      56.148 -19.967  -7.914  0.00  0.00    +0.004 C 
ENDBRANCH 117 119
ENDBRANCH  71 117
ENDBRANCH  69  71
ENDBRANCH  66  67
BRANCH  66 121
ATOM    121  CB  TYR A   1      60.003 -18.001  -3.076  0.00  0.00    +0.086 C 
BRANCH 121 122
ATOM    122  CG  TYR A   1      60.175 -17.991  -1.584  0.00  0.00    +0.038 A 
ATOM    123  ND1 TYR A   1      61.360 -18.017  -0.908  0.00  0.00    -0.348 N 
ATOM    124  HD1 TYR A   1      62.279 -18.202  -1.296  0.00  0.00    +0.166 HD
ATOM    125  CE1 TYR A   1      61.058 -17.892   0.412  0.00  0.00    +0.196 A 
ATOM    126  NE2 TYR A   1      59.779 -18.059   0.643  0.00  0.00    -0.244 NA
ATOM    127  CD2 TYR A   1      59.218 -18.191  -0.594  0.00  0.00    +0.133 A 
ENDBRANCH 121 122
ENDBRANCH  66 121
ENDBRANCH  64  66
ENDBRANCH  61  62
BRANCH  61 128
ATOM    128  CB  TYR A   1      59.167 -23.578  -2.126  0.00  0.00    +0.187 C 
BRANCH 128 129
ATOM    129  O   TYR A   1      59.287 -24.294  -3.455  0.00  0.00    -0.393 OA
ATOM    130  H   TYR A   1      60.136 -24.755  -3.632  0.00  0.00    +0.209 HD
ENDBRANCH 128 129
ENDBRANCH  61 128
ENDBRANCH  59  61
ENDBRANCH  56  57
BRANCH  56 131
ATOM    131  CB  TYR A   1      64.276 -22.336   0.076  0.00  0.00    +0.034 C 
BRANCH 131 132
ATOM    132  CG  TYR A   1      65.723 -22.284  -0.208  0.00  0.00    -0.015 C 
ATOM    133  CD2 TYR A   1      65.998 -21.472   0.965  0.00  0.00    +0.007 C 
ATOM    134  CD1 TYR A   1      66.734 -21.740  -1.239  0.00  0.00    +0.007 C 
ENDBRANCH 131 132
ENDBRANCH  56 131
ENDBRANCH  54  56
ENDBRANCH  51  52
BRANCH  51 135
ATOM    135  CB  TYR A   1      62.580 -28.562   0.744  0.00  0.00    +0.015 C 
ATOM    136  CG2 TYR A   1      63.076 -29.956   1.063  0.00  0.00    +0.010 C 
BRANCH 135 138
ATOM    137  CD1 TYR A   1      60.992 -28.153   2.633  0.00  0.00    +0.004 C 
ATOM    138  CG1 TYR A   1      62.281 -27.721   2.005  0.00  0.00    +0.002 C 
ENDBRANCH 135 138
ENDBRANCH  51 135
ENDBRANCH  47  51
ENDBRANCH  46  48
BRANCH  46 139
ATOM    139  CB  GLU A   2      64.519 -31.542  -4.184  0.00  0.00    +0.043 C 
BRANCH 139 140
ATOM    140  CG  GLU A   2      65.423 -32.168  -5.267  0.00  0.00    +0.123 C 
BRANCH 140 141
ATOM    141  CD  GLU A   2      66.732 -32.761  -4.756  0.00  0.00    +0.305 C 
ATOM    142  OE1 GLU A   2      66.846 -33.348  -3.692  0.00  0.00    -0.251 OA
BRANCH 141 143
ATOM    143  OE2 GLU A   2      67.782 -32.604  -5.594  0.00  0.00    -0.481 OA
ATOM    144  HE2 GLU A   2      67.624 -31.995  -6.341  0.00  0.00    +0.295 HD
ENDBRANCH 141 143
ENDBRANCH 140 141
ENDBRANCH 139 140
ENDBRANCH  46 139
ENDBRANCH  42  46
ENDBRANCH  41  43
BRANCH  41 145
ATOM    145  CB  GLU A   3      67.880 -27.208  -6.758  0.00  0.00    +0.043 C 
BRANCH 145 146
ATOM    146  CG  GLU A   3      69.317 -26.173  -7.548  0.00  0.00    +0.123 C 
BRANCH 146 147
ATOM    147  CD  GLU A   3      70.031 -26.728  -8.694  0.00  0.00    +0.305 C 
ATOM    148  OE1 GLU A   3      69.773 -26.408  -9.840  0.00  0.00    -0.251 OA
BRANCH 147 149
ATOM    149  OE2 GLU A   3      71.060 -27.477  -8.278  0.00  0.00    -0.481 OA
ATOM    150  HE2 GLU A   3      71.185 -27.429  -7.309  0.00  0.00    +0.295 HD
ENDBRANCH 147 149
ENDBRANCH 146 147
ENDBRANCH 145 146
ENDBRANCH  41 145
ENDBRANCH  37  41
ENDBRANCH  36  38
BRANCH  36 151
ATOM    151  CB  SER A   4      64.004 -22.387  -6.514  0.00  0.00    +0.187 C 
BRANCH 151 152
ATOM    152  OG  SER A   4      63.214 -21.226  -6.456  0.00  0.00    -0.393 OA
ATOM    153  H   SER A   4      63.838 -20.506  -6.417  0.00  0.00    +0.209 HD
ENDBRANCH 151 152
ENDBRANCH  36 151
ENDBRANCH  32  36
ENDBRANCH  31  33
BRANCH  31 154
ATOM    154  CB  GLN A   5      60.668 -22.412  -4.342  0.00  0.00    +0.041 C 
BRANCH 154 155
ATOM    155  CG  GLN A   5      60.539 -21.175  -5.109  0.00  0.00    +0.098 C 
BRANCH 155 156
ATOM    156  CD  GLN A   5      59.078 -20.493  -4.784  0.00  0.00    +0.211 C 
ATOM    157  NE2 GLN A   5      58.803 -19.166  -4.799  0.00  0.00    -0.329 N 
ATOM    158 HE21 GLN A   5      57.929 -18.748  -5.123  0.00  0.00    +0.145 HD
ATOM    159 HE22 GLN A   5      59.452 -18.435  -5.171  0.00  0.00    +0.145 HD
ATOM    160  OE1 GLN A   5      58.134 -21.177  -4.396  0.00  0.00    -0.276 OA
ENDBRANCH 155 156
ENDBRANCH 154 155
ENDBRANCH  31 154
ENDBRANCH  27  31
ENDBRANCH  26  28
BRANCH  26 161
ATOM    161  CB  ASN A   6      61.855 -26.987  -2.778  0.00  0.00    +0.127 C 
BRANCH 161 162
ATOM    162  CG  ASN A   6      62.334 -27.796  -3.905  0.00  0.00    +0.213 C 
ATOM    163  ND2 ASN A   6      61.714 -28.856  -4.413  0.00  0.00    -0.329 N 
ATOM    164 HD21 ASN A   6      62.410 -29.270  -5.027  0.00  0.00    +0.145 HD
ATOM    165 HD22 ASN A   6      61.508 -29.509  -3.654  0.00  0.00    +0.145 HD
ATOM    166  OD1 ASN A   6      63.461 -27.647  -4.327  0.00  0.00    -0.276 OA
ENDBRANCH 161 162
ENDBRANCH  26 161
ENDBRANCH  22  26
ENDBRANCH  21  23
BRANCH  21 167
ATOM    167  CB  GLN A   7      67.814 -24.661  -1.665  0.00  0.00    +0.041 C 
BRANCH 167 168
ATOM    168  CG  GLN A   7      67.505 -25.242  -2.941  0.00  0.00    +0.098 C 
BRANCH 168 169
ATOM    169  CD  GLN A   7      68.142 -26.501  -2.839  0.00  0.00    +0.211 C 
ATOM    170  NE2 GLN A   7      67.667 -27.299  -3.812  0.00  0.00    -0.329 N 
ATOM    171 HE21 GLN A   7      67.992 -28.196  -4.271  0.00  0.00    +0.145 HD
ATOM    172 HE22 GLN A   7      66.658 -27.419  -3.820  0.00  0.00    +0.145 HD
ATOM    173  OE1 GLN A   7      69.185 -26.530  -2.169  0.00  0.00    -0.276 OA
ENDBRANCH 168 169
ENDBRANCH 167 168
ENDBRANCH  21 167
ENDBRANCH  17  21
ENDBRANCH  16  18
BRANCH  16 174
ATOM    174  CB  GLN A   8      68.206 -21.725   2.420  0.00  0.00    +0.041 C 
BRANCH 174 175
ATOM    175  CG  GLN A   8      67.812 -20.473   3.210  0.00  0.00    +0.098 C 
BRANCH 175 176
ATOM    176  CD  GLN A   8      68.048 -19.095   2.607  0.00  0.00    +0.211 C 
ATOM    177  NE2 GLN A   8      68.061 -18.125   3.575  0.00  0.00    -0.329 N 
ATOM    178 HE21 GLN A   8      68.161 -17.155   3.309  0.00  0.00    +0.145 HD
ATOM    179 HE22 GLN A   8      67.956 -18.363   4.553  0.00  0.00    +0.145 HD
ATOM    180  OE1 GLN A   8      68.043 -18.806   1.418  0.00  0.00    -0.276 OA
ENDBRANCH 175 176
ENDBRANCH 174 175
ENDBRANCH  16 174
ENDBRANCH  12  16
ENDBRANCH  11  13
BRANCH  11 181
ATOM    181  CB  GLU A   9      63.142 -23.011   4.943  0.00  0.00    +0.043 C 
BRANCH 181 182
ATOM    182  CG  GLU A   9      61.877 -22.738   5.760  0.00  0.00    +0.123 C 
BRANCH 182 183
ATOM    183  CD  GLU A   9      60.924 -23.910   5.695  0.00  0.00    +0.305 C 
ATOM    184  OE1 GLU A   9      60.581 -24.562   6.669  0.00  0.00    -0.251 OA
BRANCH 183 185
ATOM    185  OE2 GLU A   9      60.460 -24.177   4.454  0.00  0.00    -0.481 OA
ATOM    186  HE2 GLU A   9      60.771 -23.553   3.771  0.00  0.00    +0.295 HD
ENDBRANCH 183 185
ENDBRANCH 182 183
ENDBRANCH 181 182
ENDBRANCH  11 181
ENDBRANCH   7  11
ENDBRANCH   6   8
BRANCH   6 187
ATOM    187  CB  LYS A  10      66.792 -22.963   8.534  0.00  0.00    +0.032 C 
BRANCH 187 188
ATOM    188  CG  LYS A  10      67.346 -23.020   9.952  0.00  0.00    +0.003 C 
BRANCH 188 189
ATOM    189  CD  LYS A  10      66.709 -22.045  10.934  0.00  0.00    +0.015 C 
BRANCH 189 190
ATOM    190  CE  LYS A  10      65.288 -22.494  11.221  0.00  0.00    +0.077 C 
BRANCH 190 191
ATOM    191  NZ  LYS A  10      64.656 -21.609  12.180  0.00  0.00    -0.330 NA
ATOM    192  HZ1 LYS A  10      63.718 -21.965  12.366  0.00  0.00    +0.118 HD
ATOM    193  HZ2 LYS A  10      65.159 -21.643  13.065  0.00  0.00    +0.118 HD
ENDBRANCH 190 191
ENDBRANCH 189 190
ENDBRANCH 188 189
ENDBRANCH 187 188
ENDBRANCH   6 187
ENDBRANCH   2   6
ENDBRANCH   1   3
BRANCH   1 194
ATOM    194  C   ASN A  11      71.290 -21.245   9.961  0.00  0.00    +0.234 C 
ATOM    195  N   GLU A  12      70.835 -22.449  10.480  0.00  0.00    -0.302 N 
ATOM    196  H   GLU A  12      70.206 -22.992   9.904  0.00  0.00    +0.150 HD
ATOM    197  O   ASN A  11      72.346 -20.745  10.352  0.00  0.00    -0.274 OA
BRANCH 195 198
ATOM    198  CA  GLU A  12      71.404 -23.176  11.668  0.00  0.00    +0.159 C 
BRANCH 198 199
ATOM    199  C   GLU A  12      70.603 -24.526  11.929  0.00  0.00    +0.234 C 
ATOM    200  N   GLN A  13      71.078 -25.378  12.920  0.00  0.00    -0.302 N 
ATOM    201  H   GLN A  13      72.002 -25.232  13.311  0.00  0.00    +0.150 HD
ATOM    202  O   GLU A  12      69.612 -24.809  11.253  0.00  0.00    -0.274 OA
BRANCH 200 203
ATOM    203  CA  GLN A  13      70.400 -26.609  13.446  0.00  0.00    +0.159 C 
BRANCH 203 204
ATOM    204  C   GLN A  13      71.159 -27.218  14.700  0.00  0.00    +0.234 C 
ATOM    205  N   GLU A  14      70.641 -28.377  15.288  0.00  0.00    -0.302 N 
ATOM    206  H   GLU A  14      69.836 -28.839  14.879  0.00  0.00    +0.150 HD
ATOM    207  O   GLN A  13      72.196 -26.681  15.095  0.00  0.00    -0.274 OA
BRANCH 205 208
ATOM    208  CA  GLU A  14      71.269 -29.117  16.437  0.00  0.00    +0.159 C 
BRANCH 208 209
ATOM    209  C   GLU A  14      70.511 -30.481  16.823  0.00  0.00    +0.234 C 
ATOM    210  N   LEU A  15      71.118 -31.277  17.803  0.00  0.00    -0.302 N 
ATOM    211  H   LEU A  15      72.114 -31.165  17.940  0.00  0.00    +0.150 HD
ATOM    212  O   GLU A  14      69.428 -30.770  16.319  0.00  0.00    -0.274 OA
BRANCH 210 213
ATOM    213  CA  LEU A  15      70.556 -32.506  18.456  0.00  0.00    +0.159 C 
BRANCH 213 214
ATOM    214  C   LEU A  15      71.008 -32.655  19.992  0.00  0.00    +0.234 C 
ATOM    215  N   LEU A  16      70.558 -31.713  20.917  0.00  0.00    -0.302 N 
ATOM    216  H   LEU A  16      69.763 -31.157  20.629  0.00  0.00    +0.150 HD
ATOM    217  O   LEU A  15      71.761 -33.555  20.367  0.00  0.00    -0.274 OA
BRANCH 215 218
ATOM    218  CA  LEU A  16      70.745 -31.941  22.402  0.00  0.00    +0.159 C 
BRANCH 218 219
ATOM    219  C   LEU A  16      69.664 -32.850  23.088  0.00  0.00    +0.234 C 
ATOM    220  N   GLU A  17      69.797 -33.009  24.473  0.00  0.00    -0.302 N 
ATOM    221  H   GLU A  17      70.551 -32.531  24.949  0.00  0.00    +0.150 HD
ATOM    222  O   LEU A  16      68.731 -33.319  22.439  0.00  0.00    -0.274 OA
BRANCH 220 223
ATOM    223  CA  GLU A  17      68.736 -33.560  25.350  0.00  0.00    +0.159 C 
BRANCH 223 224
ATOM    224  C   GLU A  17      69.180 -33.525  26.857  0.00  0.00    +0.234 C 
ATOM    225  N   LEU A  18      68.911 -32.347  27.524  0.00  0.00    -0.302 N 
ATOM    226  H   LEU A  18      68.650 -31.571  26.937  0.00  0.00    +0.150 HD
ATOM    227  O   GLU A  17      69.763 -34.463  27.395  0.00  0.00    -0.274 OA
BRANCH 225 228
ATOM    228  CA  LEU A  18      69.184 -32.112  28.978  0.00  0.00    +0.159 C 
BRANCH 228 229
ATOM    229  C   LEU A  18      68.549 -30.767  29.484  0.00  0.00    +0.234 C 
ATOM    230  N   ASP A  19      67.938 -29.984  28.517  0.00  0.00    -0.302 N 
ATOM    231  H   ASP A  19      67.593 -30.444  27.697  0.00  0.00    +0.150 HD
ATOM    232  O   LEU A  18      68.582 -30.415  30.659  0.00  0.00    -0.274 OA
BRANCH 230 233
ATOM    233  CA  ASP A  19      67.374 -28.667  28.807  0.00  0.00    +0.169 C 
BRANCH 233 234
ATOM    234  C   ASP A  19      66.637 -28.004  27.597  0.00  0.00    +0.234 C 
ATOM    235  N   LYS A  20      66.098 -28.816  26.609  0.00  0.00    -0.302 N 
ATOM    236  H   LYS A  20      66.063 -29.820  26.734  0.00  0.00    +0.150 HD
ATOM    237  O   ASP A  19      66.509 -26.777  27.603  0.00  0.00    -0.274 OA
BRANCH 235 238
ATOM    238  CA  LYS A  20      65.323 -28.354  25.387  0.00  0.00    +0.159 C 
BRANCH 238 239
ATOM    239  C   LYS A  20      65.389 -29.495  24.294  0.00  0.00    +0.234 C 
ATOM    240  N   TRP A  21      64.841 -29.225  23.053  0.00  0.00    -0.302 N 
ATOM    241  H   TRP A  21      64.056 -28.581  23.023  0.00  0.00    +0.150 HD
ATOM    242  O   LYS A  20      65.929 -30.568  24.572  0.00  0.00    -0.274 OA
BRANCH 240 243
ATOM    243  CA  TRP A  21      65.008 -29.962  21.753  0.00  0.00    +0.163 C 
BRANCH 243 244
ATOM    244  C   TRP A  21      64.288 -29.160  20.569  0.00  0.00    +0.234 C 
ATOM    245  N   ALA A  22      64.387 -29.657  19.269  0.00  0.00    -0.303 N 
ATOM    246  H   ALA A  22      64.832 -30.555  19.108  0.00  0.00    +0.149 HD
ATOM    247  O   TRP A  21      63.673 -28.117  20.809  0.00  0.00    -0.274 OA
BRANCH 245 248
ATOM    248  CA  ALA A  22      63.684 -29.074  18.072  0.00  0.00    +0.156 C 
ATOM    249  CB  ALA A  22      64.209 -27.679  17.749  0.00  0.00    +0.038 C 
BRANCH 248 250
ATOM    250  C   ALA A  22      63.837 -29.997  16.793  0.00  0.00    +0.234 C 
ATOM    251  N   UNK A  23      63.184 -29.643  15.613  0.00  0.00    -0.301 N 
ATOM    252  H   UNK A  23      62.716 -28.743  15.547  0.00  0.00    +0.150 HD
ATOM    253  O   ALA A  22      64.505 -31.033  16.861  0.00  0.00    -0.274 OA
BRANCH 251 254
ATOM    254  C   UNK A  23      63.274 -30.405  14.306  0.00  0.00    +0.184 C 
BRANCH 254 255
ATOM    255  C   UNK A  23      62.565 -29.672  13.091  0.00  0.00    +0.236 C 
ATOM    256  N   UNK A  23      62.707 -30.247  11.826  0.00  0.00    -0.302 N 
ATOM    257  H   UNK A  23      63.336 -31.033  11.696  0.00  0.00    +0.150 HD
ATOM    258  O   UNK A  23      61.910 -28.646  13.284  0.00  0.00    -0.274 OA
BRANCH 256 259
ATOM    259  C   UNK A  23      62.052 -29.773  10.552  0.00  0.00    +0.159 C 
BRANCH 259 260
ATOM    260  C   UNK A  23      62.394 -30.747   9.355  0.00  0.00    +0.234 C 
ATOM    261  N   UNK A  23      61.500 -30.801   8.296  0.00  0.00    -0.302 N 
ATOM    262  H   UNK A  23      60.598 -30.340   8.375  0.00  0.00    +0.150 HD
ATOM    263  O   UNK A  23      63.457 -31.373   9.348  0.00  0.00    -0.274 OA
BRANCH 261 264
ATOM    264  C   UNK A  23      61.683 -31.583   7.025  0.00  0.00    +0.163 C 
BRANCH 264 265
ATOM    265  C   UNK A  23      60.433 -31.370   6.074  0.00  0.00    +0.234 C 
ATOM    266  N   UNK A  23      60.386 -32.104   4.892  0.00  0.00    -0.302 N 
ATOM    267  H   UNK A  23      61.260 -32.418   4.476  0.00  0.00    +0.150 HD
ATOM    268  O   UNK A  23      59.522 -30.597   6.384  0.00  0.00    -0.274 OA
BRANCH 266 269
ATOM    269  C   UNK A  23      59.189 -32.149   3.996  0.00  0.00    +0.168 C 
BRANCH 269 270
ATOM    270  C   UNK A  23      59.083 -33.441   3.088  0.00  0.00    +0.234 C 
ATOM    271  N   UNK A  23      59.629 -34.600   3.575  0.00  0.00    -0.302 N 
ATOM    272  H   UNK A  23      60.258 -34.552   4.367  0.00  0.00    +0.150 HD
ATOM    273  O   UNK A  23      58.440 -33.439   2.035  0.00  0.00    -0.274 OA
BRANCH 271 274
ATOM    274  C   UNK A  23      59.582 -35.886   2.845  0.00  0.00    +0.163 C 
BRANCH 274 275
ATOM    275  C   UNK A  23      59.469 -37.061   3.848  0.00  0.00    +0.234 C 
ATOM    276  N   UNK A  23      59.337 -38.315   3.284  0.00  0.00    -0.302 N 
ATOM    277  H   UNK A  23      59.377 -38.437   2.276  0.00  0.00    +0.150 HD
ATOM    278  O   UNK A  23      59.501 -36.891   5.067  0.00  0.00    -0.274 OA
BRANCH 276 279
ATOM    279  C   UNK A  23      59.358 -39.560   4.061  0.00  0.00    +0.163 C 
BRANCH 279 280
ATOM    280  C   UNK A  23      59.384 -40.756   3.088  0.00  0.00    +0.231 C 
ATOM    281  N   UNK A  23      59.426 -42.008   3.630  0.00  0.00    -0.328 N 
ATOM    282  H   UNK A  23      59.402 -42.797   2.997  0.00  0.00    +0.145 HD
ATOM    283  H   UNK A  23      59.434 -42.194   4.624  0.00  0.00    +0.145 HD
ATOM    284  O   UNK A  23      59.415 -40.612   1.861  0.00  0.00    -0.274 OA
ENDBRANCH 279 280
BRANCH 279 285
ATOM    285  C   UNK A  23      58.213 -39.682   5.070  0.00  0.00    +0.067 C 
BRANCH 285 286
ATOM    286  C   UNK A  23      56.818 -39.634   4.491  0.00  0.00    -0.045 A 
ATOM    287  C   UNK A  23      56.138 -38.412   4.426  0.00  0.00    +0.004 A 
ATOM    288  C   UNK A  23      54.793 -38.372   4.067  0.00  0.00    +0.000 A 
ATOM    289  C   UNK A  23      54.129 -39.546   3.720  0.00  0.00    +0.000 A 
ATOM    290  C   UNK A  23      54.821 -40.755   3.692  0.00  0.00    +0.000 A 
ATOM    291  C   UNK A  23      56.160 -40.801   4.081  0.00  0.00    +0.004 A 
ENDBRANCH 285 286
ENDBRANCH 279 285
ENDBRANCH 276 279
ENDBRANCH 274 275
BRANCH 274 292
ATOM    292  C   UNK A  23      60.809 -36.093   1.926  0.00  0.00    +0.069 C 
BRANCH 292 293
ATOM    293  C   UNK A  23      62.084 -36.181   2.718  0.00  0.00    -0.020 A 
ATOM    294  C   UNK A  23      63.014 -35.129   2.956  0.00  0.00    +0.003 A 
ATOM    295  C   UNK A  23      63.913 -35.568   3.924  0.00  0.00    +0.047 A 
ATOM    296  C   UNK A  23      64.924 -34.754   4.445  0.00  0.00    +0.026 A 
ATOM    297  C   UNK A  23      65.051 -33.468   3.916  0.00  0.00    +0.002 A 
ATOM    298  C   UNK A  23      64.188 -33.016   2.926  0.00  0.00    +0.001 A 
ATOM    299  N   UNK A  23      63.596 -36.875   4.197  0.00  0.00    -0.360 N 
ATOM    300  H   UNK A  23      64.076 -37.453   4.871  0.00  0.00    +0.165 HD
ATOM    301  C   UNK A  23      63.162 -33.831   2.448  0.00  0.00    +0.010 A 
ATOM    302  C   UNK A  23      62.567 -37.286   3.393  0.00  0.00    +0.087 A 
ENDBRANCH 292 293
ENDBRANCH 274 292
ENDBRANCH 271 274
ENDBRANCH 269 270
BRANCH 269 303
ATOM    303  C   UNK A  23      59.071 -30.924   3.070  0.00  0.00    +0.127 C 
BRANCH 303 304
ATOM    304  C   UNK A  23      60.092 -31.136   2.001  0.00  0.00    +0.213 C 
ATOM    305  N   UNK A  23      59.884 -30.517   0.806  0.00  0.00    -0.329 N 
ATOM    306  H   UNK A  23      60.612 -30.594   0.103  0.00  0.00    +0.145 HD
ATOM    307  H   UNK A  23      59.270 -29.719   0.729  0.00  0.00    +0.145 HD
ATOM    308  O   UNK A  23      61.078 -31.830   2.224  0.00  0.00    -0.276 OA
ENDBRANCH 303 304
ENDBRANCH 269 303
ENDBRANCH 266 269
ENDBRANCH 264 265
BRANCH 264 309
ATOM    309  C   UNK A  23      61.903 -33.095   7.279  0.00  0.00    +0.069 C 
BRANCH 309 310
ATOM    310  C   UNK A  23      60.691 -33.715   7.909  0.00  0.00    -0.020 A 
ATOM    311  C   UNK A  23      60.420 -33.899   9.300  0.00  0.00    +0.003 A 
ATOM    312  C   UNK A  23      59.072 -34.243   9.412  0.00  0.00    +0.047 A 
ATOM    313  C   UNK A  23      58.428 -34.419  10.637  0.00  0.00    +0.026 A 
ATOM    314  C   UNK A  23      59.207 -34.320  11.790  0.00  0.00    +0.002 A 
ATOM    315  C   UNK A  23      60.565 -34.021  11.714  0.00  0.00    +0.001 A 
ATOM    316  N   UNK A  23      58.575 -34.363   8.141  0.00  0.00    -0.360 N 
ATOM    317  H   UNK A  23      57.620 -34.594   7.907  0.00  0.00    +0.165 HD
ATOM    318  C   UNK A  23      61.179 -33.776  10.481  0.00  0.00    +0.010 A 
ATOM    319  C   UNK A  23      59.574 -34.164   7.236  0.00  0.00    +0.087 A 
ENDBRANCH 309 310
ENDBRANCH 264 309
ENDBRANCH 261 264
ENDBRANCH 259 260
BRANCH 259 320
ATOM    320  C   UNK A  23      62.563 -28.362  10.194  0.00  0.00    +0.034 C 
BRANCH 320 321
ATOM    321  C   UNK A  23      62.014 -27.728   8.900  0.00  0.00    -0.015 C 
ATOM    322  C   UNK A  23      62.707 -26.384   8.658  0.00  0.00    +0.007 C 
ATOM    323  C   UNK A  23      60.496 -27.531   8.910  0.00  0.00    +0.007 C 
ENDBRANCH 320 321
ENDBRANCH 259 320
ENDBRANCH 256 259
ENDBRANCH 254 255
BRANCH 254 324
ATOM    324  C   UNK A  23      62.641 -31.808  14.405  0.00  0.00    +0.187 C 
BRANCH 324 325
ATOM    325  O   UNK A  23      63.325 -32.716  15.261  0.00  0.00    -0.393 OA
ATOM    326  H   UNK A  23      63.901 -32.204  15.869  0.00  0.00    +0.209 HD
ENDBRANCH 324 325
ENDBRANCH 254 324
ENDBRANCH 251 254
ENDBRANCH 248 250
ENDBRANCH 245 248
ENDBRANCH 243 244
BRANCH 243 327
ATOM    327  CB  TRP A  21      64.496 -31.403  21.868  0.00  0.00    +0.069 C 
BRANCH 327 328
ATOM    328  CG  TRP A  21      63.039 -31.405  22.216  0.00  0.00    -0.020 A 
ATOM    329  CD2 TRP A  21      62.445 -31.438  23.520  0.00  0.00    +0.003 A 
ATOM    330  CE2 TRP A  21      61.091 -31.145  23.355  0.00  0.00    +0.047 A 
ATOM    331  CZ2 TRP A  21      60.203 -31.026  24.430  0.00  0.00    +0.026 A 
ATOM    332  CH2 TRP A  21      60.700 -31.268  25.713  0.00  0.00    +0.002 A 
ATOM    333  CZ3 TRP A  21      62.040 -31.586  25.914  0.00  0.00    +0.001 A 
ATOM    334  NE1 TRP A  21      60.862 -31.026  22.006  0.00  0.00    -0.360 N 
ATOM    335  HE1 TRP A  21      59.968 -30.803  21.594  0.00  0.00    +0.165 HD
ATOM    336  CE3 TRP A  21      62.922 -31.656  24.830  0.00  0.00    +0.010 A 
ATOM    337  CD1 TRP A  21      62.008 -31.277  21.308  0.00  0.00    +0.087 A 
ENDBRANCH 327 328
ENDBRANCH 243 327
ENDBRANCH 240 243
ENDBRANCH 238 239
BRANCH 238 338
ATOM    338  CB  LYS A  20      65.887 -27.029  24.851  0.00  0.00    +0.032 C 
BRANCH 338 339
ATOM    339  CG  LYS A  20      65.195 -26.427  23.632  0.00  0.00    +0.003 C 
BRANCH 339 340
ATOM    340  CD  LYS A  20      65.880 -25.176  23.099  0.00  0.00    +0.015 C 
BRANCH 340 341
ATOM    341  CE  LYS A  20      67.343 -25.418  22.703  0.00  0.00    +0.077 C 
BRANCH 341 342
ATOM    342  NZ  LYS A  20      67.496 -26.491  21.717  0.00  0.00    -0.330 NA
ATOM    343  HZ1 LYS A  20      68.491 -26.645  21.556  0.00  0.00    +0.118 HD
ATOM    344  HZ2 LYS A  20      67.136 -27.367  22.092  0.00  0.00    +0.118 HD
ENDBRANCH 341 342
ENDBRANCH 340 341
ENDBRANCH 339 340
ENDBRANCH 338 339
ENDBRANCH 238 338
ENDBRANCH 235 238
ENDBRANCH 233 234
BRANCH 233 345
ATOM    345  CB  ASP A  19      68.408 -27.659  29.357  0.00  0.00    +0.152 C 
BRANCH 345 346
ATOM    346  CG  ASP A  19      69.475 -27.357  28.336  0.00  0.00    +0.307 C 
ATOM    347  OD1 ASP A  19      70.456 -28.062  28.148  0.00  0.00    -0.251 OA
BRANCH 346 348
ATOM    348  OD2 ASP A  19      69.234 -26.250  27.600  0.00  0.00    -0.481 OA
ATOM    349  HD2 ASP A  19      68.347 -25.851  27.752  0.00  0.00    +0.295 HD
ENDBRANCH 346 348
ENDBRANCH 345 346
ENDBRANCH 233 345
ENDBRANCH 230 233
ENDBRANCH 228 229
BRANCH 228 350
ATOM    350  CB  LEU A  18      70.708 -32.180  29.283  0.00  0.00    +0.034 C 
BRANCH 350 351
ATOM    351  CG  LEU A  18      71.176 -32.016  30.753  0.00  0.00    -0.015 C 
ATOM    352  CD2 LEU A  18      72.711 -32.031  30.831  0.00  0.00    +0.007 C 
ATOM    353  CD1 LEU A  18      70.629 -33.077  31.714  0.00  0.00    +0.007 C 
ENDBRANCH 350 351
ENDBRANCH 228 350
ENDBRANCH 225 228
ENDBRANCH 223 224
BRANCH 223 354
ATOM    354  CB  GLU A  17      68.387 -35.006  24.958  0.00  0.00    +0.043 C 
BRANCH 354 355
ATOM    355  CG  GLU A  17      67.337 -35.684  25.843  0.00  0.00    +0.123 C 
BRANCH 355 356
ATOM    356  CD  GLU A  17      65.980 -35.024  25.793  0.00  0.00    +0.305 C 
ATOM    357  OE1 GLU A  17      65.703 -34.018  25.165  0.00  0.00    -0.251 OA
BRANCH 356 358
ATOM    358  OE2 GLU A  17      65.080 -35.651  26.584  0.00  0.00    -0.481 OA
ATOM    359  HE2 GLU A  17      65.438 -36.442  27.030  0.00  0.00    +0.295 HD
ENDBRANCH 356 358
ENDBRANCH 355 356
ENDBRANCH 354 355
ENDBRANCH 223 354
ENDBRANCH 220 223
ENDBRANCH 218 219
BRANCH 218 360
ATOM    360  CB  LEU A  16      70.878 -30.601  23.174  0.00  0.00    +0.034 C 
BRANCH 360 361
ATOM    361  CG  LEU A  16      69.717 -29.609  23.008  0.00  0.00    -0.015 C 
ATOM    362  CD2 LEU A  16      70.004 -28.281  23.712  0.00  0.00    +0.007 C 
ATOM    363  CD1 LEU A  16      68.407 -30.097  23.586  0.00  0.00    +0.007 C 
ENDBRANCH 360 361
ENDBRANCH 218 360
ENDBRANCH 215 218
ENDBRANCH 213 214
BRANCH 213 364
ATOM    364  CB  LEU A  15      71.047 -33.731  17.635  0.00  0.00    +0.034 C 
BRANCH 364 365
ATOM    365  CG  LEU A  15      70.539 -35.126  18.070  0.00  0.00    -0.015 C 
ATOM    366  CD2 LEU A  15      71.213 -36.218  17.228  0.00  0.00    +0.007 C 
ATOM    367  CD1 LEU A  15      69.022 -35.280  17.989  0.00  0.00    +0.007 C 
ENDBRANCH 364 365
ENDBRANCH 213 364
ENDBRANCH 210 213
ENDBRANCH 208 209
BRANCH 208 368
ATOM    368  CB  GLU A  14      71.336 -28.192  17.668  0.00  0.00    +0.043 C 
BRANCH 368 369
ATOM    369  CG  GLU A  14      72.000 -28.827  18.883  0.00  0.00    +0.123 C 
BRANCH 369 370
ATOM    370  CD  GLU A  14      72.135 -27.850  20.059  0.00  0.00    +0.305 C 
ATOM    371  OE1 GLU A  14      72.063 -26.728  20.096  0.00  0.00    -0.251 OA
BRANCH 370 372
ATOM    372  OE2 GLU A  14      72.287 -28.604  21.206  0.00  0.00    -0.481 OA
ATOM    373  HE2 GLU A  14      72.200 -29.535  21.053  0.00  0.00    +0.295 HD
ENDBRANCH 370 372
ENDBRANCH 369 370
ENDBRANCH 368 369
ENDBRANCH 208 368
ENDBRANCH 205 208
ENDBRANCH 203 204
BRANCH 203 374
ATOM    374  CB  GLN A  13      70.317 -27.660  12.344  0.00  0.00    +0.041 C 
BRANCH 374 375
ATOM    375  CG  GLN A  13      71.714 -28.035  11.848  0.00  0.00    +0.098 C 
BRANCH 375 376
ATOM    376  CD  GLN A  13      71.659 -29.028  10.730  0.00  0.00    +0.211 C 
ATOM    377  NE2 GLN A  13      71.022 -28.626   9.600  0.00  0.00    -0.329 N 
ATOM    378 HE21 GLN A  13      70.933 -29.258   8.888  0.00  0.00    +0.145 HD
ATOM    379 HE22 GLN A  13      70.523 -27.751   9.544  0.00  0.00    +0.145 HD
ATOM    380  OE1 GLN A  13      72.172 -30.152  10.820  0.00  0.00    -0.276 OA
ENDBRANCH 375 376
ENDBRANCH 374 375
ENDBRANCH 203 374
ENDBRANCH 200 203
ENDBRANCH 198 199
BRANCH 198 381
ATOM    381  CB  GLU A  12      71.376 -22.264  12.916  0.00  0.00    +0.043 C 
BRANCH 381 382
ATOM    382  CG  GLU A  12      72.036 -22.862  14.159  0.00  0.00    +0.123 C 
BRANCH 382 383
ATOM    383  CD  GLU A  12      72.022 -21.955  15.357  0.00  0.00    +0.305 C 
ATOM    384  OE1 GLU A  12      71.459 -22.239  16.403  0.00  0.00    -0.251 OA
BRANCH 383 385
ATOM    385  OE2 GLU A  12      72.729 -20.820  15.195  0.00  0.00    -0.481 OA
ATOM    386  HE2 GLU A  12      73.136 -20.727  14.315  0.00  0.00    +0.295 HD
ENDBRANCH 383 385
ENDBRANCH 382 383
ENDBRANCH 381 382
ENDBRANCH 198 381
ENDBRANCH 195 198
ENDBRANCH   1 194
BRANCH   1 387
ATOM    387  CB  ASN A  11      70.640 -19.072   8.749  0.00  0.00    +0.127 C 
BRANCH 387 388
ATOM    388  CG  ASN A  11      70.078 -18.463  10.019  0.00  0.00    +0.213 C 
ATOM    389  ND2 ASN A  11      70.135 -17.104  10.088  0.00  0.00    -0.329 N 
ATOM    390 HD21 ASN A  11      69.720 -16.680  10.910  0.00  0.00    +0.145 HD
ATOM    391 HD22 ASN A  11      70.181 -16.531   9.256  0.00  0.00    +0.145 HD
ATOM    392  OD1 ASN A  11      69.572 -19.114  10.928  0.00  0.00    -0.276 OA
ENDBRANCH 387 388
ENDBRANCH   1 387
TORSDOF 166
