REMARK  Name = 
REMARK  185 active torsions:
REMARK  status: ('A' for Active; 'I' for Inactive)
REMARK    1  A    between atoms: CD1_1  and  CG1_2
REMARK    2  A    between atoms: CG1_2  and  CB_3
REMARK    3  A    between atoms: CB_3  and  CG2_5
REMARK    4  A    between atoms: CB_3  and  CA_6
REMARK    5  A    between atoms: CA_6  and  C_8
REMARK    6  A    between atoms: CA_6  and  N_280
REMARK    7  A    between atoms: N_10  and  CA_11
REMARK    8  A    between atoms: CA_11  and  CB_13
REMARK    9  A    between atoms: CA_11  and  C_18
REMARK   10  A    between atoms: CB_13  and  CG_14
REMARK   11  A    between atoms: CG_14  and  CD_15
REMARK   12  A    between atoms: CD_15  and  OE2_17
REMARK   13  A    between atoms: N_20  and  CA_21
REMARK   14  A    between atoms: CA_21  and  CB_23
REMARK   15  A    between atoms: CA_21  and  C_28
REMARK   16  A    between atoms: CB_23  and  CG_24
REMARK   17  A    between atoms: CG_24  and  CD_25
REMARK   18  A    between atoms: CD_25  and  OE2_27
REMARK   19  A    between atoms: N_30  and  CA_31
REMARK   20  A    between atoms: CA_31  and  CB_33
REMARK   21  A    between atoms: CA_31  and  C_35
REMARK   22  A    between atoms: CB_33  and  OG_34
REMARK   23  A    between atoms: N_37  and  CA_38
REMARK   24  A    between atoms: CA_38  and  CB_40
REMARK   25  A    between atoms: CA_38  and  C_45
REMARK   26  A    between atoms: CB_40  and  CG_41
REMARK   27  A    between atoms: CG_41  and  CD_42
REMARK   28  A    between atoms: N_47  and  CA_48
REMARK   29  A    between atoms: CA_48  and  CB_50
REMARK   30  A    between atoms: CA_48  and  C_54
REMARK   31  A    between atoms: CB_50  and  CG_51
REMARK   32  A    between atoms: N_56  and  CA_57
REMARK   33  A    between atoms: CA_57  and  CB_59
REMARK   34  A    between atoms: CA_57  and  C_64
REMARK   35  A    between atoms: CB_59  and  CG_60
REMARK   36  A    between atoms: CG_60  and  CD_61
REMARK   37  A    between atoms: N_66  and  CA_67
REMARK   38  A    between atoms: CA_67  and  CB_69
REMARK   39  A    between atoms: CA_67  and  C_74
REMARK   40  A    between atoms: CB_69  and  CG_70
REMARK   41  A    between atoms: CG_70  and  CD_71
REMARK   42  A    between atoms: N_76  and  CA_77
REMARK   43  A    between atoms: CA_77  and  CB_79
REMARK   44  A    between atoms: CA_77  and  C_84
REMARK   45  A    between atoms: CB_79  and  CG_80
REMARK   46  A    between atoms: CG_80  and  CD_81
REMARK   47  A    between atoms: CD_81  and  OE2_83
REMARK   48  A    between atoms: N_86  and  CA_87
REMARK   49  A    between atoms: CA_87  and  CB_89
REMARK   50  A    between atoms: CA_87  and  C_94
REMARK   51  A    between atoms: CB_89  and  CG_90
REMARK   52  A    between atoms: CG_90  and  CD_91
REMARK   53  A    between atoms: CD_91  and  CE_92
REMARK   54  A    between atoms: CE_92  and  NZ_93
REMARK   55  A    between atoms: N_96  and  CA_97
REMARK   56  A    between atoms: CA_97  and  CB_99
REMARK   57  A    between atoms: CA_97  and  C_103
REMARK   58  A    between atoms: CB_99  and  CG_100
REMARK   59  A    between atoms: N_105  and  CA_106
REMARK   60  A    between atoms: CA_106  and  CB_108
REMARK   61  A    between atoms: CA_106  and  C_113
REMARK   62  A    between atoms: CB_108  and  CG_109
REMARK   63  A    between atoms: CG_109  and  CD_110
REMARK   64  A    between atoms: CD_110  and  OE2_112
REMARK   65  A    between atoms: N_115  and  CA_116
REMARK   66  A    between atoms: CA_116  and  CB_118
REMARK   67  A    between atoms: CA_116  and  C_123
REMARK   68  A    between atoms: CB_118  and  CG_119
REMARK   69  A    between atoms: CG_119  and  CD_120
REMARK   70  A    between atoms: N_125  and  CA_126
REMARK   71  A    between atoms: CA_126  and  CB_128
REMARK   72  A    between atoms: CA_126  and  C_133
REMARK   73  A    between atoms: CB_128  and  CG_129
REMARK   74  A    between atoms: CG_129  and  CD_130
REMARK   75  A    between atoms: CD_130  and  OE2_132
REMARK   76  A    between atoms: N_135  and  CA_136
REMARK   77  A    between atoms: CA_136  and  CB_138
REMARK   78  A    between atoms: CA_136  and  C_142
REMARK   79  A    between atoms: CB_138  and  CG_139
REMARK   80  A    between atoms: CG_139  and  CD1_140
REMARK   81  A    between atoms: CG_139  and  CD2_141
REMARK   82  A    between atoms: N_144  and  CA_145
REMARK   83  A    between atoms: CA_145  and  CB_147
REMARK   84  A    between atoms: CA_145  and  C_151
REMARK   85  A    between atoms: CB_147  and  CG_148
REMARK   86  A    between atoms: CG_148  and  CD1_149
REMARK   87  A    between atoms: CG_148  and  CD2_150
REMARK   88  A    between atoms: N_153  and  CA_154
REMARK   89  A    between atoms: CA_154  and  CB_156
REMARK   90  A    between atoms: CA_154  and  C_161
REMARK   91  A    between atoms: CB_156  and  CG_157
REMARK   92  A    between atoms: CG_157  and  CD_158
REMARK   93  A    between atoms: CD_158  and  OE2_160
REMARK   94  A    between atoms: N_163  and  CA_164
REMARK   95  A    between atoms: CA_164  and  CB_166
REMARK   96  A    between atoms: CA_164  and  C_170
REMARK   97  A    between atoms: CB_166  and  CG_167
REMARK   98  A    between atoms: CG_167  and  CD1_168
REMARK   99  A    between atoms: CG_167  and  CD2_169
REMARK  100  A    between atoms: N_172  and  CA_173
REMARK  101  A    between atoms: CA_173  and  CB_175
REMARK  102  A    between atoms: CA_173  and  C_179
REMARK  103  A    between atoms: CB_175  and  CG_176
REMARK  104  A    between atoms: CG_176  and  OD2_178
REMARK  105  A    between atoms: N_181  and  CA_182
REMARK  106  A    between atoms: CA_182  and  CB_184
REMARK  107  A    between atoms: CA_182  and  C_189
REMARK  108  A    between atoms: CB_184  and  CG_185
REMARK  109  A    between atoms: CG_185  and  CD_186
REMARK  110  A    between atoms: CD_186  and  CE_187
REMARK  111  A    between atoms: CE_187  and  NZ_188
REMARK  112  A    between atoms: N_191  and  CA_192
REMARK  113  A    between atoms: CA_192  and  CB_194
REMARK  114  A    between atoms: CA_192  and  C_204
REMARK  115  A    between atoms: CB_194  and  CG_195
REMARK  116  A    between atoms: N_206  and  CA_207
REMARK  117  A    between atoms: CA_207  and  CB_209
REMARK  118  A    between atoms: CA_207  and  C_210
REMARK  119  A    between atoms: N_212  and  C_213
REMARK  120  A    between atoms: C_213  and  C_215
REMARK  121  A    between atoms: C_213  and  C_217
REMARK  122  A    between atoms: C_215  and  O_216
REMARK  123  A    between atoms: N_219  and  C_220
REMARK  124  A    between atoms: C_220  and  C_222
REMARK  125  A    between atoms: C_220  and  C_226
REMARK  126  A    between atoms: C_222  and  C_223
REMARK  127  A    between atoms: C_223  and  C_224
REMARK  128  A    between atoms: C_223  and  C_225
REMARK  129  A    between atoms: N_228  and  C_229
REMARK  130  A    between atoms: C_229  and  C_231
REMARK  131  A    between atoms: C_229  and  C_241
REMARK  132  A    between atoms: C_231  and  C_232
REMARK  133  A    between atoms: N_243  and  C_244
REMARK  134  A    between atoms: C_244  and  C_246
REMARK  135  A    between atoms: C_244  and  C_250
REMARK  136  A    between atoms: C_246  and  C_247
REMARK  137  A    between atoms: N_252  and  C_253
REMARK  138  A    between atoms: C_253  and  C_255
REMARK  139  A    between atoms: C_253  and  C_265
REMARK  140  A    between atoms: C_255  and  C_256
REMARK  141  A    between atoms: N_267  and  C_268
REMARK  142  A    between atoms: C_268  and  C_270
REMARK  143  A    between atoms: C_268  and  C_277
REMARK  144  A    between atoms: C_270  and  C_271
REMARK  145  A    between atoms: C_281  and  CA_283
REMARK  146  A    between atoms: CA_283  and  CB_285
REMARK  147  A    between atoms: CA_283  and  N_289
REMARK  148  A    between atoms: CB_285  and  CG_286
REMARK  149  A    between atoms: CG_286  and  CD1_287
REMARK  150  A    between atoms: CG_286  and  CD2_288
REMARK  151  A    between atoms: C_290  and  CA_292
REMARK  152  A    between atoms: CA_292  and  CB_294
REMARK  153  A    between atoms: CA_292  and  N_296
REMARK  154  A    between atoms: CB_294  and  O_295
REMARK  155  A    between atoms: C_297  and  CA_299
REMARK  156  A    between atoms: CA_299  and  CB_301
REMARK  157  A    between atoms: CA_299  and  N_307
REMARK  158  A    between atoms: CB_301  and  CG_302
REMARK  159  A    between atoms: C_308  and  CA_310
REMARK  160  A    between atoms: CA_310  and  CB_312
REMARK  161  A    between atoms: CA_310  and  N_317
REMARK  162  A    between atoms: CB_312  and  CG2_314
REMARK  163  A    between atoms: CB_312  and  CG1_315
REMARK  164  A    between atoms: CG1_315  and  CD1_316
REMARK  165  A    between atoms: C_318  and  CA_320
REMARK  166  A    between atoms: CA_320  and  CB_322
REMARK  167  A    between atoms: CA_320  and  N_326
REMARK  168  A    between atoms: CB_322  and  CG_323
REMARK  169  A    between atoms: CG_323  and  CD1_324
REMARK  170  A    between atoms: CG_323  and  CD2_325
REMARK  171  A    between atoms: C_327  and  CA_329
REMARK  172  A    between atoms: CA_329  and  CB_331
REMARK  173  A    between atoms: CA_329  and  N_333
REMARK  174  A    between atoms: CB_331  and  O_332
REMARK  175  A    between atoms: C_334  and  CA_336
REMARK  176  A    between atoms: CA_336  and  CB_338
REMARK  177  A    between atoms: CA_336  and  N_342
REMARK  178  A    between atoms: CB_338  and  CG2_340
REMARK  179  A    between atoms: CB_338  and  OG1_341
REMARK  180  A    between atoms: C_343  and  CA_345
REMARK  181  A    between atoms: CA_345  and  CB_347
REMARK  182  A    between atoms: CA_345  and  N_355
REMARK  183  A    between atoms: CB_347  and  CG_348
REMARK  184  A    between atoms: CZ_351  and  OH_354
REMARK  185  A    between atoms: C_356  and  C_358
REMARK                            x       y       z     vdW  Elec       q    Type
REMARK                         _______ _______ _______ _____ _____    ______ ____
ROOT
ATOM      1  CA  ASN A  11      16.175   7.762 -20.933  0.00  0.00    +0.168 C 
ENDROOT
BRANCH   1   2
ATOM      2  C   ASN A  11      15.853   9.311 -21.060  0.00  0.00    +0.234 C 
ATOM      3  N   GLU A  12      16.858  10.199 -21.437  0.00  0.00    -0.302 N 
ATOM      4  H   GLU A  12      17.642   9.782 -21.926  0.00  0.00    +0.150 HD
ATOM      5  O   ASN A  11      14.729   9.701 -20.728  0.00  0.00    -0.274 OA
BRANCH   3   6
ATOM      6  CA  GLU A  12      16.765  11.697 -21.584  0.00  0.00    +0.159 C 
BRANCH   6   7
ATOM      7  C   GLU A  12      18.058  12.594 -21.124  0.00  0.00    +0.234 C 
ATOM      8  N   GLN A  13      18.383  12.462 -19.781  0.00  0.00    -0.302 N 
ATOM      9  H   GLN A  13      17.778  11.745 -19.386  0.00  0.00    +0.150 HD
ATOM     10  O   GLU A  12      18.516  13.463 -21.855  0.00  0.00    -0.274 OA
BRANCH   8  11
ATOM     11  CA  GLN A  13      19.697  12.755 -19.002  0.00  0.00    +0.159 C 
BRANCH  11  12
ATOM     12  C   GLN A  13      21.063  11.575 -18.918  0.00  0.00    +0.234 C 
ATOM     13  N   GLU A  14      22.260  11.504 -18.140  0.00  0.00    -0.302 N 
ATOM     14  H   GLU A  14      22.180  11.851 -17.197  0.00  0.00    +0.150 HD
ATOM     15  O   GLN A  13      21.112  10.905 -19.961  0.00  0.00    -0.274 OA
BRANCH  13  16
ATOM     16  CA  GLU A  14      23.701  10.716 -18.341  0.00  0.00    +0.159 C 
BRANCH  16  17
ATOM     17  C   GLU A  14      24.757  10.927 -17.157  0.00  0.00    +0.234 C 
ATOM     18  N   LEU A  15      25.203   9.857 -16.471  0.00  0.00    -0.302 N 
ATOM     19  H   LEU A  15      24.760   8.952 -16.600  0.00  0.00    +0.150 HD
ATOM     20  O   GLU A  14      25.314  12.017 -17.102  0.00  0.00    -0.274 OA
BRANCH  18  21
ATOM     21  CA  LEU A  15      26.332   9.978 -15.508  0.00  0.00    +0.159 C 
BRANCH  21  22
ATOM     22  C   LEU A  15      27.758   9.446 -15.905  0.00  0.00    +0.234 C 
ATOM     23  N   LEU A  16      28.345  10.055 -17.024  0.00  0.00    -0.302 N 
ATOM     24  H   LEU A  16      27.695  10.535 -17.610  0.00  0.00    +0.150 HD
ATOM     25  O   LEU A  15      28.348   8.629 -15.207  0.00  0.00    -0.274 OA
BRANCH  23  26
ATOM     26  CA  LEU A  16      29.863  10.205 -17.261  0.00  0.00    +0.159 C 
BRANCH  26  27
ATOM     27  C   LEU A  16      30.580  11.053 -18.569  0.00  0.00    +0.234 C 
ATOM     28  N   GLU A  17      29.670  11.420 -19.515  0.00  0.00    -0.302 N 
ATOM     29  H   GLU A  17      28.842  11.039 -19.178  0.00  0.00    +0.150 HD
ATOM     30  O   LEU A  16      31.777  11.245 -18.640  0.00  0.00    -0.274 OA
BRANCH  28  31
ATOM     31  CA  GLU A  17      29.447  12.427 -20.999  0.00  0.00    +0.159 C 
BRANCH  31  32
ATOM     32  C   GLU A  17      27.872  14.039 -21.192  0.00  0.00    +0.234 C 
ATOM     33  N   LEU A  18      26.701  14.274 -20.323  0.00  0.00    -0.302 N 
ATOM     34  H   LEU A  18      26.474  13.711 -19.520  0.00  0.00    +0.150 HD
ATOM     35  O   GLU A  17      27.724  14.943 -22.013  0.00  0.00    -0.274 OA
BRANCH  33  36
ATOM     36  CA  LEU A  18      25.779  15.369 -20.487  0.00  0.00    +0.159 C 
BRANCH  36  37
ATOM     37  C   LEU A  18      24.622  14.529 -20.169  0.00  0.00    +0.234 C 
ATOM     38  N   ASP A  19      24.069  14.618 -18.935  0.00  0.00    -0.302 N 
ATOM     39  H   ASP A  19      24.198  15.489 -18.429  0.00  0.00    +0.150 HD
ATOM     40  O   LEU A  18      24.361  13.668 -20.996  0.00  0.00    -0.274 OA
BRANCH  38  41
ATOM     41  CA  ASP A  19      22.787  13.972 -18.822  0.00  0.00    +0.169 C 
BRANCH  41  42
ATOM     42  C   ASP A  19      22.591  13.818 -17.060  0.00  0.00    +0.234 C 
ATOM     43  N   LYS A  20      23.683  13.535 -16.288  0.00  0.00    -0.302 N 
ATOM     44  H   LYS A  20      24.500  13.427 -16.872  0.00  0.00    +0.150 HD
ATOM     45  O   ASP A  19      21.579  13.699 -16.409  0.00  0.00    -0.274 OA
BRANCH  43  46
ATOM     46  CA  LYS A  20      23.778  12.987 -14.848  0.00  0.00    +0.159 C 
BRANCH  46  47
ATOM     47  C   LYS A  20      25.470  12.918 -14.721  0.00  0.00    +0.234 C 
ATOM     48  N   TRP A  21      26.344  13.651 -15.518  0.00  0.00    -0.302 N 
ATOM     49  H   TRP A  21      26.034  13.947 -16.425  0.00  0.00    +0.150 HD
ATOM     50  O   LYS A  20      26.134  12.268 -13.923  0.00  0.00    -0.274 OA
BRANCH  48  51
ATOM     51  CA  TRP A  21      27.782  13.189 -15.515  0.00  0.00    +0.163 C 
BRANCH  51  52
ATOM     52  C   TRP A  21      28.753  14.052 -14.793  0.00  0.00    +0.234 C 
ATOM     53  N   ALA A  22      28.102  14.881 -13.945  0.00  0.00    -0.303 N 
ATOM     54  H   ALA A  22      27.086  14.803 -13.919  0.00  0.00    +0.149 HD
ATOM     55  O   TRP A  21      29.976  13.979 -14.909  0.00  0.00    -0.274 OA
BRANCH  53  56
ATOM     56  CA  ALA A  22      28.732  16.121 -13.626  0.00  0.00    +0.156 C 
ATOM     57  CB  ALA A  22      29.065  16.908 -14.892  0.00  0.00    +0.038 C 
BRANCH  56  58
ATOM     58  C   ALA A  22      27.719  16.884 -12.786  0.00  0.00    +0.234 C 
ATOM     59  N   UNK A  23      28.275  17.643 -11.795  0.00  0.00    -0.301 N 
ATOM     60  H   UNK A  23      29.290  17.690 -11.724  0.00  0.00    +0.150 HD
ATOM     61  O   ALA A  22      26.506  16.829 -12.998  0.00  0.00    -0.274 OA
BRANCH  59  62
ATOM     62  C   UNK A  23      27.512  18.512 -10.889  0.00  0.00    +0.184 C 
BRANCH  62  63
ATOM     63  C   UNK A  23      28.514  19.309 -10.001  0.00  0.00    +0.236 C 
ATOM     64  N   UNK A  23      27.955  20.300  -9.217  0.00  0.00    -0.302 N 
ATOM     65  H   UNK A  23      26.974  20.535  -9.343  0.00  0.00    +0.150 HD
ATOM     66  O   UNK A  23      29.716  19.052 -10.013  0.00  0.00    -0.274 OA
BRANCH  64  67
ATOM     67  C   UNK A  23      28.680  21.194  -8.266  0.00  0.00    +0.159 C 
BRANCH  67  68
ATOM     68  C   UNK A  23      27.615  22.157  -7.619  0.00  0.00    +0.234 C 
ATOM     69  N   UNK A  23      27.930  22.734  -6.403  0.00  0.00    -0.302 N 
ATOM     70  H   UNK A  23      28.786  22.470  -5.924  0.00  0.00    +0.150 HD
ATOM     71  O   UNK A  23      26.569  22.407  -8.221  0.00  0.00    -0.274 OA
BRANCH  69  72
ATOM     72  C   UNK A  23      27.160  23.829  -5.716  0.00  0.00    +0.163 C 
BRANCH  72  73
ATOM     73  C   UNK A  23      27.884  24.194  -4.364  0.00  0.00    +0.234 C 
ATOM     74  N   UNK A  23      27.359  25.238  -3.617  0.00  0.00    -0.302 N 
ATOM     75  H   UNK A  23      26.637  25.830  -4.017  0.00  0.00    +0.150 HD
ATOM     76  O   UNK A  23      28.897  23.578  -4.019  0.00  0.00    -0.274 OA
BRANCH  74  77
ATOM     77  C   UNK A  23      27.889  25.735  -2.308  0.00  0.00    +0.168 C 
BRANCH  77  78
ATOM     78  C   UNK A  23      27.069  26.994  -1.805  0.00  0.00    +0.234 C 
ATOM     79  N   UNK A  23      27.455  27.592  -0.611  0.00  0.00    -0.302 N 
ATOM     80  H   UNK A  23      28.176  27.177  -0.030  0.00  0.00    +0.150 HD
ATOM     81  O   UNK A  23      26.114  27.417  -2.464  0.00  0.00    -0.274 OA
BRANCH  79  82
ATOM     82  C   UNK A  23      26.920  28.898  -0.095  0.00  0.00    +0.163 C 
BRANCH  82  83
ATOM     83  C   UNK A  23      27.633  29.307   1.243  0.00  0.00    +0.234 C 
ATOM     84  N   UNK A  23      27.306  30.550   1.760  0.00  0.00    -0.302 N 
ATOM     85  H   UNK A  23      26.613  31.134   1.301  0.00  0.00    +0.150 HD
ATOM     86  O   UNK A  23      28.464  28.569   1.775  0.00  0.00    -0.274 OA
BRANCH  84  87
ATOM     87  C   UNK A  23      27.751  31.056   3.075  0.00  0.00    +0.163 C 
BRANCH  87  88
ATOM     88  C   UNK A  23      27.016  32.380   3.405  0.00  0.00    +0.231 C 
ATOM     89  N   UNK A  23      27.305  32.977   4.603  0.00  0.00    -0.328 N 
ATOM     90  H   UNK A  23      26.869  33.869   4.806  0.00  0.00    +0.145 HD
ATOM     91  H   UNK A  23      27.962  32.611   5.279  0.00  0.00    +0.145 HD
ATOM     92  O   UNK A  23      26.176  32.880   2.657  0.00  0.00    -0.274 OA
ENDBRANCH  87  88
BRANCH  87  93
ATOM     93  C   UNK A  23      29.271  31.232   3.192  0.00  0.00    +0.067 C 
BRANCH  93  94
ATOM     94  C   UNK A  23      29.895  32.189   2.202  0.00  0.00    -0.045 A 
ATOM     95  C   UNK A  23      30.422  31.694   1.003  0.00  0.00    +0.004 A 
ATOM     96  C   UNK A  23      31.120  32.535   0.138  0.00  0.00    +0.000 A 
ATOM     97  C   UNK A  23      31.272  33.885   0.448  0.00  0.00    +0.000 A 
ATOM     98  C   UNK A  23      30.695  34.402   1.606  0.00  0.00    +0.000 A 
ATOM     99  C   UNK A  23      30.010  33.558   2.481  0.00  0.00    +0.004 A 
ENDBRANCH  93  94
ENDBRANCH  87  93
ENDBRANCH  84  87
ENDBRANCH  82  83
BRANCH  82 100
ATOM    100  C   UNK A  23      25.383  28.945   0.108  0.00  0.00    +0.069 C 
BRANCH 100 101
ATOM    101  C   UNK A  23      24.933  27.969   1.150  0.00  0.00    -0.020 A 
ATOM    102  C   UNK A  23      24.600  28.212   2.523  0.00  0.00    +0.003 A 
ATOM    103  C   UNK A  23      24.510  26.963   3.140  0.00  0.00    +0.047 A 
ATOM    104  C   UNK A  23      24.256  26.801   4.506  0.00  0.00    +0.026 A 
ATOM    105  C   UNK A  23      23.971  27.949   5.247  0.00  0.00    +0.002 A 
ATOM    106  C   UNK A  23      24.017  29.211   4.658  0.00  0.00    +0.001 A 
ATOM    107  N   UNK A  23      24.698  26.015   2.164  0.00  0.00    -0.360 N 
ATOM    108  H   UNK A  23      24.712  25.019   2.325  0.00  0.00    +0.165 HD
ATOM    109  C   UNK A  23      24.375  29.362   3.311  0.00  0.00    +0.010 A 
ATOM    110  C   UNK A  23      24.765  26.615   0.941  0.00  0.00    +0.087 A 
ENDBRANCH 100 101
ENDBRANCH  82 100
ENDBRANCH  79  82
ENDBRANCH  77  78
BRANCH  77 111
ATOM    111  C   UNK A  23      29.377  26.084  -2.358  0.00  0.00    +0.127 C 
BRANCH 111 112
ATOM    112  C   UNK A  23      29.619  27.289  -3.236  0.00  0.00    +0.213 C 
ATOM    113  N   UNK A  23      30.738  28.001  -2.923  0.00  0.00    -0.329 N 
ATOM    114  H   UNK A  23      30.951  28.763  -3.555  0.00  0.00    +0.145 HD
ATOM    115  H   UNK A  23      31.512  27.562  -2.445  0.00  0.00    +0.145 HD
ATOM    116  O   UNK A  23      28.910  27.632  -4.173  0.00  0.00    -0.276 OA
ENDBRANCH 111 112
ENDBRANCH  77 111
ENDBRANCH  74  77
ENDBRANCH  72  73
BRANCH  72 117
ATOM    117  C   UNK A  23      25.668  23.504  -5.463  0.00  0.00    +0.069 C 
BRANCH 117 118
ATOM    118  C   UNK A  23      25.512  22.317  -4.566  0.00  0.00    -0.020 A 
ATOM    119  C   UNK A  23      25.209  22.288  -3.167  0.00  0.00    +0.003 A 
ATOM    120  C   UNK A  23      25.462  20.986  -2.731  0.00  0.00    +0.047 A 
ATOM    121  C   UNK A  23      25.333  20.587  -1.398  0.00  0.00    +0.026 A 
ATOM    122  C   UNK A  23      24.811  21.517  -0.499  0.00  0.00    +0.002 A 
ATOM    123  C   UNK A  23      24.514  22.817  -0.905  0.00  0.00    +0.001 A 
ATOM    124  N   UNK A  23      25.821  20.252  -3.834  0.00  0.00    -0.360 N 
ATOM    125  H   UNK A  23      26.092  19.279  -3.815  0.00  0.00    +0.165 HD
ATOM    126  C   UNK A  23      24.759  23.233  -2.221  0.00  0.00    +0.010 A 
ATOM    127  C   UNK A  23      25.655  21.001  -4.961  0.00  0.00    +0.087 A 
ENDBRANCH 117 118
ENDBRANCH  72 117
ENDBRANCH  69  72
ENDBRANCH  67  68
BRANCH  67 128
ATOM    128  C   UNK A  23      29.741  22.029  -9.013  0.00  0.00    +0.034 C 
BRANCH 128 129
ATOM    129  C   UNK A  23      30.565  23.006  -8.153  0.00  0.00    -0.015 C 
ATOM    130  C   UNK A  23      31.444  23.878  -9.053  0.00  0.00    +0.007 C 
ATOM    131  C   UNK A  23      31.431  22.308  -7.103  0.00  0.00    +0.007 C 
ENDBRANCH 128 129
ENDBRANCH  67 128
ENDBRANCH  64  67
ENDBRANCH  62  63
BRANCH  62 132
ATOM    132  C   UNK A  23      26.550  17.727  -9.977  0.00  0.00    +0.187 C 
BRANCH 132 133
ATOM    133  O   UNK A  23      25.427  17.159 -10.648  0.00  0.00    -0.393 OA
ATOM    134  H   UNK A  23      25.661  17.017 -11.591  0.00  0.00    +0.209 HD
ENDBRANCH 132 133
ENDBRANCH  62 132
ENDBRANCH  59  62
ENDBRANCH  56  58
ENDBRANCH  53  56
ENDBRANCH  51  52
BRANCH  51 135
ATOM    135  CB  TRP A  21      28.273  12.827 -16.865  0.00  0.00    +0.069 C 
BRANCH 135 136
ATOM    136  CG  TRP A  21      28.430  13.730 -17.966  0.00  0.00    -0.020 A 
ATOM    137  CD2 TRP A  21      28.485  13.322 -19.309  0.00  0.00    +0.003 A 
ATOM    138  CE2 TRP A  21      29.482  14.511 -19.977  0.00  0.00    +0.047 A 
ATOM    139  CZ2 TRP A  21      29.829  14.499 -21.726  0.00  0.00    +0.026 A 
ATOM    140  CH2 TRP A  21      28.917  13.401 -22.829  0.00  0.00    +0.002 A 
ATOM    141  CZ3 TRP A  21      27.657  12.323 -22.170  0.00  0.00    +0.001 A 
ATOM    142  NE1 TRP A  21      29.016  15.574 -19.141  0.00  0.00    -0.360 N 
ATOM    143  HE1 TRP A  21      28.852  16.503 -19.489  0.00  0.00    +0.165 HD
ATOM    144  CE3 TRP A  21      27.556  12.183 -20.407  0.00  0.00    +0.010 A 
ATOM    145  CD1 TRP A  21      28.336  15.091 -18.022  0.00  0.00    +0.087 A 
ENDBRANCH 135 136
ENDBRANCH  51 135
ENDBRANCH  48  51
ENDBRANCH  46  47
BRANCH  46 146
ATOM    146  CB  LYS A  20      22.608  11.677 -14.522  0.00  0.00    +0.032 C 
BRANCH 146 147
ATOM    147  CG  LYS A  20      22.076  10.973 -13.118  0.00  0.00    +0.003 C 
BRANCH 147 148
ATOM    148  CD  LYS A  20      21.339   9.595 -13.030  0.00  0.00    +0.015 C 
BRANCH 148 149
ATOM    149  CE  LYS A  20      21.865   8.506 -13.963  0.00  0.00    +0.077 C 
BRANCH 149 150
ATOM    150  NZ  LYS A  20      21.598   7.168 -13.448  0.00  0.00    -0.330 NA
ATOM    151  HZ1 LYS A  20      22.311   6.568 -13.868  0.00  0.00    +0.118 HD
ATOM    152  HZ2 LYS A  20      21.850   7.099 -12.460  0.00  0.00    +0.118 HD
ENDBRANCH 149 150
ENDBRANCH 148 149
ENDBRANCH 147 148
ENDBRANCH 146 147
ENDBRANCH  46 146
ENDBRANCH  43  46
ENDBRANCH  41  42
BRANCH  41 153
ATOM    153  CB  ASP A  19      22.359  13.058 -20.315  0.00  0.00    +0.152 C 
BRANCH 153 154
ATOM    154  CG  ASP A  19      22.863  11.723 -21.335  0.00  0.00    +0.307 C 
ATOM    155  OD1 ASP A  19      23.167  11.835 -22.520  0.00  0.00    -0.251 OA
BRANCH 154 156
ATOM    156  OD2 ASP A  19      22.970  10.437 -20.853  0.00  0.00    -0.481 OA
ATOM    157  HD2 ASP A  19      22.070  10.054 -20.754  0.00  0.00    +0.295 HD
ENDBRANCH 154 156
ENDBRANCH 153 154
ENDBRANCH  41 153
ENDBRANCH  38  41
ENDBRANCH  36  37
BRANCH  36 158
ATOM    158  CB  LEU A  18      25.444  15.775 -21.910  0.00  0.00    +0.034 C 
BRANCH 158 159
ATOM    159  CG  LEU A  18      24.123  16.510 -22.036  0.00  0.00    -0.015 C 
ATOM    160  CD2 LEU A  18      24.020  16.813 -23.520  0.00  0.00    +0.007 C 
ATOM    161  CD1 LEU A  18      24.173  17.714 -21.108  0.00  0.00    +0.007 C 
ENDBRANCH 158 159
ENDBRANCH  36 158
ENDBRANCH  33  36
ENDBRANCH  31  32
BRANCH  31 162
ATOM    162  CB  GLU A  17      29.458  10.879 -22.069  0.00  0.00    +0.043 C 
BRANCH 162 163
ATOM    163  CG  GLU A  17      29.309  10.830 -23.669  0.00  0.00    +0.123 C 
BRANCH 163 164
ATOM    164  CD  GLU A  17      28.514   9.682 -24.298  0.00  0.00    +0.305 C 
ATOM    165  OE1 GLU A  17      28.145   8.665 -23.736  0.00  0.00    -0.251 OA
BRANCH 164 166
ATOM    166  OE2 GLU A  17      28.175   9.950 -25.594  0.00  0.00    -0.481 OA
ATOM    167  HE2 GLU A  17      28.416  10.842 -25.917  0.00  0.00    +0.295 HD
ENDBRANCH 164 166
ENDBRANCH 163 164
ENDBRANCH 162 163
ENDBRANCH  31 162
ENDBRANCH  28  31
ENDBRANCH  26  27
BRANCH  26 168
ATOM    168  CB  LEU A  16      30.454   8.816 -17.179  0.00  0.00    +0.034 C 
BRANCH 168 169
ATOM    169  CG  LEU A  16      29.594   7.828 -17.983  0.00  0.00    -0.015 C 
ATOM    170  CD2 LEU A  16      30.041   6.431 -17.657  0.00  0.00    +0.007 C 
ATOM    171  CD1 LEU A  16      29.554   8.090 -19.481  0.00  0.00    +0.007 C 
ENDBRANCH 168 169
ENDBRANCH  26 168
ENDBRANCH  23  26
ENDBRANCH  21  22
BRANCH  21 172
ATOM    172  CB  LEU A  15      26.043   9.498 -14.069  0.00  0.00    +0.034 C 
BRANCH 172 173
ATOM    173  CG  LEU A  15      24.907  10.032 -13.145  0.00  0.00    -0.015 C 
ATOM    174  CD2 LEU A  15      24.846  11.375 -12.188  0.00  0.00    +0.007 C 
ATOM    175  CD1 LEU A  15      24.682   8.842 -12.175  0.00  0.00    +0.007 C 
ENDBRANCH 172 173
ENDBRANCH  21 172
ENDBRANCH  18  21
ENDBRANCH  16  17
BRANCH  16 176
ATOM    176  CB  GLU A  14      24.771  11.148 -19.433  0.00  0.00    +0.043 C 
BRANCH 176 177
ATOM    177  CG  GLU A  14      25.730  10.044 -19.848  0.00  0.00    +0.123 C 
BRANCH 177 178
ATOM    178  CD  GLU A  14      25.462   8.585 -19.871  0.00  0.00    +0.305 C 
ATOM    179  OE1 GLU A  14      24.859   7.996 -20.744  0.00  0.00    -0.251 OA
BRANCH 178 180
ATOM    180  OE2 GLU A  14      26.046   7.965 -18.818  0.00  0.00    -0.481 OA
ATOM    181  HE2 GLU A  14      26.721   8.493 -18.351  0.00  0.00    +0.295 HD
ENDBRANCH 178 180
ENDBRANCH 177 178
ENDBRANCH 176 177
ENDBRANCH  16 176
ENDBRANCH  13  16
ENDBRANCH  11  12
BRANCH  11 182
ATOM    182  CB  GLN A  13      19.397  13.266 -17.636  0.00  0.00    +0.041 C 
BRANCH 182 183
ATOM    183  CG  GLN A  13      18.231  14.184 -17.446  0.00  0.00    +0.098 C 
BRANCH 183 184
ATOM    184  CD  GLN A  13      18.498  15.498 -18.170  0.00  0.00    +0.211 C 
ATOM    185  NE2 GLN A  13      17.465  16.361 -18.081  0.00  0.00    -0.329 N 
ATOM    186 HE21 GLN A  13      17.571  17.278 -18.499  0.00  0.00    +0.145 HD
ATOM    187 HE22 GLN A  13      16.637  16.140 -17.552  0.00  0.00    +0.145 HD
ATOM    188  OE1 GLN A  13      19.527  15.804 -18.760  0.00  0.00    -0.276 OA
ENDBRANCH 183 184
ENDBRANCH 182 183
ENDBRANCH  11 182
ENDBRANCH   8  11
ENDBRANCH   6   7
BRANCH   6 189
ATOM    189  CB  GLU A  12      15.542  12.298 -20.867  0.00  0.00    +0.043 C 
BRANCH 189 190
ATOM    190  CG  GLU A  12      15.382  13.803 -21.021  0.00  0.00    +0.123 C 
BRANCH 190 191
ATOM    191  CD  GLU A  12      15.154  14.173 -22.461  0.00  0.00    +0.305 C 
ATOM    192  OE1 GLU A  12      14.053  14.150 -22.989  0.00  0.00    -0.251 OA
BRANCH 191 193
ATOM    193  OE2 GLU A  12      16.280  14.467 -23.143  0.00  0.00    -0.481 OA
ATOM    194  HE2 GLU A  12      17.135  14.410 -22.653  0.00  0.00    +0.295 HD
ENDBRANCH 191 193
ENDBRANCH 190 191
ENDBRANCH 189 190
ENDBRANCH   6 189
ENDBRANCH   3   6
ENDBRANCH   1   2
BRANCH   1 196
ATOM    195  C   LYS A  10      17.521   6.253 -19.471  0.00  0.00    +0.234 C 
ATOM    196  N   ASN A  11      16.907   7.471 -19.705  0.00  0.00    -0.302 N 
ATOM    197  H   ASN A  11      16.905   8.209 -19.003  0.00  0.00    +0.150 HD
ATOM    198  O   LYS A  10      17.434   5.296 -20.247  0.00  0.00    -0.274 OA
BRANCH 195 199
ATOM    199  CA  LYS A  10      18.445   6.178 -18.220  0.00  0.00    +0.159 C 
BRANCH 199 201
ATOM    200  C   GLU A   9      19.354   4.676 -16.856  0.00  0.00    +0.234 C 
ATOM    201  N   LYS A  10      18.642   4.836 -17.999  0.00  0.00    -0.302 N 
ATOM    202  H   LYS A  10      19.088   4.459 -18.830  0.00  0.00    +0.150 HD
ATOM    203  O   GLU A   9      19.407   5.455 -15.922  0.00  0.00    -0.274 OA
BRANCH 200 204
ATOM    204  CA  GLU A   9      20.089   3.417 -16.935  0.00  0.00    +0.159 C 
BRANCH 204 206
ATOM    205  C   GLN A   8      20.688   1.824 -18.802  0.00  0.00    +0.234 C 
ATOM    206  N   GLU A   9      19.903   2.771 -18.238  0.00  0.00    -0.302 N 
ATOM    207  H   GLU A   9      18.966   2.860 -18.583  0.00  0.00    +0.150 HD
ATOM    208  O   GLN A   8      21.855   1.777 -18.439  0.00  0.00    -0.274 OA
BRANCH 205 209
ATOM    209  CA  GLN A   8      20.094   0.896 -19.915  0.00  0.00    +0.159 C 
BRANCH 209 211
ATOM    210  C   GLN A   7      21.019  -1.104 -21.148  0.00  0.00    +0.234 C 
ATOM    211  N   GLN A   8      20.974  -0.276 -20.081  0.00  0.00    -0.302 N 
ATOM    212  H   GLN A   8      21.347  -0.667 -19.232  0.00  0.00    +0.150 HD
ATOM    213  O   GLN A   7      20.556  -0.766 -22.237  0.00  0.00    -0.274 OA
BRANCH 210 214
ATOM    214  CA  GLN A   7      21.926  -2.388 -20.990  0.00  0.00    +0.159 C 
BRANCH 214 216
ATOM    215  C   ASN A   6      23.778  -3.172 -19.319  0.00  0.00    +0.234 C 
ATOM    216  N   GLN A   7      22.482  -3.015 -19.790  0.00  0.00    -0.302 N 
ATOM    217  H   GLN A   7      21.995  -3.898 -19.660  0.00  0.00    +0.150 HD
ATOM    218  O   ASN A   6      24.841  -3.105 -19.932  0.00  0.00    -0.274 OA
BRANCH 215 219
ATOM    219  CA  ASN A   6      23.966  -3.338 -17.821  0.00  0.00    +0.168 C 
BRANCH 219 221
ATOM    220  C   GLN A   5      25.501  -1.982 -15.859  0.00  0.00    +0.234 C 
ATOM    221  N   ASN A   6      25.278  -2.414 -17.195  0.00  0.00    -0.302 N 
ATOM    222  H   ASN A   6      26.058  -2.262 -17.849  0.00  0.00    +0.150 HD
ATOM    223  O   GLN A   5      24.664  -2.316 -15.032  0.00  0.00    -0.274 OA
BRANCH 220 224
ATOM    224  CA  GLN A   5      26.897  -1.229 -15.334  0.00  0.00    +0.159 C 
BRANCH 224 226
ATOM    225  C   SER A   4      26.619   1.181 -14.665  0.00  0.00    +0.236 C 
ATOM    226  N   GLN A   5      26.785  -0.131 -14.335  0.00  0.00    -0.302 N 
ATOM    227  H   GLN A   5      27.484  -0.161 -13.598  0.00  0.00    +0.150 HD
ATOM    228  O   SER A   4      26.929   1.537 -15.796  0.00  0.00    -0.274 OA
BRANCH 225 229
ATOM    229  CA  SER A   4      26.195   2.166 -13.466  0.00  0.00    +0.184 C 
BRANCH 229 231
ATOM    230  C   GLU A   3      24.403   2.192 -11.487  0.00  0.00    +0.234 C 
ATOM    231  N   SER A   4      24.851   1.994 -12.772  0.00  0.00    -0.301 N 
ATOM    232  H   SER A   4      24.153   2.400 -13.368  0.00  0.00    +0.150 HD
ATOM    233  O   GLU A   3      25.193   2.265 -10.545  0.00  0.00    -0.274 OA
BRANCH 230 234
ATOM    234  CA  GLU A   3      22.758   2.174 -11.205  0.00  0.00    +0.159 C 
BRANCH 234 236
ATOM    235  C   GLU A   2      20.672   3.308 -12.191  0.00  0.00    +0.234 C 
ATOM    236  N   GLU A   3      21.707   2.359 -12.264  0.00  0.00    -0.302 N 
ATOM    237  H   GLU A   3      21.392   1.482 -12.656  0.00  0.00    +0.150 HD
ATOM    238  O   GLU A   2      20.718   4.264 -11.424  0.00  0.00    -0.274 OA
BRANCH 235 239
ATOM    239  CA  GLU A   2      19.540   3.169 -13.314  0.00  0.00    +0.159 C 
BRANCH 239 241
ATOM    240  C   TYR A   1      19.667   0.710 -13.873  0.00  0.00    +0.234 C 
ATOM    241  N   GLU A   2      19.748   2.013 -14.200  0.00  0.00    -0.302 N 
ATOM    242  H   GLU A   2      20.229   2.107 -15.071  0.00  0.00    +0.150 HD
ATOM    243  O   TYR A   1      19.672   0.396 -12.690  0.00  0.00    -0.274 OA
BRANCH 240 244
ATOM    244  CA  TYR A   1      19.812  -0.256 -15.084  0.00  0.00    +0.162 C 
BRANCH 244 245
ATOM    245  N   TYR A   1      21.192  -0.033 -15.697  0.00  0.00    -0.302 N 
ATOM    246  H   TYR A   1      21.860  -0.117 -14.965  0.00  0.00    +0.150 HD
ATOM    247  C   TYR A   1      21.597  -0.316 -17.012  0.00  0.00    +0.234 C 
ATOM    248  O   TYR A   1      20.704  -0.816 -17.703  0.00  0.00    -0.274 OA
BRANCH 247 249
ATOM    249  CA  TYR A   1      23.225  -0.259 -17.692  0.00  0.00    +0.159 C 
BRANCH 249 250
ATOM    250  N   TYR A   1      23.800  -0.731 -19.095  0.00  0.00    -0.302 N 
ATOM    251  H   TYR A   1      24.644  -1.257 -18.888  0.00  0.00    +0.150 HD
ATOM    252  C   TYR A   1      23.981  -0.152 -20.382  0.00  0.00    +0.236 C 
ATOM    253  O   TYR A   1      23.676   0.999 -20.608  0.00  0.00    -0.274 OA
BRANCH 252 254
ATOM    254  CA  TYR A   1      24.643  -1.089 -21.656  0.00  0.00    +0.184 C 
BRANCH 254 255
ATOM    255  N   TYR A   1      23.855  -1.065 -22.983  0.00  0.00    -0.301 N 
ATOM    256  H   TYR A   1      22.855  -0.932 -22.906  0.00  0.00    +0.150 HD
ATOM    257  C   TYR A   1      24.194  -1.708 -24.158  0.00  0.00    +0.234 C 
ATOM    258  O   TYR A   1      25.375  -1.975 -24.393  0.00  0.00    -0.274 OA
BRANCH 257 259
ATOM    259  CA  TYR A   1      23.057  -1.884 -25.289  0.00  0.00    +0.165 C 
BRANCH 259 260
ATOM    260  N   TYR A   1      23.861  -2.079 -26.467  0.00  0.00    -0.302 N 
ATOM    261  H   TYR A   1      24.369  -2.956 -26.571  0.00  0.00    +0.150 HD
ATOM    262  C   TYR A   1      24.427  -0.983 -27.069  0.00  0.00    +0.234 C 
ATOM    263  O   TYR A   1      24.075   0.166 -26.825  0.00  0.00    -0.274 OA
BRANCH 262 264
ATOM    264  CA  TYR A   1      25.383  -1.363 -28.192  0.00  0.00    +0.162 C 
BRANCH 264 265
ATOM    265  N   TYR A   1      26.257  -2.427 -27.690  0.00  0.00    -0.302 N 
ATOM    266  H   TYR A   1      26.438  -2.418 -26.692  0.00  0.00    +0.150 HD
ATOM    267  C   TYR A   1      27.203  -3.046 -28.471  0.00  0.00    +0.234 C 
ATOM    268  O   TYR A   1      27.296  -2.820 -29.676  0.00  0.00    -0.274 OA
BRANCH 267 269
ATOM    269  CA  TYR A   1      28.088  -4.123 -27.787  0.00  0.00    +0.159 C 
BRANCH 269 270
ATOM    270  N   TYR A   1      28.164  -3.976 -26.335  0.00  0.00    -0.302 N 
ATOM    271  H   TYR A   1      29.049  -3.639 -25.947  0.00  0.00    +0.150 HD
ATOM    272  C   TYR A   1      27.143  -4.208 -25.443  0.00  0.00    +0.236 C 
ATOM    273  O   TYR A   1      26.065  -4.692 -25.768  0.00  0.00    -0.274 OA
BRANCH 272 274
ATOM    274  CA  TYR A   1      27.475  -3.886 -23.977  0.00  0.00    +0.184 C 
BRANCH 274 275
ATOM    275  N   TYR A   1      28.058  -5.106 -23.443  0.00  0.00    -0.300 N 
ATOM    276  H   TYR A   1      27.636  -5.967 -23.797  0.00  0.00    +0.150 HD
ATOM    277  C   TYR A   1      28.671  -5.202 -22.217  0.00  0.00    +0.237 C 
ATOM    278  O   TYR A   1      28.908  -4.220 -21.521  0.00  0.00    -0.274 OA
BRANCH 277 279
ATOM    279  CA  TYR A   1      29.206  -6.628 -21.903  0.00  0.00    +0.187 C 
BRANCH 279 280
ATOM    280  N   TYR A   1      29.758  -6.759 -20.554  0.00  0.00    -0.300 N 
ATOM    281  H   TYR A   1      29.071  -6.977 -19.853  0.00  0.00    +0.150 HD
ATOM    282  C   TYR A   1      30.936  -6.149 -20.174  0.00  0.00    +0.234 C 
ATOM    283  O   TYR A   1      31.687  -5.628 -20.998  0.00  0.00    -0.274 OA
BRANCH 282 284
ATOM    284  CA  TYR A   1      31.300  -6.082 -18.648  0.00  0.00    +0.163 C 
BRANCH 284 285
ATOM    285  N   TYR A   1      31.691  -4.698 -18.261  0.00  0.00    -0.304 N 
ATOM    286  H   TYR A   1      31.644  -4.006 -19.007  0.00  0.00    +0.149 HD
ATOM    287  C   UNK A   0      32.439  -4.388 -17.129  0.00  0.00    +0.211 C 
ATOM    288  C   UNK A   0      32.704  -2.895 -16.943  0.00  0.00    +0.109 C 
ATOM    289  O   UNK A   0      32.670  -5.208 -16.244  0.00  0.00    -0.276 OA
ENDBRANCH 284 285
BRANCH 284 290
ATOM    290  CB  TYR A   1      30.277  -6.752 -17.722  0.00  0.00    +0.067 C 
BRANCH 290 291
ATOM    291  CG  TYR A   1      28.847  -6.291 -17.711  0.00  0.00    -0.045 A 
ATOM    292  CD2 TYR A   1      27.972  -7.006 -16.876  0.00  0.00    +0.007 A 
ATOM    293  CE2 TYR A   1      26.699  -6.612 -16.685  0.00  0.00    +0.045 A 
ATOM    294  CZ  TYR A   1      26.332  -5.461 -17.283  0.00  0.00    +0.117 A 
ATOM    295  CE1 TYR A   1      27.065  -4.791 -18.278  0.00  0.00    +0.045 A 
ATOM    296  CD1 TYR A   1      28.350  -5.206 -18.470  0.00  0.00    +0.007 A 
BRANCH 294 297
ATOM    297  OH  TYR A   1      25.397  -4.858 -16.476  0.00  0.00    -0.507 OA
ATOM    298  HH  TYR A   1      25.579  -3.866 -16.515  0.00  0.00    +0.292 HD
ENDBRANCH 294 297
ENDBRANCH 290 291
ENDBRANCH 284 290
ENDBRANCH 282 284
ENDBRANCH 279 280
BRANCH 279 299
ATOM    299  CB  TYR A   1      28.142  -7.726 -22.178  0.00  0.00    +0.141 C 
ATOM    300  CG2 TYR A   1      26.859  -7.651 -21.345  0.00  0.00    +0.040 C 
BRANCH 299 301
ATOM    301  OG1 TYR A   1      27.760  -7.716 -23.561  0.00  0.00    -0.390 OA
ATOM    302  HG1 TYR A   1      28.555  -7.922 -24.089  0.00  0.00    +0.210 HD
ENDBRANCH 299 301
ENDBRANCH 279 299
ENDBRANCH 277 279
ENDBRANCH 274 275
BRANCH 274 303
ATOM    303  CB  TYR A   1      28.351  -2.622 -23.905  0.00  0.00    +0.187 C 
BRANCH 303 304
ATOM    304  O   TYR A   1      29.671  -2.898 -24.398  0.00  0.00    -0.393 OA
ATOM    305  H   TYR A   1      30.101  -3.388 -23.669  0.00  0.00    +0.209 HD
ENDBRANCH 303 304
ENDBRANCH 274 303
ENDBRANCH 272 274
ENDBRANCH 269 270
BRANCH 269 306
ATOM    306  CB  TYR A   1      27.773  -5.571 -28.200  0.00  0.00    +0.034 C 
BRANCH 306 307
ATOM    307  CG  TYR A   1      27.622  -5.822 -29.712  0.00  0.00    -0.015 C 
ATOM    308  CD2 TYR A   1      27.211  -7.274 -29.960  0.00  0.00    +0.007 C 
ATOM    309  CD1 TYR A   1      28.882  -5.490 -30.513  0.00  0.00    +0.007 C 
ENDBRANCH 306 307
ENDBRANCH 269 306
ENDBRANCH 267 269
ENDBRANCH 264 265
BRANCH 264 310
ATOM    310  CB  TYR A   1      24.553  -1.752 -29.442  0.00  0.00    +0.015 C 
ATOM    311  CG2 TYR A   1      23.828  -3.106 -29.323  0.00  0.00    +0.010 C 
BRANCH 310 312
ATOM    312  CG1 TYR A   1      23.596  -0.600 -29.812  0.00  0.00    +0.002 C 
ATOM    313  CD1 TYR A   1      22.832  -0.856 -31.095  0.00  0.00    +0.004 C 
ENDBRANCH 310 312
ENDBRANCH 264 310
ENDBRANCH 262 264
ENDBRANCH 259 260
BRANCH 259 314
ATOM    314  CB  TYR A   1      21.780  -2.762 -25.451  0.00  0.00    +0.086 C 
BRANCH 314 315
ATOM    315  CG  TYR A   1      21.836  -4.256 -25.663  0.00  0.00    +0.038 A 
ATOM    316  ND1 TYR A   1      20.696  -5.049 -25.628  0.00  0.00    -0.348 N 
ATOM    317  HD1 TYR A   1      19.758  -4.756 -25.391  0.00  0.00    +0.166 HD
ATOM    318  CE1 TYR A   1      21.080  -6.360 -25.733  0.00  0.00    +0.196 A 
ATOM    319  NE2 TYR A   1      22.362  -6.456 -25.985  0.00  0.00    -0.244 NA
ATOM    320  CD2 TYR A   1      22.832  -5.164 -25.957  0.00  0.00    +0.133 A 
ENDBRANCH 314 315
ENDBRANCH 259 314
ENDBRANCH 257 259
ENDBRANCH 254 255
BRANCH 254 321
ATOM    321  CB  TYR A   1      26.158  -0.948 -21.712  0.00  0.00    +0.187 C 
BRANCH 321 322
ATOM    322  O   TYR A   1      26.822  -1.046 -20.449  0.00  0.00    -0.393 OA
ATOM    323  H   TYR A   1      26.369  -0.502 -19.790  0.00  0.00    +0.209 HD
ENDBRANCH 321 322
ENDBRANCH 254 321
ENDBRANCH 252 254
ENDBRANCH 249 250
BRANCH 249 324
ATOM    324  CB  TYR A   1      24.210   0.798 -17.366  0.00  0.00    +0.034 C 
BRANCH 324 325
ATOM    325  CG  TYR A   1      23.975   1.439 -16.053  0.00  0.00    -0.015 C 
ATOM    326  CD2 TYR A   1      24.609   2.825 -16.337  0.00  0.00    +0.007 C 
ATOM    327  CD1 TYR A   1      23.908   0.475 -14.831  0.00  0.00    +0.007 C 
ENDBRANCH 324 325
ENDBRANCH 249 324
ENDBRANCH 247 249
ENDBRANCH 244 245
BRANCH 244 328
ATOM    328  CB  TYR A   1      19.547  -1.659 -14.461  0.00  0.00    +0.015 C 
ATOM    329  CG2 TYR A   1      18.108  -1.763 -13.939  0.00  0.00    +0.010 C 
BRANCH 328 331
ATOM    330  CD1 TYR A   1      19.748  -4.184 -15.013  0.00  0.00    +0.004 C 
ATOM    331  CG1 TYR A   1      19.758  -2.743 -15.476  0.00  0.00    +0.002 C 
ENDBRANCH 328 331
ENDBRANCH 244 328
ENDBRANCH 240 244
ENDBRANCH 239 241
BRANCH 239 332
ATOM    332  CB  GLU A   2      18.077   3.520 -13.077  0.00  0.00    +0.043 C 
BRANCH 332 333
ATOM    333  CG  GLU A   2      17.880   4.840 -12.322  0.00  0.00    +0.123 C 
BRANCH 333 334
ATOM    334  CD  GLU A   2      18.137   6.146 -13.064  0.00  0.00    +0.305 C 
ATOM    335  OE1 GLU A   2      17.730   6.400 -14.186  0.00  0.00    -0.251 OA
BRANCH 334 336
ATOM    336  OE2 GLU A   2      18.704   7.094 -12.281  0.00  0.00    -0.481 OA
ATOM    337  HE2 GLU A   2      19.033   6.764 -11.423  0.00  0.00    +0.295 HD
ENDBRANCH 334 336
ENDBRANCH 333 334
ENDBRANCH 332 333
ENDBRANCH 239 332
ENDBRANCH 235 239
ENDBRANCH 234 236
BRANCH 234 338
ATOM    338  CB  GLU A   3      22.342   0.852 -10.519  0.00  0.00    +0.043 C 
BRANCH 338 339
ATOM    339  CG  GLU A   3      23.191   0.535  -9.308  0.00  0.00    +0.123 C 
BRANCH 339 340
ATOM    340  CD  GLU A   3      22.788  -0.720  -8.588  0.00  0.00    +0.305 C 
ATOM    341  OE1 GLU A   3      21.878  -1.466  -8.904  0.00  0.00    -0.251 OA
BRANCH 340 342
ATOM    342  OE2 GLU A   3      23.606  -0.948  -7.533  0.00  0.00    -0.481 OA
ATOM    343  HE2 GLU A   3      24.304  -0.267  -7.443  0.00  0.00    +0.295 HD
ENDBRANCH 340 342
ENDBRANCH 339 340
ENDBRANCH 338 339
ENDBRANCH 234 338
ENDBRANCH 230 234
ENDBRANCH 229 231
BRANCH 229 344
ATOM    344  CB  SER A   4      27.362   2.139 -12.513  0.00  0.00    +0.187 C 
BRANCH 344 345
ATOM    345  OG  SER A   4      28.618   2.117 -13.194  0.00  0.00    -0.393 OA
ATOM    346  H   SER A   4      28.514   2.450 -14.109  0.00  0.00    +0.209 HD
ENDBRANCH 344 345
ENDBRANCH 229 344
ENDBRANCH 225 229
ENDBRANCH 224 226
BRANCH 224 347
ATOM    347  CB  GLN A   5      27.631  -2.247 -14.444  0.00  0.00    +0.041 C 
BRANCH 347 348
ATOM    348  CG  GLN A   5      27.950  -3.502 -15.148  0.00  0.00    +0.098 C 
BRANCH 348 349
ATOM    349  CD  GLN A   5      28.792  -3.161 -16.333  0.00  0.00    +0.211 C 
ATOM    350  NE2 GLN A   5      30.020  -3.688 -16.186  0.00  0.00    -0.329 N 
ATOM    351 HE21 GLN A   5      30.431  -3.799 -17.091  0.00  0.00    +0.145 HD
ATOM    352 HE22 GLN A   5      30.269  -4.371 -15.466  0.00  0.00    +0.145 HD
ATOM    353  OE1 GLN A   5      28.490  -2.504 -17.289  0.00  0.00    -0.276 OA
ENDBRANCH 348 349
ENDBRANCH 347 348
ENDBRANCH 224 347
ENDBRANCH 220 224
ENDBRANCH 219 221
BRANCH 219 354
ATOM    354  CB  ASN A   6      22.718  -3.445 -16.968  0.00  0.00    +0.127 C 
BRANCH 354 355
ATOM    355  CG  ASN A   6      21.581  -4.127 -17.716  0.00  0.00    +0.213 C 
ATOM    356  ND2 ASN A   6      20.522  -3.343 -18.084  0.00  0.00    -0.329 N 
ATOM    357 HD21 ASN A   6      19.763  -3.686 -18.654  0.00  0.00    +0.145 HD
ATOM    358 HD22 ASN A   6      20.489  -2.338 -17.890  0.00  0.00    +0.145 HD
ATOM    359  OD1 ASN A   6      21.693  -5.232 -18.240  0.00  0.00    -0.276 OA
ENDBRANCH 354 355
ENDBRANCH 219 354
ENDBRANCH 215 219
ENDBRANCH 214 216
BRANCH 214 360
ATOM    360  CB  GLN A   7      21.544  -3.422 -22.010  0.00  0.00    +0.041 C 
BRANCH 360 361
ATOM    361  CG  GLN A   7      22.655  -4.429 -22.277  0.00  0.00    +0.098 C 
BRANCH 361 362
ATOM    362  CD  GLN A   7      22.078  -5.700 -22.808  0.00  0.00    +0.211 C 
ATOM    363  NE2 GLN A   7      23.032  -6.569 -23.252  0.00  0.00    -0.329 N 
ATOM    364 HE21 GLN A   7      22.655  -7.251 -23.907  0.00  0.00    +0.145 HD
ATOM    365 HE22 GLN A   7      23.890  -6.172 -23.619  0.00  0.00    +0.145 HD
ATOM    366  OE1 GLN A   7      20.878  -5.945 -22.836  0.00  0.00    -0.276 OA
ENDBRANCH 361 362
ENDBRANCH 360 361
ENDBRANCH 214 360
ENDBRANCH 210 214
ENDBRANCH 209 211
BRANCH 209 367
ATOM    367  CB  GLN A   8      18.689   0.312 -19.665  0.00  0.00    +0.041 C 
BRANCH 367 368
ATOM    368  CG  GLN A   8      17.621   1.301 -19.254  0.00  0.00    +0.098 C 
BRANCH 368 369
ATOM    369  CD  GLN A   8      16.243   0.735 -19.232  0.00  0.00    +0.211 C 
ATOM    370  NE2 GLN A   8      15.818   0.187 -20.399  0.00  0.00    -0.329 N 
ATOM    371 HE21 GLN A   8      14.859  -0.133 -20.401  0.00  0.00    +0.145 HD
ATOM    372 HE22 GLN A   8      16.284   0.327 -21.274  0.00  0.00    +0.145 HD
ATOM    373  OE1 GLN A   8      15.531   0.782 -18.238  0.00  0.00    -0.276 OA
ENDBRANCH 368 369
ENDBRANCH 367 368
ENDBRANCH 209 367
ENDBRANCH 205 209
ENDBRANCH 204 206
BRANCH 204 374
ATOM    374  CB  GLU A   9      21.512   3.655 -16.463  0.00  0.00    +0.043 C 
BRANCH 374 375
ATOM    375  CG  GLU A   9      21.781   4.496 -15.228  0.00  0.00    +0.123 C 
BRANCH 375 376
ATOM    376  CD  GLU A   9      23.007   4.391 -14.414  0.00  0.00    +0.305 C 
ATOM    377  OE1 GLU A   9      23.732   5.274 -14.007  0.00  0.00    -0.251 OA
BRANCH 376 378
ATOM    378  OE2 GLU A   9      23.169   3.112 -14.048  0.00  0.00    -0.481 OA
ATOM    379  HE2 GLU A   9      22.414   2.533 -14.270  0.00  0.00    +0.295 HD
ENDBRANCH 376 378
ENDBRANCH 375 376
ENDBRANCH 374 375
ENDBRANCH 204 374
ENDBRANCH 200 204
ENDBRANCH 199 201
BRANCH 199 380
ATOM    380  CB  LYS A  10      19.902   6.707 -18.417  0.00  0.00    +0.032 C 
BRANCH 380 381
ATOM    381  CG  LYS A  10      19.521   8.076 -18.360  0.00  0.00    +0.003 C 
BRANCH 381 382
ATOM    382  CD  LYS A  10      20.242   9.028 -19.125  0.00  0.00    +0.015 C 
BRANCH 382 383
ATOM    383  CE  LYS A  10      19.028   9.887 -19.569  0.00  0.00    +0.077 C 
BRANCH 383 384
ATOM    384  NZ  LYS A  10      18.085  10.354 -18.498  0.00  0.00    -0.330 NA
ATOM    385  HZ1 LYS A  10      18.446  11.174 -18.014  0.00  0.00    +0.118 HD
ATOM    386  HZ2 LYS A  10      18.045   9.738 -17.689  0.00  0.00    +0.118 HD
ENDBRANCH 383 384
ENDBRANCH 382 383
ENDBRANCH 381 382
ENDBRANCH 380 381
ENDBRANCH 199 380
ENDBRANCH 195 199
ENDBRANCH   1 196
BRANCH   1 387
ATOM    387  CB  ASN A  11      14.888   6.966 -20.765  0.00  0.00    +0.127 C 
BRANCH 387 388
ATOM    388  CG  ASN A  11      13.998   7.109 -21.951  0.00  0.00    +0.213 C 
ATOM    389  ND2 ASN A  11      12.679   7.189 -21.608  0.00  0.00    -0.329 N 
ATOM    390 HD21 ASN A  11      12.045   7.414 -22.362  0.00  0.00    +0.145 HD
ATOM    391 HD22 ASN A  11      12.442   7.545 -20.691  0.00  0.00    +0.145 HD
ATOM    392  OD1 ASN A  11      14.393   7.110 -23.106  0.00  0.00    -0.276 OA
ENDBRANCH 387 388
ENDBRANCH   1 387
TORSDOF 166
