REMARK  Name = 
REMARK  185 active torsions:
REMARK  status: ('A' for Active; 'I' for Inactive)
REMARK    1  A    between atoms: CD1_1  and  CG1_2
REMARK    2  A    between atoms: CG1_2  and  CB_3
REMARK    3  A    between atoms: CB_3  and  CG2_5
REMARK    4  A    between atoms: CB_3  and  CA_6
REMARK    5  A    between atoms: CA_6  and  C_8
REMARK    6  A    between atoms: CA_6  and  N_280
REMARK    7  A    between atoms: N_10  and  CA_11
REMARK    8  A    between atoms: CA_11  and  CB_13
REMARK    9  A    between atoms: CA_11  and  C_18
REMARK   10  A    between atoms: CB_13  and  CG_14
REMARK   11  A    between atoms: CG_14  and  CD_15
REMARK   12  A    between atoms: CD_15  and  OE2_17
REMARK   13  A    between atoms: N_20  and  CA_21
REMARK   14  A    between atoms: CA_21  and  CB_23
REMARK   15  A    between atoms: CA_21  and  C_28
REMARK   16  A    between atoms: CB_23  and  CG_24
REMARK   17  A    between atoms: CG_24  and  CD_25
REMARK   18  A    between atoms: CD_25  and  OE2_27
REMARK   19  A    between atoms: N_30  and  CA_31
REMARK   20  A    between atoms: CA_31  and  CB_33
REMARK   21  A    between atoms: CA_31  and  C_35
REMARK   22  A    between atoms: CB_33  and  OG_34
REMARK   23  A    between atoms: N_37  and  CA_38
REMARK   24  A    between atoms: CA_38  and  CB_40
REMARK   25  A    between atoms: CA_38  and  C_45
REMARK   26  A    between atoms: CB_40  and  CG_41
REMARK   27  A    between atoms: CG_41  and  CD_42
REMARK   28  A    between atoms: N_47  and  CA_48
REMARK   29  A    between atoms: CA_48  and  CB_50
REMARK   30  A    between atoms: CA_48  and  C_54
REMARK   31  A    between atoms: CB_50  and  CG_51
REMARK   32  A    between atoms: N_56  and  CA_57
REMARK   33  A    between atoms: CA_57  and  CB_59
REMARK   34  A    between atoms: CA_57  and  C_64
REMARK   35  A    between atoms: CB_59  and  CG_60
REMARK   36  A    between atoms: CG_60  and  CD_61
REMARK   37  A    between atoms: N_66  and  CA_67
REMARK   38  A    between atoms: CA_67  and  CB_69
REMARK   39  A    between atoms: CA_67  and  C_74
REMARK   40  A    between atoms: CB_69  and  CG_70
REMARK   41  A    between atoms: CG_70  and  CD_71
REMARK   42  A    between atoms: N_76  and  CA_77
REMARK   43  A    between atoms: CA_77  and  CB_79
REMARK   44  A    between atoms: CA_77  and  C_84
REMARK   45  A    between atoms: CB_79  and  CG_80
REMARK   46  A    between atoms: CG_80  and  CD_81
REMARK   47  A    between atoms: CD_81  and  OE2_83
REMARK   48  A    between atoms: N_86  and  CA_87
REMARK   49  A    between atoms: CA_87  and  CB_89
REMARK   50  A    between atoms: CA_87  and  C_94
REMARK   51  A    between atoms: CB_89  and  CG_90
REMARK   52  A    between atoms: CG_90  and  CD_91
REMARK   53  A    between atoms: CD_91  and  CE_92
REMARK   54  A    between atoms: CE_92  and  NZ_93
REMARK   55  A    between atoms: N_96  and  CA_97
REMARK   56  A    between atoms: CA_97  and  CB_99
REMARK   57  A    between atoms: CA_97  and  C_103
REMARK   58  A    between atoms: CB_99  and  CG_100
REMARK   59  A    between atoms: N_105  and  CA_106
REMARK   60  A    between atoms: CA_106  and  CB_108
REMARK   61  A    between atoms: CA_106  and  C_113
REMARK   62  A    between atoms: CB_108  and  CG_109
REMARK   63  A    between atoms: CG_109  and  CD_110
REMARK   64  A    between atoms: CD_110  and  OE2_112
REMARK   65  A    between atoms: N_115  and  CA_116
REMARK   66  A    between atoms: CA_116  and  CB_118
REMARK   67  A    between atoms: CA_116  and  C_123
REMARK   68  A    between atoms: CB_118  and  CG_119
REMARK   69  A    between atoms: CG_119  and  CD_120
REMARK   70  A    between atoms: N_125  and  CA_126
REMARK   71  A    between atoms: CA_126  and  CB_128
REMARK   72  A    between atoms: CA_126  and  C_133
REMARK   73  A    between atoms: CB_128  and  CG_129
REMARK   74  A    between atoms: CG_129  and  CD_130
REMARK   75  A    between atoms: CD_130  and  OE2_132
REMARK   76  A    between atoms: N_135  and  CA_136
REMARK   77  A    between atoms: CA_136  and  CB_138
REMARK   78  A    between atoms: CA_136  and  C_142
REMARK   79  A    between atoms: CB_138  and  CG_139
REMARK   80  A    between atoms: CG_139  and  CD1_140
REMARK   81  A    between atoms: CG_139  and  CD2_141
REMARK   82  A    between atoms: N_144  and  CA_145
REMARK   83  A    between atoms: CA_145  and  CB_147
REMARK   84  A    between atoms: CA_145  and  C_151
REMARK   85  A    between atoms: CB_147  and  CG_148
REMARK   86  A    between atoms: CG_148  and  CD1_149
REMARK   87  A    between atoms: CG_148  and  CD2_150
REMARK   88  A    between atoms: N_153  and  CA_154
REMARK   89  A    between atoms: CA_154  and  CB_156
REMARK   90  A    between atoms: CA_154  and  C_161
REMARK   91  A    between atoms: CB_156  and  CG_157
REMARK   92  A    between atoms: CG_157  and  CD_158
REMARK   93  A    between atoms: CD_158  and  OE2_160
REMARK   94  A    between atoms: N_163  and  CA_164
REMARK   95  A    between atoms: CA_164  and  CB_166
REMARK   96  A    between atoms: CA_164  and  C_170
REMARK   97  A    between atoms: CB_166  and  CG_167
REMARK   98  A    between atoms: CG_167  and  CD1_168
REMARK   99  A    between atoms: CG_167  and  CD2_169
REMARK  100  A    between atoms: N_172  and  CA_173
REMARK  101  A    between atoms: CA_173  and  CB_175
REMARK  102  A    between atoms: CA_173  and  C_179
REMARK  103  A    between atoms: CB_175  and  CG_176
REMARK  104  A    between atoms: CG_176  and  OD2_178
REMARK  105  A    between atoms: N_181  and  CA_182
REMARK  106  A    between atoms: CA_182  and  CB_184
REMARK  107  A    between atoms: CA_182  and  C_189
REMARK  108  A    between atoms: CB_184  and  CG_185
REMARK  109  A    between atoms: CG_185  and  CD_186
REMARK  110  A    between atoms: CD_186  and  CE_187
REMARK  111  A    between atoms: CE_187  and  NZ_188
REMARK  112  A    between atoms: N_191  and  CA_192
REMARK  113  A    between atoms: CA_192  and  CB_194
REMARK  114  A    between atoms: CA_192  and  C_204
REMARK  115  A    between atoms: CB_194  and  CG_195
REMARK  116  A    between atoms: N_206  and  CA_207
REMARK  117  A    between atoms: CA_207  and  CB_209
REMARK  118  A    between atoms: CA_207  and  C_210
REMARK  119  A    between atoms: N_212  and  C_213
REMARK  120  A    between atoms: C_213  and  C_215
REMARK  121  A    between atoms: C_213  and  C_217
REMARK  122  A    between atoms: C_215  and  O_216
REMARK  123  A    between atoms: N_219  and  C_220
REMARK  124  A    between atoms: C_220  and  C_222
REMARK  125  A    between atoms: C_220  and  C_226
REMARK  126  A    between atoms: C_222  and  C_223
REMARK  127  A    between atoms: C_223  and  C_224
REMARK  128  A    between atoms: C_223  and  C_225
REMARK  129  A    between atoms: N_228  and  C_229
REMARK  130  A    between atoms: C_229  and  C_231
REMARK  131  A    between atoms: C_229  and  C_241
REMARK  132  A    between atoms: C_231  and  C_232
REMARK  133  A    between atoms: N_243  and  C_244
REMARK  134  A    between atoms: C_244  and  C_246
REMARK  135  A    between atoms: C_244  and  C_250
REMARK  136  A    between atoms: C_246  and  C_247
REMARK  137  A    between atoms: N_252  and  C_253
REMARK  138  A    between atoms: C_253  and  C_255
REMARK  139  A    between atoms: C_253  and  C_265
REMARK  140  A    between atoms: C_255  and  C_256
REMARK  141  A    between atoms: N_267  and  C_268
REMARK  142  A    between atoms: C_268  and  C_270
REMARK  143  A    between atoms: C_268  and  C_277
REMARK  144  A    between atoms: C_270  and  C_271
REMARK  145  A    between atoms: C_281  and  CA_283
REMARK  146  A    between atoms: CA_283  and  CB_285
REMARK  147  A    between atoms: CA_283  and  N_289
REMARK  148  A    between atoms: CB_285  and  CG_286
REMARK  149  A    between atoms: CG_286  and  CD1_287
REMARK  150  A    between atoms: CG_286  and  CD2_288
REMARK  151  A    between atoms: C_290  and  CA_292
REMARK  152  A    between atoms: CA_292  and  CB_294
REMARK  153  A    between atoms: CA_292  and  N_296
REMARK  154  A    between atoms: CB_294  and  O_295
REMARK  155  A    between atoms: C_297  and  CA_299
REMARK  156  A    between atoms: CA_299  and  CB_301
REMARK  157  A    between atoms: CA_299  and  N_307
REMARK  158  A    between atoms: CB_301  and  CG_302
REMARK  159  A    between atoms: C_308  and  CA_310
REMARK  160  A    between atoms: CA_310  and  CB_312
REMARK  161  A    between atoms: CA_310  and  N_317
REMARK  162  A    between atoms: CB_312  and  CG2_314
REMARK  163  A    between atoms: CB_312  and  CG1_315
REMARK  164  A    between atoms: CG1_315  and  CD1_316
REMARK  165  A    between atoms: C_318  and  CA_320
REMARK  166  A    between atoms: CA_320  and  CB_322
REMARK  167  A    between atoms: CA_320  and  N_326
REMARK  168  A    between atoms: CB_322  and  CG_323
REMARK  169  A    between atoms: CG_323  and  CD1_324
REMARK  170  A    between atoms: CG_323  and  CD2_325
REMARK  171  A    between atoms: C_327  and  CA_329
REMARK  172  A    between atoms: CA_329  and  CB_331
REMARK  173  A    between atoms: CA_329  and  N_333
REMARK  174  A    between atoms: CB_331  and  O_332
REMARK  175  A    between atoms: C_334  and  CA_336
REMARK  176  A    between atoms: CA_336  and  CB_338
REMARK  177  A    between atoms: CA_336  and  N_342
REMARK  178  A    between atoms: CB_338  and  CG2_340
REMARK  179  A    between atoms: CB_338  and  OG1_341
REMARK  180  A    between atoms: C_343  and  CA_345
REMARK  181  A    between atoms: CA_345  and  CB_347
REMARK  182  A    between atoms: CA_345  and  N_355
REMARK  183  A    between atoms: CB_347  and  CG_348
REMARK  184  A    between atoms: CZ_351  and  OH_354
REMARK  185  A    between atoms: C_356  and  C_358
REMARK                            x       y       z     vdW  Elec       q    Type
REMARK                         _______ _______ _______ _____ _____    ______ ____
ROOT
ATOM      1  CA  ASN A  11     -10.288 -23.208   5.435  0.00  0.00    +0.168 C 
ENDROOT
BRANCH   1   3
ATOM      2  C   LYS A  10      -8.647 -21.282   5.300  0.00  0.00    +0.234 C 
ATOM      3  N   ASN A  11      -9.605 -22.027   5.950  0.00  0.00    -0.302 N 
ATOM      4  H   ASN A  11      -9.656 -21.942   6.962  0.00  0.00    +0.150 HD
ATOM      5  O   LYS A  10      -8.204 -21.529   4.185  0.00  0.00    -0.274 OA
BRANCH   2   6
ATOM      6  CA  LYS A  10      -8.220 -20.035   6.117  0.00  0.00    +0.159 C 
BRANCH   6   8
ATOM      7  C   GLU A   9      -6.586 -18.261   6.032  0.00  0.00    +0.234 C 
ATOM      8  N   LYS A  10      -7.234 -19.311   5.404  0.00  0.00    -0.302 N 
ATOM      9  H   LYS A  10      -7.490 -19.162   4.446  0.00  0.00    +0.150 HD
ATOM     10  O   GLU A   9      -6.656 -17.960   7.178  0.00  0.00    -0.274 OA
BRANCH   7  11
ATOM     11  CA  GLU A   9      -5.609 -17.646   5.075  0.00  0.00    +0.159 C 
BRANCH  11  13
ATOM     12  C   GLN A   8      -5.794 -18.194   1.784  0.00  0.00    +0.234 C 
ATOM     13  N   GLU A   9      -6.097 -18.449   3.360  0.00  0.00    -0.302 N 
ATOM     14  H   GLU A   9      -6.263 -19.452   3.453  0.00  0.00    +0.150 HD
ATOM     15  O   GLN A   8      -5.330 -17.081   1.420  0.00  0.00    -0.274 OA
BRANCH  12  16
ATOM     16  CA  GLN A   8      -6.144 -19.027   0.456  0.00  0.00    +0.159 C 
BRANCH  16  18
ATOM     17  C   GLN A   7      -6.227 -17.927  -1.968  0.00  0.00    +0.234 C 
ATOM     18  N   GLN A   8      -5.682 -18.065  -0.711  0.00  0.00    -0.302 N 
ATOM     19  H   GLN A   8      -4.891 -17.449  -0.529  0.00  0.00    +0.150 HD
ATOM     20  O   GLN A   7      -7.145 -18.671  -2.311  0.00  0.00    -0.274 OA
BRANCH  17  21
ATOM     21  CA  GLN A   7      -5.649 -16.783  -2.955  0.00  0.00    +0.159 C 
BRANCH  21  23
ATOM     22  C   ASN A   6      -4.471 -14.756  -1.962  0.00  0.00    +0.234 C 
ATOM     23  N   GLN A   7      -4.446 -16.011  -2.548  0.00  0.00    -0.302 N 
ATOM     24  H   GLN A   7      -3.539 -16.369  -2.818  0.00  0.00    +0.150 HD
ATOM     25  O   ASN A   6      -5.526 -14.187  -1.685  0.00  0.00    -0.274 OA
BRANCH  22  26
ATOM     26  CA  ASN A   6      -3.082 -14.052  -1.755  0.00  0.00    +0.168 C 
BRANCH  26  28
ATOM     27  C   GLN A   5      -0.725 -14.660  -1.166  0.00  0.00    +0.234 C 
ATOM     28  N   ASN A   6      -1.995 -15.052  -1.559  0.00  0.00    -0.302 N 
ATOM     29  H   ASN A   6      -2.304 -15.937  -1.153  0.00  0.00    +0.150 HD
ATOM     30  O   GLN A   5      -0.394 -13.472  -1.116  0.00  0.00    -0.274 OA
BRANCH  27  31
ATOM     31  CA  GLN A   5       0.355 -15.770  -0.977  0.00  0.00    +0.159 C 
BRANCH  31  33
ATOM     32  C   SER A   4      -0.643 -16.956   0.854  0.00  0.00    +0.236 C 
ATOM     33  N   GLN A   5      -0.159 -16.964  -0.402  0.00  0.00    -0.302 N 
ATOM     34  H   GLN A   5      -0.155 -17.814  -0.954  0.00  0.00    +0.150 HD
ATOM     35  O   SER A   4      -0.599 -15.990   1.610  0.00  0.00    -0.274 OA
BRANCH  32  36
ATOM     36  CA  SER A   4      -1.407 -18.222   1.098  0.00  0.00    +0.184 C 
BRANCH  36  38
ATOM     37  C   GLU A   3      -3.234 -18.402   2.551  0.00  0.00    +0.234 C 
ATOM     38  N   SER A   4      -2.036 -17.874   2.323  0.00  0.00    -0.301 N 
ATOM     39  H   SER A   4      -1.475 -17.523   3.104  0.00  0.00    +0.150 HD
ATOM     40  O   GLU A   3      -3.591 -19.420   1.976  0.00  0.00    -0.274 OA
BRANCH  37  41
ATOM     41  CA  GLU A   3      -4.004 -17.771   3.652  0.00  0.00    +0.159 C 
BRANCH  41  43
ATOM     42  C   GLU A   2      -6.585 -15.676   4.357  0.00  0.00    +0.234 C 
ATOM     43  N   GLU A   3      -5.405 -16.397   3.460  0.00  0.00    -0.302 N 
ATOM     44  H   GLU A   3      -5.958 -16.593   2.651  0.00  0.00    +0.150 HD
ATOM     45  O   GLU A   2      -6.503 -15.456   5.591  0.00  0.00    -0.274 OA
BRANCH  42  46
ATOM     46  CA  GLU A   2      -8.070 -15.397   4.005  0.00  0.00    +0.159 C 
BRANCH  46  48
ATOM     47  C   TYR A   1      -9.411 -13.865   5.588  0.00  0.00    +0.234 C 
ATOM     48  N   GLU A   2      -8.343 -14.103   4.731  0.00  0.00    -0.302 N 
ATOM     49  H   GLU A   2      -7.501 -13.624   5.038  0.00  0.00    +0.150 HD
ATOM     50  O   TYR A   1     -10.346 -14.652   5.729  0.00  0.00    -0.274 OA
BRANCH  47  51
ATOM     51  CA  TYR A   1      -9.338 -12.466   6.334  0.00  0.00    +0.162 C 
BRANCH  51  52
ATOM     52  N   TYR A   1     -10.645 -11.827   6.167  0.00  0.00    -0.302 N 
ATOM     53  H   TYR A   1     -11.213 -11.602   6.973  0.00  0.00    +0.150 HD
ATOM     54  C   TYR A   1     -11.151 -11.531   4.925  0.00  0.00    +0.234 C 
ATOM     55  O   TYR A   1     -10.560 -11.817   3.885  0.00  0.00    -0.274 OA
BRANCH  54  56
ATOM     56  CA  TYR A   1     -12.571 -10.928   4.937  0.00  0.00    +0.159 C 
BRANCH  56  57
ATOM     57  N   TYR A   1     -12.959 -10.279   6.204  0.00  0.00    -0.302 N 
ATOM     58  H   TYR A   1     -12.430  -9.462   6.478  0.00  0.00    +0.150 HD
ATOM     59  C   TYR A   1     -13.968 -10.765   7.016  0.00  0.00    +0.236 C 
ATOM     60  O   TYR A   1     -14.536 -11.836   6.795  0.00  0.00    -0.274 OA
BRANCH  59  61
ATOM     61  CA  TYR A   1     -14.433  -9.843   8.177  0.00  0.00    +0.184 C 
BRANCH  61  62
ATOM     62  N   TYR A   1     -15.511 -10.523   8.919  0.00  0.00    -0.301 N 
ATOM     63  H   TYR A   1     -15.634 -11.510   8.707  0.00  0.00    +0.150 HD
ATOM     64  C   TYR A   1     -16.358  -9.865   9.794  0.00  0.00    +0.234 C 
ATOM     65  O   TYR A   1     -16.244  -8.661  10.015  0.00  0.00    -0.274 OA
BRANCH  64  66
ATOM     66  CA  TYR A   1     -17.427 -10.768  10.468  0.00  0.00    +0.165 C 
BRANCH  66  67
ATOM     67  N   TYR A   1     -18.172 -10.099  11.545  0.00  0.00    -0.302 N 
ATOM     68  H   TYR A   1     -19.049  -9.661  11.267  0.00  0.00    +0.150 HD
ATOM     69  C   TYR A   1     -17.707  -9.956  12.826  0.00  0.00    +0.234 C 
ATOM     70  O   TYR A   1     -16.612 -10.411  13.166  0.00  0.00    -0.274 OA
BRANCH  69  71
ATOM     71  CA  TYR A   1     -18.723  -9.359  13.854  0.00  0.00    +0.162 C 
BRANCH  71  72
ATOM     72  N   TYR A   1     -19.654  -8.383  13.215  0.00  0.00    -0.302 N 
ATOM     73  H   TYR A   1     -19.311  -7.944  12.367  0.00  0.00    +0.150 HD
ATOM     74  C   TYR A   1     -20.767  -7.828  13.824  0.00  0.00    +0.234 C 
ATOM     75  O   TYR A   1     -21.228  -8.226  14.908  0.00  0.00    -0.274 OA
BRANCH  74  76
ATOM     76  CA  TYR A   1     -21.418  -6.641  13.118  0.00  0.00    +0.159 C 
BRANCH  76  77
ATOM     77  N   TYR A   1     -22.709  -6.329  13.776  0.00  0.00    -0.302 N 
ATOM     78  H   TYR A   1     -22.823  -6.676  14.724  0.00  0.00    +0.150 HD
ATOM     79  C   TYR A   1     -23.592  -5.412  13.244  0.00  0.00    +0.236 C 
ATOM     80  O   TYR A   1     -23.368  -4.808  12.195  0.00  0.00    -0.274 OA
BRANCH  79  81
ATOM     81  CA  TYR A   1     -24.834  -5.063  14.073  0.00  0.00    +0.184 C 
BRANCH  81  82
ATOM     82  N   TYR A   1     -25.382  -6.219  14.716  0.00  0.00    -0.300 N 
ATOM     83  H   TYR A   1     -25.021  -6.493  15.626  0.00  0.00    +0.150 HD
ATOM     84  C   TYR A   1     -26.103  -7.151  14.035  0.00  0.00    +0.237 C 
ATOM     85  O   TYR A   1     -26.436  -7.060  12.863  0.00  0.00    -0.274 OA
BRANCH  84  86
ATOM     86  CA  TYR A   1     -26.548  -8.238  14.983  0.00  0.00    +0.187 C 
BRANCH  86  87
ATOM     87  N   TYR A   1     -25.168  -8.497  15.908  0.00  0.00    -0.300 N 
ATOM     88  H   TYR A   1     -24.429  -8.842  15.291  0.00  0.00    +0.150 HD
ATOM     89  C   TYR A   1     -24.746  -8.227  17.216  0.00  0.00    +0.234 C 
ATOM     90  O   TYR A   1     -25.261  -7.221  17.725  0.00  0.00    -0.274 OA
BRANCH  89  91
ATOM     91  CA  TYR A   1     -23.640  -9.219  18.205  0.00  0.00    +0.163 C 
BRANCH  91  92
ATOM     92  N   TYR A   1     -23.740  -8.565  19.523  0.00  0.00    -0.304 N 
ATOM     93  H   TYR A   1     -24.662  -8.245  19.792  0.00  0.00    +0.149 HD
ATOM     94  C   UNK A   0     -22.843  -8.843  20.532  0.00  0.00    +0.211 C 
ATOM     95  C   UNK A   0     -23.258  -8.357  21.888  0.00  0.00    +0.109 C 
ATOM     96  O   UNK A   0     -21.796  -9.460  20.366  0.00  0.00    -0.276 OA
ENDBRANCH  91  92
BRANCH  91  97
ATOM     97  CB  TYR A   1     -23.649 -10.848  18.600  0.00  0.00    +0.067 C 
BRANCH  97  98
ATOM     98  CG  TYR A   1     -24.824 -11.376  19.491  0.00  0.00    -0.045 A 
ATOM     99  CD2 TYR A   1     -24.746 -11.650  20.843  0.00  0.00    +0.007 A 
ATOM    100  CE2 TYR A   1     -25.933 -11.776  21.604  0.00  0.00    +0.045 A 
ATOM    101  CZ  TYR A   1     -27.152 -11.432  21.035  0.00  0.00    +0.117 A 
ATOM    102  CE1 TYR A   1     -27.222 -11.220  19.708  0.00  0.00    +0.045 A 
ATOM    103  CD1 TYR A   1     -26.106 -11.585  19.028  0.00  0.00    +0.007 A 
BRANCH 101 104
ATOM    104  OH  TYR A   1     -28.312 -11.480  21.727  0.00  0.00    -0.507 OA
ATOM    105  HH  TYR A   1     -29.001 -11.447  21.039  0.00  0.00    +0.292 HD
ENDBRANCH 101 104
ENDBRANCH  97  98
ENDBRANCH  91  97
ENDBRANCH  89  91
ENDBRANCH  86  87
BRANCH  86 106
ATOM    106  CB  TYR A   1     -28.050  -7.828  15.530  0.00  0.00    +0.141 C 
ATOM    107  CG2 TYR A   1     -28.974  -7.347  14.397  0.00  0.00    +0.040 C 
BRANCH 106 108
ATOM    108  OG1 TYR A   1     -29.006  -8.801  16.000  0.00  0.00    -0.390 OA
ATOM    109  HG1 TYR A   1     -28.658  -9.398  16.676  0.00  0.00    +0.210 HD
ENDBRANCH 106 108
ENDBRANCH  86 106
ENDBRANCH  84  86
ENDBRANCH  81  82
BRANCH  81 110
ATOM    110  CB  TYR A   1     -24.579  -4.006  15.139  0.00  0.00    +0.187 C 
BRANCH 110 111
ATOM    111  O   TYR A   1     -23.793  -4.528  16.219  0.00  0.00    -0.393 OA
ATOM    112  H   TYR A   1     -24.400  -4.931  16.870  0.00  0.00    +0.209 HD
ENDBRANCH 110 111
ENDBRANCH  81 110
ENDBRANCH  79  81
ENDBRANCH  76  77
BRANCH  76 113
ATOM    113  CB  TYR A   1     -20.493  -5.408  13.014  0.00  0.00    +0.034 C 
BRANCH 113 114
ATOM    114  CG  TYR A   1     -20.196  -4.671  14.341  0.00  0.00    -0.015 C 
ATOM    115  CD2 TYR A   1     -19.546  -3.331  14.049  0.00  0.00    +0.007 C 
ATOM    116  CD1 TYR A   1     -19.314  -5.472  15.302  0.00  0.00    +0.007 C 
ENDBRANCH 113 114
ENDBRANCH  76 113
ENDBRANCH  74  76
ENDBRANCH  71  72
BRANCH  71 117
ATOM    117  CB  TYR A   1     -19.470 -10.476  14.627  0.00  0.00    +0.015 C 
ATOM    118  CG2 TYR A   1     -20.517 -11.167  13.754  0.00  0.00    +0.010 C 
BRANCH 117 119
ATOM    119  CG1 TYR A   1     -18.580 -11.528  15.315  0.00  0.00    +0.002 C 
ATOM    120  CD1 TYR A   1     -17.668 -10.927  16.375  0.00  0.00    +0.004 C 
ENDBRANCH 117 119
ENDBRANCH  71 117
ENDBRANCH  69  71
ENDBRANCH  66  67
BRANCH  66 121
ATOM    121  CB  TYR A   1     -18.404 -11.316   9.415  0.00  0.00    +0.088 C 
BRANCH 121 122
ATOM    122  CG  TYR A   1     -19.265 -10.250   8.811  0.00  0.00    +0.061 A 
ATOM    123  ND1 TYR A   1     -20.017  -9.412   9.616  0.00  0.00    -0.241 NA
ATOM    124  CE1 TYR A   1     -20.695  -8.649   8.788  0.00  0.00    +0.196 A 
ATOM    125  NE2 TYR A   1     -20.395  -8.934   7.486  0.00  0.00    -0.351 N 
ATOM    126  HE2 TYR A   1     -20.801  -8.487   6.675  0.00  0.00    +0.166 HD
ATOM    127  CD2 TYR A   1     -19.482  -9.953   7.484  0.00  0.00    +0.107 A 
ENDBRANCH 121 122
ENDBRANCH  66 121
ENDBRANCH  64  66
ENDBRANCH  61  62
BRANCH  61 128
ATOM    128  CB  TYR A   1     -13.282  -9.464   9.113  0.00  0.00    +0.187 C 
BRANCH 128 129
ATOM    129  O   TYR A   1     -12.799 -10.612   9.808  0.00  0.00    -0.393 OA
ATOM    130  H   TYR A   1     -13.537 -10.912  10.374  0.00  0.00    +0.209 HD
ENDBRANCH 128 129
ENDBRANCH  61 128
ENDBRANCH  59  61
ENDBRANCH  56  57
BRANCH  56 131
ATOM    131  CB  TYR A   1     -12.791  -9.985   3.737  0.00  0.00    +0.034 C 
BRANCH 131 132
ATOM    132  CG  TYR A   1     -12.063  -8.620   3.782  0.00  0.00    -0.015 C 
ATOM    133  CD2 TYR A   1     -12.480  -7.779   2.571  0.00  0.00    +0.007 C 
ATOM    134  CD1 TYR A   1     -10.537  -8.724   3.803  0.00  0.00    +0.007 C 
ENDBRANCH 131 132
ENDBRANCH  56 131
ENDBRANCH  54  56
ENDBRANCH  51  52
BRANCH  51 135
ATOM    135  CB  TYR A   1      -8.988 -12.638   7.843  0.00  0.00    +0.015 C 
ATOM    136  CG2 TYR A   1      -7.570 -13.175   8.037  0.00  0.00    +0.010 C 
BRANCH 135 138
ATOM    137  CD1 TYR A   1      -8.245 -10.211   8.517  0.00  0.00    +0.004 C 
ATOM    138  CG1 TYR A   1      -9.199 -11.379   8.732  0.00  0.00    +0.002 C 
ENDBRANCH 135 138
ENDBRANCH  51 135
ENDBRANCH  47  51
ENDBRANCH  46  48
BRANCH  46 139
ATOM    139  CB  GLU A   2      -8.503 -15.322   2.589  0.00  0.00    +0.043 C 
BRANCH 139 140
ATOM    140  CG  GLU A   2      -8.687 -16.715   2.038  0.00  0.00    +0.123 C 
BRANCH 140 141
ATOM    141  CD  GLU A   2      -9.029 -16.613   0.596  0.00  0.00    +0.305 C 
ATOM    142  OE1 GLU A   2     -10.174 -16.710   0.179  0.00  0.00    -0.251 OA
BRANCH 141 143
ATOM    143  OE2 GLU A   2      -7.966 -16.380  -0.191  0.00  0.00    -0.481 OA
ATOM    144  HE2 GLU A   2      -7.073 -16.351   0.221  0.00  0.00    +0.295 HD
ENDBRANCH 141 143
ENDBRANCH 140 141
ENDBRANCH 139 140
ENDBRANCH  46 139
ENDBRANCH  42  46
ENDBRANCH  41  43
BRANCH  41 145
ATOM    145  CB  GLU A   3      -4.116 -19.502   4.449  0.00  0.00    +0.043 C 
BRANCH 145 146
ATOM    146  CG  GLU A   3      -2.821 -20.188   4.880  0.00  0.00    +0.123 C 
BRANCH 146 147
ATOM    147  CD  GLU A   3      -2.043 -19.274   5.787  0.00  0.00    +0.305 C 
ATOM    148  OE1 GLU A   3      -1.323 -18.397   5.370  0.00  0.00    -0.251 OA
BRANCH 147 149
ATOM    149  OE2 GLU A   3      -2.368 -19.415   7.090  0.00  0.00    -0.481 OA
ATOM    150  HE2 GLU A   3      -3.015 -20.112   7.324  0.00  0.00    +0.295 HD
ENDBRANCH 147 149
ENDBRANCH 146 147
ENDBRANCH 145 146
ENDBRANCH  41 145
ENDBRANCH  37  41
ENDBRANCH  36  38
BRANCH  36 151
ATOM    151  CB  SER A   4      -2.400 -18.354  -0.090  0.00  0.00    +0.187 C 
BRANCH 151 152
ATOM    152  OG  SER A   4      -3.142 -17.139  -0.280  0.00  0.00    -0.393 OA
ATOM    153  H   SER A   4      -3.472 -16.851   0.604  0.00  0.00    +0.209 HD
ENDBRANCH 151 152
ENDBRANCH  36 151
ENDBRANCH  32  36
ENDBRANCH  31  33
BRANCH  31 154
ATOM    154  CB  GLN A   5       0.947 -16.233  -2.288  0.00  0.00    +0.041 C 
BRANCH 154 155
ATOM    155  CG  GLN A   5       1.825 -15.152  -2.848  0.00  0.00    +0.098 C 
BRANCH 155 156
ATOM    156  CD  GLN A   5       2.473 -15.587  -4.138  0.00  0.00    +0.211 C 
ATOM    157  NE2 GLN A   5       3.276 -14.616  -4.646  0.00  0.00    -0.329 N 
ATOM    158 HE21 GLN A   5       3.768 -14.799  -5.514  0.00  0.00    +0.145 HD
ATOM    159 HE22 GLN A   5       3.419 -13.736  -4.172  0.00  0.00    +0.145 HD
ATOM    160  OE1 GLN A   5       2.307 -16.664  -4.665  0.00  0.00    -0.276 OA
ENDBRANCH 155 156
ENDBRANCH 154 155
ENDBRANCH  31 154
ENDBRANCH  27  31
ENDBRANCH  26  28
BRANCH  26 161
ATOM    161  CB  ASN A   6      -2.757 -13.115  -2.929  0.00  0.00    +0.127 C 
BRANCH 161 162
ATOM    162  CG  ASN A   6      -3.749 -12.011  -3.153  0.00  0.00    +0.213 C 
ATOM    163  ND2 ASN A   6      -3.792 -11.056  -2.186  0.00  0.00    -0.329 N 
ATOM    164 HD21 ASN A   6      -4.392 -10.246  -2.375  0.00  0.00    +0.145 HD
ATOM    165 HD22 ASN A   6      -3.013 -10.862  -1.572  0.00  0.00    +0.145 HD
ATOM    166  OD1 ASN A   6      -4.465 -11.951  -4.130  0.00  0.00    -0.276 OA
ENDBRANCH 161 162
ENDBRANCH  26 161
ENDBRANCH  22  26
ENDBRANCH  21  23
BRANCH  21 167
ATOM    167  CB  GLN A   7      -5.381 -17.493  -4.305  0.00  0.00    +0.041 C 
BRANCH 167 168
ATOM    168  CG  GLN A   7      -4.993 -16.610  -5.500  0.00  0.00    +0.098 C 
BRANCH 168 169
ATOM    169  CD  GLN A   7      -4.719 -17.476  -6.724  0.00  0.00    +0.211 C 
ATOM    170  NE2 GLN A   7      -4.413 -16.802  -7.867  0.00  0.00    -0.329 N 
ATOM    171 HE21 GLN A   7      -4.197 -17.354  -8.688  0.00  0.00    +0.145 HD
ATOM    172 HE22 GLN A   7      -4.325 -15.797  -7.922  0.00  0.00    +0.145 HD
ATOM    173  OE1 GLN A   7      -4.727 -18.700  -6.717  0.00  0.00    -0.276 OA
ENDBRANCH 168 169
ENDBRANCH 167 168
ENDBRANCH  21 167
ENDBRANCH  17  21
ENDBRANCH  16  18
BRANCH  16 174
ATOM    174  CB  GLN A   8      -5.523 -20.388   0.170  0.00  0.00    +0.041 C 
BRANCH 174 175
ATOM    175  CG  GLN A   8      -5.581 -21.330   1.348  0.00  0.00    +0.098 C 
BRANCH 175 176
ATOM    176  CD  GLN A   8      -4.584 -22.451   1.247  0.00  0.00    +0.211 C 
ATOM    177  NE2 GLN A   8      -4.734 -23.221   0.144  0.00  0.00    -0.329 N 
ATOM    178 HE21 GLN A   8      -4.136 -24.025   0.017  0.00  0.00    +0.145 HD
ATOM    179 HE22 GLN A   8      -5.435 -23.019  -0.561  0.00  0.00    +0.145 HD
ATOM    180  OE1 GLN A   8      -3.735 -22.689   2.109  0.00  0.00    -0.276 OA
ENDBRANCH 175 176
ENDBRANCH 174 175
ENDBRANCH  16 174
ENDBRANCH  12  16
ENDBRANCH  11  13
BRANCH  11 181
ATOM    181  CB  GLU A   9      -4.410 -16.108   5.368  0.00  0.00    +0.043 C 
BRANCH 181 182
ATOM    182  CG  GLU A   9      -3.883 -15.570   6.653  0.00  0.00    +0.123 C 
BRANCH 182 183
ATOM    183  CD  GLU A   9      -3.876 -14.027   6.518  0.00  0.00    +0.305 C 
ATOM    184  OE1 GLU A   9      -4.445 -13.280   7.300  0.00  0.00    -0.251 OA
BRANCH 183 185
ATOM    185  OE2 GLU A   9      -3.238 -13.508   5.430  0.00  0.00    -0.481 OA
ATOM    186  HE2 GLU A   9      -2.871 -14.120   4.764  0.00  0.00    +0.295 HD
ENDBRANCH 183 185
ENDBRANCH 182 183
ENDBRANCH 181 182
ENDBRANCH  11 181
ENDBRANCH   7  11
ENDBRANCH   6   8
BRANCH   6 187
ATOM    187  CB  LYS A  10      -9.366 -19.038   6.237  0.00  0.00    +0.032 C 
BRANCH 187 188
ATOM    188  CG  LYS A  10     -10.387 -19.408   7.271  0.00  0.00    +0.003 C 
BRANCH 188 189
ATOM    189  CD  LYS A  10      -9.812 -19.763   8.632  0.00  0.00    +0.015 C 
BRANCH 189 190
ATOM    190  CE  LYS A  10      -9.220 -18.527   9.285  0.00  0.00    +0.077 C 
BRANCH 190 191
ATOM    191  NZ  LYS A  10      -8.718 -18.862  10.604  0.00  0.00    -0.330 NA
ATOM    192  HZ1 LYS A  10      -8.379 -18.003  11.035  0.00  0.00    +0.118 HD
ATOM    193  HZ2 LYS A  10      -9.490 -19.191  11.180  0.00  0.00    +0.118 HD
ENDBRANCH 190 191
ENDBRANCH 189 190
ENDBRANCH 188 189
ENDBRANCH 187 188
ENDBRANCH   6 187
ENDBRANCH   2   6
ENDBRANCH   1   3
BRANCH   1 194
ATOM    194  C   ASN A  11     -11.776 -23.295   5.953  0.00  0.00    +0.234 C 
ATOM    195  N   GLU A  12     -12.426 -22.102   6.254  0.00  0.00    -0.302 N 
ATOM    196  H   GLU A  12     -12.035 -21.260   5.846  0.00  0.00    +0.150 HD
ATOM    197  O   ASN A  11     -12.377 -24.369   5.997  0.00  0.00    -0.274 OA
BRANCH 195 198
ATOM    198  CA  GLU A  12     -13.781 -21.965   6.861  0.00  0.00    +0.159 C 
BRANCH 198 199
ATOM    199  C   GLU A  12     -14.163 -20.437   7.032  0.00  0.00    +0.234 C 
ATOM    200  N   GLN A  13     -15.452 -20.139   7.439  0.00  0.00    -0.302 N 
ATOM    201  H   GLN A  13     -16.164 -20.861   7.444  0.00  0.00    +0.150 HD
ATOM    202  O   GLU A  12     -13.348 -19.546   6.787  0.00  0.00    -0.274 OA
BRANCH 200 203
ATOM    203  CA  GLN A  13     -15.967 -18.789   7.812  0.00  0.00    +0.159 C 
BRANCH 203 204
ATOM    204  C   GLN A  13     -17.420 -18.895   8.407  0.00  0.00    +0.234 C 
ATOM    205  N   GLU A  14     -18.031 -17.716   8.808  0.00  0.00    -0.302 N 
ATOM    206  H   GLU A  14     -17.565 -16.824   8.672  0.00  0.00    +0.150 HD
ATOM    207  O   GLN A  13     -17.984 -19.989   8.471  0.00  0.00    -0.274 OA
BRANCH 205 208
ATOM    208  CA  GLU A  14     -19.417 -17.625   9.330  0.00  0.00    +0.159 C 
BRANCH 208 209
ATOM    209  C   GLU A  14     -19.805 -16.110   9.535  0.00  0.00    +0.234 C 
ATOM    210  N   LEU A  15     -21.130 -15.865   9.833  0.00  0.00    -0.302 N 
ATOM    211  H   LEU A  15     -21.831 -16.565   9.613  0.00  0.00    +0.150 HD
ATOM    212  O   GLU A  14     -18.972 -15.210   9.491  0.00  0.00    -0.274 OA
BRANCH 210 213
ATOM    213  CA  LEU A  15     -21.681 -14.570  10.287  0.00  0.00    +0.159 C 
BRANCH 213 214
ATOM    214  C   LEU A  15     -22.686 -14.974  11.385  0.00  0.00    +0.234 C 
ATOM    215  N   LEU A  16     -22.283 -15.114  12.713  0.00  0.00    -0.302 N 
ATOM    216  H   LEU A  16     -21.288 -15.074  12.909  0.00  0.00    +0.150 HD
ATOM    217  O   LEU A  15     -23.771 -15.385  10.963  0.00  0.00    -0.274 OA
BRANCH 215 218
ATOM    218  CA  LEU A  16     -23.177 -15.236  13.907  0.00  0.00    +0.159 C 
BRANCH 218 219
ATOM    219  C   LEU A  16     -23.500 -14.054  14.780  0.00  0.00    +0.234 C 
ATOM    220  N   GLU A  17     -24.480 -14.400  15.726  0.00  0.00    -0.302 N 
ATOM    221  H   GLU A  17     -25.128 -15.149  15.501  0.00  0.00    +0.150 HD
ATOM    222  O   LEU A  16     -22.943 -12.971  14.678  0.00  0.00    -0.274 OA
BRANCH 220 223
ATOM    223  CA  GLU A  17     -24.926 -13.493  16.731  0.00  0.00    +0.159 C 
BRANCH 223 224
ATOM    224  C   GLU A  17     -25.857 -14.315  17.765  0.00  0.00    +0.234 C 
ATOM    225  N   LEU A  18     -27.206 -14.371  17.451  0.00  0.00    -0.302 N 
ATOM    226  H   LEU A  18     -27.472 -14.198  16.485  0.00  0.00    +0.150 HD
ATOM    227  O   GLU A  17     -25.395 -14.882  18.758  0.00  0.00    -0.274 OA
BRANCH 225 228
ATOM    228  CA  LEU A  18     -28.294 -14.812  18.393  0.00  0.00    +0.159 C 
BRANCH 228 229
ATOM    229  C   LEU A  18     -29.302 -15.609  17.589  0.00  0.00    +0.234 C 
ATOM    230  N   ASP A  19     -28.826 -16.747  16.994  0.00  0.00    -0.302 N 
ATOM    231  H   ASP A  19     -27.893 -17.049  17.249  0.00  0.00    +0.150 HD
ATOM    232  O   LEU A  18     -30.461 -15.235  17.461  0.00  0.00    -0.274 OA
BRANCH 230 233
ATOM    233  CA  ASP A  19     -29.698 -17.598  16.177  0.00  0.00    +0.169 C 
BRANCH 233 234
ATOM    234  C   ASP A  19     -28.931 -18.454  15.139  0.00  0.00    +0.234 C 
ATOM    235  N   LYS A  20     -27.664 -18.876  15.486  0.00  0.00    -0.302 N 
ATOM    236  H   LYS A  20     -27.270 -18.696  16.397  0.00  0.00    +0.150 HD
ATOM    237  O   ASP A  19     -29.475 -18.835  14.102  0.00  0.00    -0.274 OA
BRANCH 235 238
ATOM    238  CA  LYS A  20     -26.801 -19.604  14.538  0.00  0.00    +0.159 C 
BRANCH 238 239
ATOM    239  C   LYS A  20     -26.052 -20.762  15.237  0.00  0.00    +0.234 C 
ATOM    240  N   TRP A  21     -25.146 -21.423  14.437  0.00  0.00    -0.302 N 
ATOM    241  H   TRP A  21     -24.961 -21.091  13.501  0.00  0.00    +0.150 HD
ATOM    242  O   LYS A  20     -26.280 -21.078  16.402  0.00  0.00    -0.274 OA
BRANCH 240 243
ATOM    243  CA  TRP A  21     -24.300 -22.538  14.897  0.00  0.00    +0.163 C 
BRANCH 243 244
ATOM    244  C   TRP A  21     -22.953 -22.010  15.488  0.00  0.00    +0.234 C 
ATOM    245  N   ALA A  22     -22.056 -22.971  15.927  0.00  0.00    -0.303 N 
ATOM    246  H   ALA A  22     -22.287 -23.955  15.859  0.00  0.00    +0.149 HD
ATOM    247  O   TRP A  21     -22.723 -20.808  15.607  0.00  0.00    -0.274 OA
BRANCH 245 248
ATOM    248  CA  ALA A  22     -20.748 -22.652  16.549  0.00  0.00    +0.156 C 
ATOM    249  CB  ALA A  22     -20.940 -22.380  18.038  0.00  0.00    +0.038 C 
BRANCH 248 250
ATOM    250  C   ALA A  22     -19.742 -23.838  16.357  0.00  0.00    +0.234 C 
ATOM    251  N   UNK A  23     -18.437 -23.672  16.798  0.00  0.00    -0.301 N 
ATOM    252  H   UNK A  23     -18.170 -22.817  17.277  0.00  0.00    +0.150 HD
ATOM    253  O   ALA A  22     -20.106 -24.893  15.829  0.00  0.00    -0.274 OA
BRANCH 251 254
ATOM    254  C   UNK A  23     -17.358 -24.713  16.687  0.00  0.00    +0.184 C 
BRANCH 254 255
ATOM    255  C   UNK A  23     -16.039 -24.310  17.457  0.00  0.00    +0.236 C 
ATOM    256  N   UNK A  23     -15.037 -25.276  17.543  0.00  0.00    -0.302 N 
ATOM    257  H   UNK A  23     -15.189 -26.189  17.125  0.00  0.00    +0.150 HD
ATOM    258  O   UNK A  23     -15.923 -23.188  17.953  0.00  0.00    -0.274 OA
BRANCH 256 259
ATOM    259  C   UNK A  23     -13.691 -25.101  18.187  0.00  0.00    +0.159 C 
BRANCH 259 260
ATOM    260  C   UNK A  23     -12.837 -26.416  18.038  0.00  0.00    +0.234 C 
ATOM    261  N   UNK A  23     -11.452 -26.288  18.033  0.00  0.00    -0.302 N 
ATOM    262  H   UNK A  23     -11.028 -25.367  18.023  0.00  0.00    +0.150 HD
ATOM    263  O   UNK A  23     -13.397 -27.514  18.001  0.00  0.00    -0.274 OA
BRANCH 261 264
ATOM    264  C   UNK A  23     -10.487 -27.431  18.060  0.00  0.00    +0.163 C 
BRANCH 264 265
ATOM    265  C   UNK A  23      -8.986 -26.942  18.180  0.00  0.00    +0.234 C 
ATOM    266  N   UNK A  23      -7.997 -27.917  18.156  0.00  0.00    -0.302 N 
ATOM    267  H   UNK A  23      -8.248 -28.902  18.133  0.00  0.00    +0.150 HD
ATOM    268  O   UNK A  23      -8.710 -25.748  18.323  0.00  0.00    -0.274 OA
BRANCH 266 269
ATOM    269  C   UNK A  23      -6.534 -27.668  18.212  0.00  0.00    +0.168 C 
BRANCH 269 270
ATOM    270  C   UNK A  23      -5.725 -28.866  17.595  0.00  0.00    +0.234 C 
ATOM    271  N   UNK A  23      -4.348 -28.713  17.529  0.00  0.00    -0.302 N 
ATOM    272  H   UNK A  23      -3.918 -27.819  17.742  0.00  0.00    +0.150 HD
ATOM    273  O   UNK A  23      -6.294 -29.872  17.171  0.00  0.00    -0.274 OA
BRANCH 271 274
ATOM    274  C   UNK A  23      -3.411 -29.723  16.956  0.00  0.00    +0.163 C 
BRANCH 274 275
ATOM    275  C   UNK A  23      -1.945 -29.181  17.042  0.00  0.00    +0.234 C 
ATOM    276  N   UNK A  23      -0.949 -30.018  16.573  0.00  0.00    -0.302 N 
ATOM    277  H   UNK A  23      -1.179 -30.928  16.186  0.00  0.00    +0.150 HD
ATOM    278  O   UNK A  23      -1.709 -28.059  17.496  0.00  0.00    -0.274 OA
BRANCH 276 279
ATOM    279  C   UNK A  23       0.437 -29.580  16.323  0.00  0.00    +0.163 C 
BRANCH 279 280
ATOM    280  C   UNK A  23       1.207 -30.688  15.559  0.00  0.00    +0.231 C 
ATOM    281  N   UNK A  23       2.498 -30.416  15.194  0.00  0.00    -0.328 N 
ATOM    282  H   UNK A  23       3.018 -31.146  14.722  0.00  0.00    +0.145 HD
ATOM    283  H   UNK A  23       2.974 -29.547  15.392  0.00  0.00    +0.145 HD
ATOM    284  O   UNK A  23       0.694 -31.761  15.241  0.00  0.00    -0.274 OA
ENDBRANCH 279 280
BRANCH 279 285
ATOM    285  C   UNK A  23       1.189 -29.149  17.588  0.00  0.00    +0.067 C 
BRANCH 285 286
ATOM    286  C   UNK A  23       1.304 -30.221  18.645  0.00  0.00    -0.045 A 
ATOM    287  C   UNK A  23       0.317 -30.341  19.631  0.00  0.00    +0.004 A 
ATOM    288  C   UNK A  23       0.446 -31.285  20.648  0.00  0.00    +0.000 A 
ATOM    289  C   UNK A  23       1.559 -32.122  20.684  0.00  0.00    +0.000 A 
ATOM    290  C   UNK A  23       2.528 -32.037  19.686  0.00  0.00    +0.000 A 
ATOM    291  C   UNK A  23       2.399 -31.094  18.667  0.00  0.00    +0.004 A 
ENDBRANCH 285 286
ENDBRANCH 279 285
ENDBRANCH 276 279
ENDBRANCH 274 275
BRANCH 274 292
ATOM    292  C   UNK A  23      -3.722 -30.085  15.487  0.00  0.00    +0.069 C 
BRANCH 292 293
ATOM    293  C   UNK A  23      -3.455 -28.935  14.557  0.00  0.00    -0.020 A 
ATOM    294  C   UNK A  23      -2.372 -28.811  13.626  0.00  0.00    +0.003 A 
ATOM    295  C   UNK A  23      -2.434 -27.525  13.090  0.00  0.00    +0.047 A 
ATOM    296  C   UNK A  23      -1.504 -27.044  12.163  0.00  0.00    +0.026 A 
ATOM    297  C   UNK A  23      -0.464 -27.898  11.785  0.00  0.00    +0.002 A 
ATOM    298  C   UNK A  23      -0.363 -29.182  12.312  0.00  0.00    +0.001 A 
ATOM    299  N   UNK A  23      -3.516 -26.897  13.659  0.00  0.00    -0.360 N 
ATOM    300  H   UNK A  23      -3.777 -25.936  13.491  0.00  0.00    +0.165 HD
ATOM    301  C   UNK A  23      -1.316 -29.653  13.221  0.00  0.00    +0.010 A 
ATOM    302  C   UNK A  23      -4.154 -27.744  14.519  0.00  0.00    +0.087 A 
ENDBRANCH 292 293
ENDBRANCH 274 292
ENDBRANCH 271 274
ENDBRANCH 269 270
BRANCH 269 303
ATOM    303  C   UNK A  23      -6.039 -27.380  19.631  0.00  0.00    +0.127 C 
BRANCH 303 304
ATOM    304  C   UNK A  23      -6.099 -28.617  20.498  0.00  0.00    +0.213 C 
ATOM    305  N   UNK A  23      -5.201 -28.648  21.524  0.00  0.00    -0.329 N 
ATOM    306  H   UNK A  23      -5.273 -29.440  22.151  0.00  0.00    +0.145 HD
ATOM    307  H   UNK A  23      -4.775 -27.805  21.884  0.00  0.00    +0.145 HD
ATOM    308  O   UNK A  23      -6.891 -29.539  20.343  0.00  0.00    -0.276 OA
ENDBRANCH 303 304
ENDBRANCH 269 303
ENDBRANCH 266 269
ENDBRANCH 264 265
BRANCH 264 309
ATOM    309  C   UNK A  23     -10.658 -28.382  16.863  0.00  0.00    +0.069 C 
BRANCH 309 310
ATOM    310  C   UNK A  23     -10.353 -27.742  15.544  0.00  0.00    -0.020 A 
ATOM    311  C   UNK A  23     -11.292 -27.152  14.641  0.00  0.00    +0.003 A 
ATOM    312  C   UNK A  23     -10.577 -26.706  13.530  0.00  0.00    +0.047 A 
ATOM    313  C   UNK A  23     -11.192 -26.097  12.432  0.00  0.00    +0.026 A 
ATOM    314  C   UNK A  23     -12.579 -25.934  12.476  0.00  0.00    +0.002 A 
ATOM    315  C   UNK A  23     -13.321 -26.362  13.570  0.00  0.00    +0.001 A 
ATOM    316  N   UNK A  23      -9.255 -27.007  13.751  0.00  0.00    -0.360 N 
ATOM    317  H   UNK A  23      -8.507 -26.820  13.099  0.00  0.00    +0.165 HD
ATOM    318  C   UNK A  23     -12.691 -26.977  14.654  0.00  0.00    +0.010 A 
ATOM    319  C   UNK A  23      -9.106 -27.628  14.959  0.00  0.00    +0.087 A 
ENDBRANCH 309 310
ENDBRANCH 264 309
ENDBRANCH 261 264
ENDBRANCH 259 260
BRANCH 259 320
ATOM    320  C   UNK A  23     -13.847 -24.805  19.696  0.00  0.00    +0.034 C 
BRANCH 320 321
ATOM    321  C   UNK A  23     -12.538 -24.646  20.499  0.00  0.00    -0.015 C 
ATOM    322  C   UNK A  23     -12.852 -24.485  21.989  0.00  0.00    +0.007 C 
ATOM    323  C   UNK A  23     -11.674 -23.476  20.025  0.00  0.00    +0.007 C 
ENDBRANCH 320 321
ENDBRANCH 259 320
ENDBRANCH 256 259
ENDBRANCH 254 255
BRANCH 254 324
ATOM    324  C   UNK A  23     -16.980 -25.000  15.219  0.00  0.00    +0.187 C 
BRANCH 324 325
ATOM    325  O   UNK A  23     -17.987 -25.685  14.480  0.00  0.00    -0.393 OA
ATOM    326  H   UNK A  23     -18.858 -25.507  14.895  0.00  0.00    +0.209 HD
ENDBRANCH 324 325
ENDBRANCH 254 324
ENDBRANCH 251 254
ENDBRANCH 248 250
ENDBRANCH 245 248
ENDBRANCH 243 244
BRANCH 243 327
ATOM    327  CB  TRP A  21     -24.054 -23.502  13.720  0.00  0.00    +0.069 C 
BRANCH 327 328
ATOM    328  CG  TRP A  21     -25.334 -23.995  13.096  0.00  0.00    -0.020 A 
ATOM    329  CD2 TRP A  21     -25.816 -23.728  11.771  0.00  0.00    +0.003 A 
ATOM    330  CE2 TRP A  21     -27.076 -24.319  11.657  0.00  0.00    +0.047 A 
ATOM    331  CZ2 TRP A  21     -27.855 -24.235  10.497  0.00  0.00    +0.026 A 
ATOM    332  CH2 TRP A  21     -27.333 -23.521   9.415  0.00  0.00    +0.002 A 
ATOM    333  CZ3 TRP A  21     -26.078 -22.923   9.492  0.00  0.00    +0.001 A 
ATOM    334  NE1 TRP A  21     -27.345 -24.935  12.857  0.00  0.00    -0.360 N 
ATOM    335  HE1 TRP A  21     -28.203 -25.425  13.069  0.00  0.00    +0.165 HD
ATOM    336  CE3 TRP A  21     -25.310 -23.021  10.660  0.00  0.00    +0.010 A 
ATOM    337  CD1 TRP A  21     -26.300 -24.760  13.722  0.00  0.00    +0.087 A 
ENDBRANCH 327 328
ENDBRANCH 243 327
ENDBRANCH 240 243
ENDBRANCH 238 239
BRANCH 238 338
ATOM    338  CB  LYS A  20     -25.796 -18.637  13.919  0.00  0.00    +0.032 C 
BRANCH 338 339
ATOM    339  CG  LYS A  20     -26.522 -17.508  13.200  0.00  0.00    +0.003 C 
BRANCH 339 340
ATOM    340  CD  LYS A  20     -25.588 -16.678  12.369  0.00  0.00    +0.015 C 
BRANCH 340 341
ATOM    341  CE  LYS A  20     -26.081 -15.214  12.162  0.00  0.00    +0.077 C 
BRANCH 341 342
ATOM    342  NZ  LYS A  20     -26.766 -14.569  13.280  0.00  0.00    -0.330 NA
ATOM    343  HZ1 LYS A  20     -26.997 -13.619  12.974  0.00  0.00    +0.118 HD
ATOM    344  HZ2 LYS A  20     -27.697 -15.002  13.392  0.00  0.00    +0.118 HD
ENDBRANCH 341 342
ENDBRANCH 340 341
ENDBRANCH 339 340
ENDBRANCH 338 339
ENDBRANCH 238 338
ENDBRANCH 235 238
ENDBRANCH 233 234
BRANCH 233 345
ATOM    345  CB  ASP A  19     -30.856 -16.861  15.449  0.00  0.00    +0.152 C 
BRANCH 345 346
ATOM    346  CG  ASP A  19     -30.333 -15.716  14.607  0.00  0.00    +0.307 C 
ATOM    347  OD1 ASP A  19     -29.180 -15.605  14.213  0.00  0.00    -0.251 OA
BRANCH 346 348
ATOM    348  OD2 ASP A  19     -31.265 -14.789  14.298  0.00  0.00    -0.481 OA
ATOM    349  HD2 ASP A  19     -32.110 -14.907  14.772  0.00  0.00    +0.295 HD
ENDBRANCH 346 348
ENDBRANCH 345 346
ENDBRANCH 233 345
ENDBRANCH 230 233
ENDBRANCH 228 229
BRANCH 228 350
ATOM    350  CB  LEU A  18     -29.081 -13.616  19.008  0.00  0.00    +0.034 C 
BRANCH 350 351
ATOM    351  CG  LEU A  18     -30.281 -13.852  19.985  0.00  0.00    -0.015 C 
ATOM    352  CD2 LEU A  18     -31.095 -12.576  20.318  0.00  0.00    +0.007 C 
ATOM    353  CD1 LEU A  18     -29.811 -14.514  21.281  0.00  0.00    +0.007 C 
ENDBRANCH 350 351
ENDBRANCH 228 350
ENDBRANCH 225 228
ENDBRANCH 223 224
BRANCH 223 354
ATOM    354  CB  GLU A  17     -25.494 -12.335  15.907  0.00  0.00    +0.043 C 
BRANCH 354 355
ATOM    355  CG  GLU A  17     -25.538 -10.945  16.400  0.00  0.00    +0.123 C 
BRANCH 355 356
ATOM    356  CD  GLU A  17     -26.954 -10.494  16.510  0.00  0.00    +0.305 C 
ATOM    357  OE1 GLU A  17     -27.872 -11.019  15.870  0.00  0.00    -0.251 OA
BRANCH 356 358
ATOM    358  OE2 GLU A  17     -27.238  -9.536  17.450  0.00  0.00    -0.481 OA
ATOM    359  HE2 GLU A  17     -26.565  -9.081  18.007  0.00  0.00    +0.295 HD
ENDBRANCH 356 358
ENDBRANCH 355 356
ENDBRANCH 354 355
ENDBRANCH 223 354
ENDBRANCH 220 223
ENDBRANCH 218 219
BRANCH 218 360
ATOM    360  CB  LEU A  16     -22.956 -16.446  14.854  0.00  0.00    +0.034 C 
BRANCH 360 361
ATOM    361  CG  LEU A  16     -21.664 -16.440  15.674  0.00  0.00    -0.015 C 
ATOM    362  CD2 LEU A  16     -21.586 -17.749  16.466  0.00  0.00    +0.007 C 
ATOM    363  CD1 LEU A  16     -21.505 -15.291  16.676  0.00  0.00    +0.007 C 
ENDBRANCH 360 361
ENDBRANCH 218 360
ENDBRANCH 215 218
ENDBRANCH 213 214
BRANCH 213 364
ATOM    364  CB  LEU A  15     -22.424 -13.934   9.065  0.00  0.00    +0.034 C 
BRANCH 364 365
ATOM    365  CG  LEU A  15     -23.267 -12.661   9.314  0.00  0.00    -0.015 C 
ATOM    366  CD2 LEU A  15     -23.945 -12.201   8.009  0.00  0.00    +0.007 C 
ATOM    367  CD1 LEU A  15     -22.427 -11.519   9.857  0.00  0.00    +0.007 C 
ENDBRANCH 364 365
ENDBRANCH 213 364
ENDBRANCH 210 213
ENDBRANCH 208 209
BRANCH 208 368
ATOM    368  CB  GLU A  14     -19.554 -18.414  10.653  0.00  0.00    +0.043 C 
BRANCH 368 369
ATOM    369  CG  GLU A  14     -20.964 -18.383  11.222  0.00  0.00    +0.123 C 
BRANCH 369 370
ATOM    370  CD  GLU A  14     -21.221 -19.310  12.375  0.00  0.00    +0.305 C 
ATOM    371  OE1 GLU A  14     -20.472 -20.168  12.786  0.00  0.00    -0.251 OA
BRANCH 370 372
ATOM    372  OE2 GLU A  14     -22.455 -19.080  12.884  0.00  0.00    -0.481 OA
ATOM    373  HE2 GLU A  14     -22.890 -18.296  12.491  0.00  0.00    +0.295 HD
ENDBRANCH 370 372
ENDBRANCH 369 370
ENDBRANCH 368 369
ENDBRANCH 208 368
ENDBRANCH 205 208
ENDBRANCH 203 204
BRANCH 203 374
ATOM    374  CB  GLN A  13     -15.969 -17.860   6.598  0.00  0.00    +0.041 C 
BRANCH 374 375
ATOM    375  CG  GLN A  13     -16.842 -18.435   5.479  0.00  0.00    +0.098 C 
BRANCH 375 376
ATOM    376  CD  GLN A  13     -16.823 -17.563   4.256  0.00  0.00    +0.211 C 
ATOM    377  NE2 GLN A  13     -15.618 -17.445   3.636  0.00  0.00    -0.329 N 
ATOM    378 HE21 GLN A  13     -15.558 -16.827   2.842  0.00  0.00    +0.145 HD
ATOM    379 HE22 GLN A  13     -14.752 -17.761   4.057  0.00  0.00    +0.145 HD
ATOM    380  OE1 GLN A  13     -17.834 -17.022   3.817  0.00  0.00    -0.276 OA
ENDBRANCH 375 376
ENDBRANCH 374 375
ENDBRANCH 203 374
ENDBRANCH 200 203
ENDBRANCH 198 199
BRANCH 198 381
ATOM    381  CB  GLU A  12     -13.845 -22.712   8.213  0.00  0.00    +0.043 C 
BRANCH 381 382
ATOM    382  CG  GLU A  12     -15.235 -22.763   8.845  0.00  0.00    +0.123 C 
BRANCH 382 383
ATOM    383  CD  GLU A  12     -15.281 -23.541  10.129  0.00  0.00    +0.305 C 
ATOM    384  OE1 GLU A  12     -15.561 -23.038  11.206  0.00  0.00    -0.251 OA
BRANCH 383 385
ATOM    385  OE2 GLU A  12     -15.017 -24.854   9.984  0.00  0.00    -0.481 OA
ATOM    386  HE2 GLU A  12     -14.822 -25.132   9.069  0.00  0.00    +0.295 HD
ENDBRANCH 383 385
ENDBRANCH 382 383
ENDBRANCH 381 382
ENDBRANCH 198 381
ENDBRANCH 195 198
ENDBRANCH   1 194
BRANCH   1 387
ATOM    387  CB  ASN A  11      -9.482 -24.470   5.795  0.00  0.00    +0.127 C 
BRANCH 387 388
ATOM    388  CG  ASN A  11      -9.372 -24.652   7.296  0.00  0.00    +0.213 C 
ATOM    389  ND2 ASN A  11      -8.649 -25.733   7.704  0.00  0.00    -0.329 N 
ATOM    390 HD21 ASN A  11      -8.535 -25.852   8.704  0.00  0.00    +0.145 HD
ATOM    391 HD22 ASN A  11      -7.968 -26.179   7.104  0.00  0.00    +0.145 HD
ATOM    392  OD1 ASN A  11      -9.853 -23.880   8.119  0.00  0.00    -0.276 OA
ENDBRANCH 387 388
ENDBRANCH   1 387
TORSDOF 166
