REMARK  Name = 
REMARK  185 active torsions:
REMARK  status: ('A' for Active; 'I' for Inactive)
REMARK    1  A    between atoms: CD1_1  and  CG1_2
REMARK    2  A    between atoms: CG1_2  and  CB_3
REMARK    3  A    between atoms: CB_3  and  CG2_5
REMARK    4  A    between atoms: CB_3  and  CA_6
REMARK    5  A    between atoms: CA_6  and  C_8
REMARK    6  A    between atoms: CA_6  and  N_280
REMARK    7  A    between atoms: N_10  and  CA_11
REMARK    8  A    between atoms: CA_11  and  CB_13
REMARK    9  A    between atoms: CA_11  and  C_18
REMARK   10  A    between atoms: CB_13  and  CG_14
REMARK   11  A    between atoms: CG_14  and  CD_15
REMARK   12  A    between atoms: CD_15  and  OE2_17
REMARK   13  A    between atoms: N_20  and  CA_21
REMARK   14  A    between atoms: CA_21  and  CB_23
REMARK   15  A    between atoms: CA_21  and  C_28
REMARK   16  A    between atoms: CB_23  and  CG_24
REMARK   17  A    between atoms: CG_24  and  CD_25
REMARK   18  A    between atoms: CD_25  and  OE2_27
REMARK   19  A    between atoms: N_30  and  CA_31
REMARK   20  A    between atoms: CA_31  and  CB_33
REMARK   21  A    between atoms: CA_31  and  C_35
REMARK   22  A    between atoms: CB_33  and  OG_34
REMARK   23  A    between atoms: N_37  and  CA_38
REMARK   24  A    between atoms: CA_38  and  CB_40
REMARK   25  A    between atoms: CA_38  and  C_45
REMARK   26  A    between atoms: CB_40  and  CG_41
REMARK   27  A    between atoms: CG_41  and  CD_42
REMARK   28  A    between atoms: N_47  and  CA_48
REMARK   29  A    between atoms: CA_48  and  CB_50
REMARK   30  A    between atoms: CA_48  and  C_54
REMARK   31  A    between atoms: CB_50  and  CG_51
REMARK   32  A    between atoms: N_56  and  CA_57
REMARK   33  A    between atoms: CA_57  and  CB_59
REMARK   34  A    between atoms: CA_57  and  C_64
REMARK   35  A    between atoms: CB_59  and  CG_60
REMARK   36  A    between atoms: CG_60  and  CD_61
REMARK   37  A    between atoms: N_66  and  CA_67
REMARK   38  A    between atoms: CA_67  and  CB_69
REMARK   39  A    between atoms: CA_67  and  C_74
REMARK   40  A    between atoms: CB_69  and  CG_70
REMARK   41  A    between atoms: CG_70  and  CD_71
REMARK   42  A    between atoms: N_76  and  CA_77
REMARK   43  A    between atoms: CA_77  and  CB_79
REMARK   44  A    between atoms: CA_77  and  C_84
REMARK   45  A    between atoms: CB_79  and  CG_80
REMARK   46  A    between atoms: CG_80  and  CD_81
REMARK   47  A    between atoms: CD_81  and  OE2_83
REMARK   48  A    between atoms: N_86  and  CA_87
REMARK   49  A    between atoms: CA_87  and  CB_89
REMARK   50  A    between atoms: CA_87  and  C_94
REMARK   51  A    between atoms: CB_89  and  CG_90
REMARK   52  A    between atoms: CG_90  and  CD_91
REMARK   53  A    between atoms: CD_91  and  CE_92
REMARK   54  A    between atoms: CE_92  and  NZ_93
REMARK   55  A    between atoms: N_96  and  CA_97
REMARK   56  A    between atoms: CA_97  and  CB_99
REMARK   57  A    between atoms: CA_97  and  C_103
REMARK   58  A    between atoms: CB_99  and  CG_100
REMARK   59  A    between atoms: N_105  and  CA_106
REMARK   60  A    between atoms: CA_106  and  CB_108
REMARK   61  A    between atoms: CA_106  and  C_113
REMARK   62  A    between atoms: CB_108  and  CG_109
REMARK   63  A    between atoms: CG_109  and  CD_110
REMARK   64  A    between atoms: CD_110  and  OE2_112
REMARK   65  A    between atoms: N_115  and  CA_116
REMARK   66  A    between atoms: CA_116  and  CB_118
REMARK   67  A    between atoms: CA_116  and  C_123
REMARK   68  A    between atoms: CB_118  and  CG_119
REMARK   69  A    between atoms: CG_119  and  CD_120
REMARK   70  A    between atoms: N_125  and  CA_126
REMARK   71  A    between atoms: CA_126  and  CB_128
REMARK   72  A    between atoms: CA_126  and  C_133
REMARK   73  A    between atoms: CB_128  and  CG_129
REMARK   74  A    between atoms: CG_129  and  CD_130
REMARK   75  A    between atoms: CD_130  and  OE2_132
REMARK   76  A    between atoms: N_135  and  CA_136
REMARK   77  A    between atoms: CA_136  and  CB_138
REMARK   78  A    between atoms: CA_136  and  C_142
REMARK   79  A    between atoms: CB_138  and  CG_139
REMARK   80  A    between atoms: CG_139  and  CD1_140
REMARK   81  A    between atoms: CG_139  and  CD2_141
REMARK   82  A    between atoms: N_144  and  CA_145
REMARK   83  A    between atoms: CA_145  and  CB_147
REMARK   84  A    between atoms: CA_145  and  C_151
REMARK   85  A    between atoms: CB_147  and  CG_148
REMARK   86  A    between atoms: CG_148  and  CD1_149
REMARK   87  A    between atoms: CG_148  and  CD2_150
REMARK   88  A    between atoms: N_153  and  CA_154
REMARK   89  A    between atoms: CA_154  and  CB_156
REMARK   90  A    between atoms: CA_154  and  C_161
REMARK   91  A    between atoms: CB_156  and  CG_157
REMARK   92  A    between atoms: CG_157  and  CD_158
REMARK   93  A    between atoms: CD_158  and  OE2_160
REMARK   94  A    between atoms: N_163  and  CA_164
REMARK   95  A    between atoms: CA_164  and  CB_166
REMARK   96  A    between atoms: CA_164  and  C_170
REMARK   97  A    between atoms: CB_166  and  CG_167
REMARK   98  A    between atoms: CG_167  and  CD1_168
REMARK   99  A    between atoms: CG_167  and  CD2_169
REMARK  100  A    between atoms: N_172  and  CA_173
REMARK  101  A    between atoms: CA_173  and  CB_175
REMARK  102  A    between atoms: CA_173  and  C_179
REMARK  103  A    between atoms: CB_175  and  CG_176
REMARK  104  A    between atoms: CG_176  and  OD2_178
REMARK  105  A    between atoms: N_181  and  CA_182
REMARK  106  A    between atoms: CA_182  and  CB_184
REMARK  107  A    between atoms: CA_182  and  C_189
REMARK  108  A    between atoms: CB_184  and  CG_185
REMARK  109  A    between atoms: CG_185  and  CD_186
REMARK  110  A    between atoms: CD_186  and  CE_187
REMARK  111  A    between atoms: CE_187  and  NZ_188
REMARK  112  A    between atoms: N_191  and  CA_192
REMARK  113  A    between atoms: CA_192  and  CB_194
REMARK  114  A    between atoms: CA_192  and  C_204
REMARK  115  A    between atoms: CB_194  and  CG_195
REMARK  116  A    between atoms: N_206  and  CA_207
REMARK  117  A    between atoms: CA_207  and  CB_209
REMARK  118  A    between atoms: CA_207  and  C_210
REMARK  119  A    between atoms: N_212  and  C_213
REMARK  120  A    between atoms: C_213  and  C_215
REMARK  121  A    between atoms: C_213  and  C_217
REMARK  122  A    between atoms: C_215  and  O_216
REMARK  123  A    between atoms: N_219  and  C_220
REMARK  124  A    between atoms: C_220  and  C_222
REMARK  125  A    between atoms: C_220  and  C_226
REMARK  126  A    between atoms: C_222  and  C_223
REMARK  127  A    between atoms: C_223  and  C_224
REMARK  128  A    between atoms: C_223  and  C_225
REMARK  129  A    between atoms: N_228  and  C_229
REMARK  130  A    between atoms: C_229  and  C_231
REMARK  131  A    between atoms: C_229  and  C_241
REMARK  132  A    between atoms: C_231  and  C_232
REMARK  133  A    between atoms: N_243  and  C_244
REMARK  134  A    between atoms: C_244  and  C_246
REMARK  135  A    between atoms: C_244  and  C_250
REMARK  136  A    between atoms: C_246  and  C_247
REMARK  137  A    between atoms: N_252  and  C_253
REMARK  138  A    between atoms: C_253  and  C_255
REMARK  139  A    between atoms: C_253  and  C_265
REMARK  140  A    between atoms: C_255  and  C_256
REMARK  141  A    between atoms: N_267  and  C_268
REMARK  142  A    between atoms: C_268  and  C_270
REMARK  143  A    between atoms: C_268  and  C_277
REMARK  144  A    between atoms: C_270  and  C_271
REMARK  145  A    between atoms: C_281  and  CA_283
REMARK  146  A    between atoms: CA_283  and  CB_285
REMARK  147  A    between atoms: CA_283  and  N_289
REMARK  148  A    between atoms: CB_285  and  CG_286
REMARK  149  A    between atoms: CG_286  and  CD1_287
REMARK  150  A    between atoms: CG_286  and  CD2_288
REMARK  151  A    between atoms: C_290  and  CA_292
REMARK  152  A    between atoms: CA_292  and  CB_294
REMARK  153  A    between atoms: CA_292  and  N_296
REMARK  154  A    between atoms: CB_294  and  O_295
REMARK  155  A    between atoms: C_297  and  CA_299
REMARK  156  A    between atoms: CA_299  and  CB_301
REMARK  157  A    between atoms: CA_299  and  N_307
REMARK  158  A    between atoms: CB_301  and  CG_302
REMARK  159  A    between atoms: C_308  and  CA_310
REMARK  160  A    between atoms: CA_310  and  CB_312
REMARK  161  A    between atoms: CA_310  and  N_317
REMARK  162  A    between atoms: CB_312  and  CG2_314
REMARK  163  A    between atoms: CB_312  and  CG1_315
REMARK  164  A    between atoms: CG1_315  and  CD1_316
REMARK  165  A    between atoms: C_318  and  CA_320
REMARK  166  A    between atoms: CA_320  and  CB_322
REMARK  167  A    between atoms: CA_320  and  N_326
REMARK  168  A    between atoms: CB_322  and  CG_323
REMARK  169  A    between atoms: CG_323  and  CD1_324
REMARK  170  A    between atoms: CG_323  and  CD2_325
REMARK  171  A    between atoms: C_327  and  CA_329
REMARK  172  A    between atoms: CA_329  and  CB_331
REMARK  173  A    between atoms: CA_329  and  N_333
REMARK  174  A    between atoms: CB_331  and  O_332
REMARK  175  A    between atoms: C_334  and  CA_336
REMARK  176  A    between atoms: CA_336  and  CB_338
REMARK  177  A    between atoms: CA_336  and  N_342
REMARK  178  A    between atoms: CB_338  and  CG2_340
REMARK  179  A    between atoms: CB_338  and  OG1_341
REMARK  180  A    between atoms: C_343  and  CA_345
REMARK  181  A    between atoms: CA_345  and  CB_347
REMARK  182  A    between atoms: CA_345  and  N_355
REMARK  183  A    between atoms: CB_347  and  CG_348
REMARK  184  A    between atoms: CZ_351  and  OH_354
REMARK  185  A    between atoms: C_356  and  C_358
REMARK                            x       y       z     vdW  Elec       q    Type
REMARK                         _______ _______ _______ _____ _____    ______ ____
ROOT
ATOM      1  CA  ASN A  11      27.114  29.256   7.633  0.00  0.00    +0.168 C 
ENDROOT
BRANCH   1   2
ATOM      2  C   ASN A  11      27.813  29.506   9.023  0.00  0.00    +0.234 C 
ATOM      3  N   GLU A  12      28.745  28.581   9.473  0.00  0.00    -0.302 N 
ATOM      4  H   GLU A  12      29.416  28.368   8.737  0.00  0.00    +0.150 HD
ATOM      5  O   ASN A  11      27.526  30.540   9.626  0.00  0.00    -0.274 OA
BRANCH   3   6
ATOM      6  CA  GLU A  12      29.338  28.516  10.853  0.00  0.00    +0.159 C 
BRANCH   6   7
ATOM      7  C   GLU A  12      29.584  27.102  11.719  0.00  0.00    +0.234 C 
ATOM      8  N   GLN A  13      30.192  26.076  11.079  0.00  0.00    -0.302 N 
ATOM      9  H   GLN A  13      30.665  26.641  10.384  0.00  0.00    +0.150 HD
ATOM     10  O   GLU A  12      29.463  27.044  12.943  0.00  0.00    -0.274 OA
BRANCH   8  11
ATOM     11  CA  GLN A  13      30.646  24.437  11.171  0.00  0.00    +0.159 C 
BRANCH  11  12
ATOM     12  C   GLN A  13      31.331  23.585   9.855  0.00  0.00    +0.234 C 
ATOM     13  N   GLU A  14      31.054  22.284   9.501  0.00  0.00    -0.302 N 
ATOM     14  H   GLU A  14      31.210  21.625  10.263  0.00  0.00    +0.150 HD
ATOM     15  O   GLN A  13      32.147  24.185   9.156  0.00  0.00    -0.274 OA
BRANCH  13  16
ATOM     16  CA  GLU A  14      31.343  21.614   8.142  0.00  0.00    +0.159 C 
BRANCH  16  17
ATOM     17  C   GLU A  14      32.020  20.220   8.383  0.00  0.00    +0.234 C 
ATOM     18  N   LEU A  15      32.275  19.438   7.271  0.00  0.00    -0.302 N 
ATOM     19  H   LEU A  15      32.015  19.743   6.341  0.00  0.00    +0.150 HD
ATOM     20  O   GLU A  14      32.356  19.874   9.509  0.00  0.00    -0.274 OA
BRANCH  18  21
ATOM     21  CA  LEU A  15      32.804  18.065   7.372  0.00  0.00    +0.159 C 
BRANCH  21  22
ATOM     22  C   LEU A  15      34.371  17.949   7.290  0.00  0.00    +0.234 C 
ATOM     23  N   LEU A  16      35.115  19.073   7.613  0.00  0.00    -0.302 N 
ATOM     24  H   LEU A  16      34.601  19.900   7.861  0.00  0.00    +0.150 HD
ATOM     25  O   LEU A  15      34.911  16.871   7.041  0.00  0.00    -0.274 OA
BRANCH  23  26
ATOM     26  CA  LEU A  16      36.604  19.093   7.592  0.00  0.00    +0.159 C 
BRANCH  26  27
ATOM     27  C   LEU A  16      37.252  20.417   8.165  0.00  0.00    +0.234 C 
ATOM     28  N   GLU A  17      36.483  21.272   8.936  0.00  0.00    -0.302 N 
ATOM     29  H   GLU A  17      35.755  20.801   9.478  0.00  0.00    +0.150 HD
ATOM     30  O   LEU A  16      38.433  20.699   7.995  0.00  0.00    -0.274 OA
BRANCH  28  31
ATOM     31  CA  GLU A  17      37.069  22.475   9.643  0.00  0.00    +0.159 C 
BRANCH  31  32
ATOM     32  C   GLU A  17      35.841  23.271  10.231  0.00  0.00    +0.234 C 
ATOM     33  N   LEU A  18      36.100  24.479  10.772  0.00  0.00    -0.302 N 
ATOM     34  H   LEU A  18      37.052  24.751  10.988  0.00  0.00    +0.150 HD
ATOM     35  O   GLU A  17      34.708  22.726  10.189  0.00  0.00    -0.274 OA
BRANCH  33  36
ATOM     36  CA  LEU A  18      35.074  25.444  11.231  0.00  0.00    +0.159 C 
BRANCH  36  37
ATOM     37  C   LEU A  18      35.736  26.782  11.760  0.00  0.00    +0.234 C 
ATOM     38  N   ASP A  19      35.227  28.000  11.328  0.00  0.00    -0.302 N 
ATOM     39  H   ASP A  19      34.615  28.060  10.513  0.00  0.00    +0.150 HD
ATOM     40  O   LEU A  18      36.637  26.726  12.600  0.00  0.00    -0.274 OA
BRANCH  38  41
ATOM     41  CA  ASP A  19      35.738  29.330  11.799  0.00  0.00    +0.169 C 
BRANCH  41  42
ATOM     42  C   ASP A  19      34.784  30.565  11.505  0.00  0.00    +0.234 C 
ATOM     43  N   LYS A  20      35.150  31.795  12.066  0.00  0.00    -0.302 N 
ATOM     44  H   LYS A  20      35.988  31.867  12.629  0.00  0.00    +0.150 HD
ATOM     45  O   ASP A  19      33.790  30.425  10.795  0.00  0.00    -0.274 OA
BRANCH  43  46
ATOM     46  CA  LYS A  20      34.398  33.090  11.900  0.00  0.00    +0.159 C 
BRANCH  46  47
ATOM     47  C   LYS A  20      35.354  34.333  11.883  0.00  0.00    +0.234 C 
ATOM     48  N   TRP A  21      34.746  35.576  11.765  0.00  0.00    -0.302 N 
ATOM     49  H   TRP A  21      33.785  35.648  11.437  0.00  0.00    +0.150 HD
ATOM     50  O   LYS A  20      36.577  34.194  12.109  0.00  0.00    -0.274 OA
BRANCH  48  51
ATOM     51  CA  TRP A  21      35.443  36.880  11.938  0.00  0.00    +0.163 C 
BRANCH  51  52
ATOM     52  C   TRP A  21      34.406  38.069  11.912  0.00  0.00    +0.234 C 
ATOM     53  N   ALA A  22      34.894  39.350  12.157  0.00  0.00    -0.303 N 
ATOM     54  H   ALA A  22      35.892  39.496  12.258  0.00  0.00    +0.149 HD
ATOM     55  O   TRP A  21      33.212  37.859  11.685  0.00  0.00    -0.274 OA
BRANCH  53  56
ATOM     56  CA  ALA A  22      34.074  40.600  12.078  0.00  0.00    +0.156 C 
ATOM     57  CB  ALA A  22      32.961  40.580  13.119  0.00  0.00    +0.038 C 
BRANCH  56  58
ATOM     58  C   ALA A  22      34.961  41.894  12.280  0.00  0.00    +0.234 C 
ATOM     59  N   UNK A  23      34.355  43.143  12.177  0.00  0.00    -0.301 N 
ATOM     60  H   UNK A  23      33.343  43.203  12.102  0.00  0.00    +0.150 HD
ATOM     61  O   ALA A  22      36.173  41.790  12.489  0.00  0.00    -0.274 OA
BRANCH  59  62
ATOM     62  C   UNK A  23      35.046  44.469  12.395  0.00  0.00    +0.184 C 
BRANCH  62  63
ATOM     63  C   UNK A  23      34.037  45.687  12.384  0.00  0.00    +0.236 C 
ATOM     64  N   UNK A  23      34.550  46.939  12.718  0.00  0.00    -0.302 N 
ATOM     65  H   UNK A  23      35.512  47.020  13.039  0.00  0.00    +0.150 HD
ATOM     66  O   UNK A  23      32.857  45.517  12.073  0.00  0.00    -0.274 OA
BRANCH  64  67
ATOM     67  C   UNK A  23      33.794  48.241  12.724  0.00  0.00    +0.159 C 
BRANCH  67  68
ATOM     68  C   UNK A  23      34.762  49.417  13.121  0.00  0.00    +0.234 C 
ATOM     69  N   UNK A  23      34.392  50.700  12.741  0.00  0.00    -0.302 N 
ATOM     70  H   UNK A  23      33.601  50.841  12.119  0.00  0.00    +0.150 HD
ATOM     71  O   UNK A  23      35.771  49.185  13.789  0.00  0.00    -0.274 OA
BRANCH  69  72
ATOM     72  C   UNK A  23      35.100  51.963  13.119  0.00  0.00    +0.163 C 
BRANCH  72  73
ATOM     73  C   UNK A  23      34.400  53.212  12.464  0.00  0.00    +0.234 C 
ATOM     74  N   UNK A  23      34.894  54.470  12.782  0.00  0.00    -0.302 N 
ATOM     75  H   UNK A  23      35.618  54.572  13.489  0.00  0.00    +0.150 HD
ATOM     76  O   UNK A  23      33.430  53.059  11.717  0.00  0.00    -0.274 OA
BRANCH  74  77
ATOM     77  C   UNK A  23      34.350  55.763  12.276  0.00  0.00    +0.168 C 
BRANCH  77  78
ATOM     78  C   UNK A  23      35.104  56.995  12.905  0.00  0.00    +0.234 C 
ATOM     79  N   UNK A  23      34.676  58.261  12.516  0.00  0.00    -0.302 N 
ATOM     80  H   UNK A  23      34.014  58.378  11.755  0.00  0.00    +0.150 HD
ATOM     81  O   UNK A  23      36.034  56.827  13.694  0.00  0.00    -0.274 OA
BRANCH  79  82
ATOM     82  C   UNK A  23      35.219  59.542  13.055  0.00  0.00    +0.163 C 
BRANCH  82  83
ATOM     83  C   UNK A  23      34.548  60.777  12.368  0.00  0.00    +0.234 C 
ATOM     84  N   UNK A  23      34.922  62.021  12.830  0.00  0.00    -0.302 N 
ATOM     85  H   UNK A  23      35.632  62.120  13.552  0.00  0.00    +0.150 HD
ATOM     86  O   UNK A  23      33.693  60.625  11.492  0.00  0.00    -0.274 OA
BRANCH  84  87
ATOM     87  C   UNK A  23      34.430  63.309  12.280  0.00  0.00    +0.163 C 
BRANCH  87  88
ATOM     88  C   UNK A  23      35.214  64.467  12.969  0.00  0.00    +0.231 C 
ATOM     89  N   UNK A  23      34.753  65.747  12.809  0.00  0.00    -0.328 N 
ATOM     90  H   UNK A  23      35.182  66.454  13.395  0.00  0.00    +0.145 HD
ATOM     91  H   UNK A  23      33.827  65.956  12.466  0.00  0.00    +0.145 HD
ATOM     92  O   UNK A  23      36.258  64.279  13.597  0.00  0.00    -0.274 OA
ENDBRANCH  87  88
BRANCH  87  93
ATOM     93  C   UNK A  23      32.896  63.476  12.418  0.00  0.00    +0.067 C 
BRANCH  93  94
ATOM     94  C   UNK A  23      32.468  63.486  13.871  0.00  0.00    -0.045 A 
ATOM     95  C   UNK A  23      32.347  62.276  14.564  0.00  0.00    +0.004 A 
ATOM     96  C   UNK A  23      32.250  62.265  15.953  0.00  0.00    +0.000 A 
ATOM     97  C   UNK A  23      32.248  63.465  16.659  0.00  0.00    +0.000 A 
ATOM     98  C   UNK A  23      32.280  64.676  15.974  0.00  0.00    +0.000 A 
ATOM     99  C   UNK A  23      32.358  64.688  14.583  0.00  0.00    +0.004 A 
ENDBRANCH  93  94
ENDBRANCH  87  93
ENDBRANCH  84  87
ENDBRANCH  82  83
BRANCH  82 100
ATOM    100  C   UNK A  23      36.741  59.680  12.928  0.00  0.00    +0.069 C 
BRANCH 100 101
ATOM    101  C   UNK A  23      37.226  59.749  11.512  0.00  0.00    -0.020 A 
ATOM    102  C   UNK A  23      38.027  60.786  10.938  0.00  0.00    +0.003 A 
ATOM    103  C   UNK A  23      38.370  60.374   9.650  0.00  0.00    +0.047 A 
ATOM    104  C   UNK A  23      39.254  61.087   8.837  0.00  0.00    +0.026 A 
ATOM    105  C   UNK A  23      39.799  62.264   9.354  0.00  0.00    +0.002 A 
ATOM    106  C   UNK A  23      39.434  62.732  10.614  0.00  0.00    +0.001 A 
ATOM    107  N   UNK A  23      37.710  59.194   9.409  0.00  0.00    -0.360 N 
ATOM    108  H   UNK A  23      37.766  58.666   8.550  0.00  0.00    +0.165 HD
ATOM    109  C   UNK A  23      38.540  62.011  11.412  0.00  0.00    +0.010 A 
ATOM    110  C   UNK A  23      37.032  58.802  10.526  0.00  0.00    +0.087 A 
ENDBRANCH 100 101
ENDBRANCH  82 100
ENDBRANCH  79  82
ENDBRANCH  77  78
BRANCH  77 111
ATOM    111  C   UNK A  23      32.850  55.929  12.519  0.00  0.00    +0.127 C 
BRANCH 111 112
ATOM    112  C   UNK A  23      32.552  56.072  13.993  0.00  0.00    +0.213 C 
ATOM    113  N   UNK A  23      31.406  56.751  14.275  0.00  0.00    -0.329 N 
ATOM    114  H   UNK A  23      31.156  56.786  15.255  0.00  0.00    +0.145 HD
ATOM    115  H   UNK A  23      30.654  56.796  13.601  0.00  0.00    +0.145 HD
ATOM    116  O   UNK A  23      33.242  55.620  14.899  0.00  0.00    -0.276 OA
ENDBRANCH 111 112
ENDBRANCH  77 111
ENDBRANCH  74  77
ENDBRANCH  72  73
BRANCH  72 117
ATOM    117  C   UNK A  23      36.589  51.949  12.760  0.00  0.00    +0.069 C 
BRANCH 117 118
ATOM    118  C   UNK A  23      36.869  51.839  11.291  0.00  0.00    -0.020 A 
ATOM    119  C   UNK A  23      37.724  52.698  10.533  0.00  0.00    +0.003 A 
ATOM    120  C   UNK A  23      37.824  52.159   9.252  0.00  0.00    +0.047 A 
ATOM    121  C   UNK A  23      38.676  52.680   8.276  0.00  0.00    +0.026 A 
ATOM    122  C   UNK A  23      39.450  53.790   8.624  0.00  0.00    +0.002 A 
ATOM    123  C   UNK A  23      39.338  54.381   9.880  0.00  0.00    +0.001 A 
ATOM    124  N   UNK A  23      36.985  51.074   9.198  0.00  0.00    -0.360 N 
ATOM    125  H   UNK A  23      36.854  50.485   8.388  0.00  0.00    +0.165 HD
ATOM    126  C   UNK A  23      38.470  53.854  10.841  0.00  0.00    +0.010 A 
ATOM    127  C   UNK A  23      36.422  50.859  10.423  0.00  0.00    +0.087 A 
ENDBRANCH 117 118
ENDBRANCH  72 117
ENDBRANCH  69  72
ENDBRANCH  67  68
BRANCH  67 128
ATOM    128  C   UNK A  23      32.642  48.198  13.749  0.00  0.00    +0.034 C 
BRANCH 128 129
ATOM    129  C   UNK A  23      31.778  49.473  13.867  0.00  0.00    -0.015 C 
ATOM    130  C   UNK A  23      30.772  49.319  15.009  0.00  0.00    +0.007 C 
ATOM    131  C   UNK A  23      31.041  49.834  12.575  0.00  0.00    +0.007 C 
ENDBRANCH 128 129
ENDBRANCH  67 128
ENDBRANCH  64  67
ENDBRANCH  62  63
BRANCH  62 132
ATOM    132  C   UNK A  23      36.118  44.758  11.323  0.00  0.00    +0.187 C 
BRANCH 132 133
ATOM    133  O   UNK A  23      37.253  43.899  11.370  0.00  0.00    -0.393 OA
ATOM    134  H   UNK A  23      37.007  43.076  11.845  0.00  0.00    +0.209 HD
ENDBRANCH 132 133
ENDBRANCH  62 132
ENDBRANCH  59  62
ENDBRANCH  56  58
ENDBRANCH  53  56
ENDBRANCH  51  52
BRANCH  51 135
ATOM    135  CB  TRP A  21      36.547  37.081  10.885  0.00  0.00    +0.069 C 
BRANCH 135 136
ATOM    136  CG  TRP A  21      36.001  36.992   9.490  0.00  0.00    -0.020 A 
ATOM    137  CD2 TRP A  21      36.170  35.905   8.574  0.00  0.00    +0.003 A 
ATOM    138  CE2 TRP A  21      35.321  36.142   7.493  0.00  0.00    +0.047 A 
ATOM    139  CZ2 TRP A  21      35.155  35.232   6.446  0.00  0.00    +0.026 A 
ATOM    140  CH2 TRP A  21      35.888  34.043   6.499  0.00  0.00    +0.002 A 
ATOM    141  CZ3 TRP A  21      36.766  33.787   7.550  0.00  0.00    +0.001 A 
ATOM    142  NE1 TRP A  21      34.718  37.358   7.707  0.00  0.00    -0.360 N 
ATOM    143  HE1 TRP A  21      34.024  37.770   7.099  0.00  0.00    +0.165 HD
ATOM    144  CE3 TRP A  21      36.917  34.709   8.591  0.00  0.00    +0.010 A 
ATOM    145  CD1 TRP A  21      35.137  37.890   8.893  0.00  0.00    +0.087 A 
ENDBRANCH 135 136
ENDBRANCH  51 135
ENDBRANCH  48  51
ENDBRANCH  46  47
BRANCH  46 146
ATOM    146  CB  LYS A  20      33.491  33.419  13.107  0.00  0.00    +0.032 C 
BRANCH 146 147
ATOM    147  CG  LYS A  20      32.469  32.372  13.418  0.00  0.00    +0.003 C 
BRANCH 147 148
ATOM    148  CD  LYS A  20      31.468  32.799  14.519  0.00  0.00    +0.015 C 
BRANCH 148 149
ATOM    149  CE  LYS A  20      30.378  31.768  14.772  0.00  0.00    +0.077 C 
BRANCH 149 150
ATOM    150  NZ  LYS A  20      29.459  31.844  15.898  0.00  0.00    -0.330 NA
ATOM    151  HZ1 LYS A  20      28.750  31.111  15.770  0.00  0.00    +0.118 HD
ATOM    152  HZ2 LYS A  20      29.936  31.590  16.759  0.00  0.00    +0.118 HD
ENDBRANCH 149 150
ENDBRANCH 148 149
ENDBRANCH 147 148
ENDBRANCH 146 147
ENDBRANCH  46 146
ENDBRANCH  43  46
ENDBRANCH  41  42
BRANCH  41 153
ATOM    153  CB  ASP A  19      37.129  29.616  11.227  0.00  0.00    +0.152 C 
BRANCH 153 154
ATOM    154  CG  ASP A  19      37.064  29.847   9.736  0.00  0.00    +0.307 C 
ATOM    155  OD1 ASP A  19      36.224  29.367   8.991  0.00  0.00    -0.251 OA
BRANCH 154 156
ATOM    156  OD2 ASP A  19      38.085  30.603   9.275  0.00  0.00    -0.481 OA
ATOM    157  HD2 ASP A  19      38.731  30.880   9.952  0.00  0.00    +0.295 HD
ENDBRANCH 154 156
ENDBRANCH 153 154
ENDBRANCH  41 153
ENDBRANCH  38  41
ENDBRANCH  36  37
BRANCH  36 158
ATOM    158  CB  LEU A  18      34.259  24.801  12.383  0.00  0.00    +0.034 C 
BRANCH 158 159
ATOM    159  CG  LEU A  18      33.421  25.769  13.223  0.00  0.00    -0.015 C 
ATOM    160  CD2 LEU A  18      32.437  25.023  14.150  0.00  0.00    +0.007 C 
ATOM    161  CD1 LEU A  18      32.689  26.704  12.305  0.00  0.00    +0.007 C 
ENDBRANCH 158 159
ENDBRANCH  36 158
ENDBRANCH  33  36
ENDBRANCH  31  32
BRANCH  31 162
ATOM    162  CB  GLU A  17      38.084  23.404   8.843  0.00  0.00    +0.043 C 
BRANCH 162 163
ATOM    163  CG  GLU A  17      37.583  23.827   7.471  0.00  0.00    +0.123 C 
BRANCH 163 164
ATOM    164  CD  GLU A  17      38.252  24.698   6.440  0.00  0.00    +0.305 C 
ATOM    165  OE1 GLU A  17      39.362  25.187   6.508  0.00  0.00    -0.251 OA
BRANCH 164 166
ATOM    166  OE2 GLU A  17      37.439  24.841   5.345  0.00  0.00    -0.481 OA
ATOM    167  HE2 GLU A  17      36.596  24.336   5.366  0.00  0.00    +0.295 HD
ENDBRANCH 164 166
ENDBRANCH 163 164
ENDBRANCH 162 163
ENDBRANCH  31 162
ENDBRANCH  28  31
ENDBRANCH  26  27
BRANCH  26 168
ATOM    168  CB  LEU A  16      37.139  18.806   6.148  0.00  0.00    +0.034 C 
BRANCH 168 169
ATOM    169  CG  LEU A  16      38.673  18.708   5.940  0.00  0.00    -0.015 C 
ATOM    170  CD2 LEU A  16      39.025  18.537   4.458  0.00  0.00    +0.007 C 
ATOM    171  CD1 LEU A  16      39.346  17.601   6.754  0.00  0.00    +0.007 C 
ENDBRANCH 168 169
ENDBRANCH  26 168
ENDBRANCH  23  26
ENDBRANCH  21  22
BRANCH  21 172
ATOM    172  CB  LEU A  15      32.192  17.156   6.271  0.00  0.00    +0.034 C 
BRANCH 172 173
ATOM    173  CG  LEU A  15      30.651  17.063   6.204  0.00  0.00    -0.015 C 
ATOM    174  CD2 LEU A  15      30.044  16.492   7.485  0.00  0.00    +0.007 C 
ATOM    175  CD1 LEU A  15      30.227  16.178   5.018  0.00  0.00    +0.007 C 
ENDBRANCH 172 173
ENDBRANCH  21 172
ENDBRANCH  18  21
ENDBRANCH  16  17
BRANCH  16 176
ATOM    176  CB  GLU A  14      32.136  22.359   7.039  0.00  0.00    +0.043 C 
BRANCH 176 177
ATOM    177  CG  GLU A  14      33.541  22.675   7.458  0.00  0.00    +0.123 C 
BRANCH 177 178
ATOM    178  CD  GLU A  14      34.382  23.013   6.289  0.00  0.00    +0.305 C 
ATOM    179  OE1 GLU A  14      34.087  23.637   5.292  0.00  0.00    -0.251 OA
BRANCH 178 180
ATOM    180  OE2 GLU A  14      35.611  22.552   6.518  0.00  0.00    -0.481 OA
ATOM    181  HE2 GLU A  14      35.719  22.317   7.474  0.00  0.00    +0.295 HD
ENDBRANCH 178 180
ENDBRANCH 177 178
ENDBRANCH 176 177
ENDBRANCH  16 176
ENDBRANCH  13  16
ENDBRANCH  11  12
BRANCH  11 182
ATOM    182  CB  GLN A  13      29.475  23.681  11.748  0.00  0.00    +0.041 C 
BRANCH 182 183
ATOM    183  CG  GLN A  13      28.966  24.472  12.919  0.00  0.00    +0.098 C 
BRANCH 183 184
ATOM    184  CD  GLN A  13      28.157  23.749  13.907  0.00  0.00    +0.211 C 
ATOM    185  NE2 GLN A  13      28.055  24.445  15.069  0.00  0.00    -0.329 N 
ATOM    186 HE21 GLN A  13      27.525  24.068  15.830  0.00  0.00    +0.145 HD
ATOM    187 HE22 GLN A  13      28.418  25.405  15.168  0.00  0.00    +0.145 HD
ATOM    188  OE1 GLN A  13      27.637  22.678  13.677  0.00  0.00    -0.276 OA
ENDBRANCH 183 184
ENDBRANCH 182 183
ENDBRANCH  11 182
ENDBRANCH   8  11
ENDBRANCH   6   7
BRANCH   6 189
ATOM    189  CB  GLU A  12      28.547  29.307  11.902  0.00  0.00    +0.043 C 
BRANCH 189 190
ATOM    190  CG  GLU A  12      29.417  29.609  13.096  0.00  0.00    +0.123 C 
BRANCH 190 191
ATOM    191  CD  GLU A  12      30.614  30.248  12.456  0.00  0.00    +0.305 C 
ATOM    192  OE1 GLU A  12      30.516  31.139  11.624  0.00  0.00    -0.251 OA
BRANCH 191 193
ATOM    193  OE2 GLU A  12      31.777  29.659  12.786  0.00  0.00    -0.481 OA
ATOM    194  HE2 GLU A  12      31.703  28.930  13.429  0.00  0.00    +0.295 HD
ENDBRANCH 191 193
ENDBRANCH 190 191
ENDBRANCH 189 190
ENDBRANCH   6 189
ENDBRANCH   3   6
ENDBRANCH   1   2
BRANCH   1 196
ATOM    195  C   LYS A  10      27.163  27.581   5.736  0.00  0.00    +0.234 C 
ATOM    196  N   ASN A  11      27.085  27.896   7.083  0.00  0.00    -0.302 N 
ATOM    197  H   ASN A  11      26.818  27.192   7.770  0.00  0.00    +0.150 HD
ATOM    198  O   LYS A  10      27.247  28.450   4.865  0.00  0.00    -0.274 OA
BRANCH 195 199
ATOM    199  CA  LYS A  10      27.286  26.045   5.369  0.00  0.00    +0.159 C 
BRANCH 199 201
ATOM    200  C   GLU A   9      27.277  24.486   3.514  0.00  0.00    +0.234 C 
ATOM    201  N   LYS A  10      27.320  25.812   3.954  0.00  0.00    -0.302 N 
ATOM    202  H   LYS A  10      28.100  26.346   3.595  0.00  0.00    +0.150 HD
ATOM    203  O   GLU A   9      26.929  23.559   4.241  0.00  0.00    -0.274 OA
BRANCH 200 204
ATOM    204  CA  GLU A   9      27.632  24.316   2.024  0.00  0.00    +0.159 C 
BRANCH 204 206
ATOM    205  C   GLN A   8      28.748  25.819   0.335  0.00  0.00    +0.234 C 
ATOM    206  N   GLU A   9      28.260  25.573   1.586  0.00  0.00    -0.302 N 
ATOM    207  H   GLU A   9      27.865  26.385   2.014  0.00  0.00    +0.150 HD
ATOM    208  O   GLN A   8      29.010  24.963  -0.498  0.00  0.00    -0.274 OA
BRANCH 205 209
ATOM    209  CA  GLN A   8      28.976  27.300   0.030  0.00  0.00    +0.159 C 
BRANCH 209 211
ATOM    210  C   GLN A   7      30.312  28.407  -1.659  0.00  0.00    +0.234 C 
ATOM    211  N   GLN A   8      29.701  27.280  -1.219  0.00  0.00    -0.302 N 
ATOM    212  H   GLN A   8      29.498  26.512  -1.853  0.00  0.00    +0.150 HD
ATOM    213  O   GLN A   7      30.432  29.416  -0.969  0.00  0.00    -0.274 OA
BRANCH 210 214
ATOM    214  CA  GLN A   7      30.789  28.324  -3.092  0.00  0.00    +0.159 C 
BRANCH 214 216
ATOM    215  C   ASN A   6      32.000  25.948  -3.748  0.00  0.00    +0.234 C 
ATOM    216  N   GLN A   7      31.088  27.021  -3.794  0.00  0.00    -0.302 N 
ATOM    217  H   GLN A   7      31.166  27.277  -4.762  0.00  0.00    +0.150 HD
ATOM    218  O   ASN A   6      33.046  25.746  -3.188  0.00  0.00    -0.274 OA
BRANCH 215 219
ATOM    219  CA  ASN A   6      31.566  24.762  -4.530  0.00  0.00    +0.168 C 
BRANCH 219 221
ATOM    220  C   GLN A   5      28.516  24.768  -4.474  0.00  0.00    +0.234 C 
ATOM    221  N   ASN A   6      29.984  25.103  -4.417  0.00  0.00    -0.302 N 
ATOM    222  H   ASN A   6      30.126  26.021  -4.718  0.00  0.00    +0.150 HD
ATOM    223  O   GLN A   5      27.983  24.436  -3.418  0.00  0.00    -0.274 OA
BRANCH 220 224
ATOM    224  CA  GLN A   5      27.572  24.855  -6.065  0.00  0.00    +0.159 C 
BRANCH 224 226
ATOM    225  C   SER A   4      27.726  27.978  -7.258  0.00  0.00    +0.236 C 
ATOM    226  N   GLN A   5      27.675  26.322  -7.136  0.00  0.00    -0.302 N 
ATOM    227  H   GLN A   5      27.432  25.999  -8.042  0.00  0.00    +0.150 HD
ATOM    228  O   SER A   4      27.080  28.778  -6.560  0.00  0.00    -0.274 OA
BRANCH 225 229
ATOM    229  CA  SER A   4      29.152  28.814  -8.069  0.00  0.00    +0.184 C 
BRANCH 229 231
ATOM    230  C   GLU A   3      31.757  29.347  -7.690  0.00  0.00    +0.234 C 
ATOM    231  N   SER A   4      30.431  28.928  -7.337  0.00  0.00    -0.301 N 
ATOM    232  H   SER A   4      29.949  29.375  -6.592  0.00  0.00    +0.150 HD
ATOM    233  O   GLU A   3      31.989  29.403  -8.908  0.00  0.00    -0.274 OA
BRANCH 230 234
ATOM    234  CA  GLU A   3      33.107  30.090  -6.609  0.00  0.00    +0.159 C 
BRANCH 234 236
ATOM    235  C   GLU A   2      33.846  30.443  -3.965  0.00  0.00    +0.234 C 
ATOM    236  N   GLU A   3      33.224  30.856  -5.159  0.00  0.00    -0.302 N 
ATOM    237  H   GLU A   3      32.451  31.492  -4.990  0.00  0.00    +0.150 HD
ATOM    238  O   GLU A   2      35.000  30.020  -3.987  0.00  0.00    -0.274 OA
BRANCH 235 239
ATOM    239  CA  GLU A   2      33.026  30.621  -2.550  0.00  0.00    +0.159 C 
BRANCH 239 241
ATOM    240  C   TYR A   1      33.317  28.177  -1.927  0.00  0.00    +0.234 C 
ATOM    241  N   GLU A   2      33.201  29.512  -1.492  0.00  0.00    -0.302 N 
ATOM    242  H   GLU A   2      32.653  29.612  -0.639  0.00  0.00    +0.150 HD
ATOM    243  O   TYR A   1      33.555  28.033  -3.132  0.00  0.00    -0.274 OA
BRANCH 240 244
ATOM    244  CA  TYR A   1      33.256  26.901  -0.916  0.00  0.00    +0.162 C 
BRANCH 244 245
ATOM    245  N   TYR A   1      32.223  25.719  -1.016  0.00  0.00    -0.302 N 
ATOM    246  H   TYR A   1      31.371  25.885  -1.523  0.00  0.00    +0.150 HD
ATOM    247  C   TYR A   1      32.335  24.479  -0.411  0.00  0.00    +0.234 C 
ATOM    248  O   TYR A   1      33.106  24.416   0.546  0.00  0.00    -0.274 OA
BRANCH 247 249
ATOM    249  CA  TYR A   1      31.360  23.163  -0.861  0.00  0.00    +0.159 C 
BRANCH 249 250
ATOM    250  N   TYR A   1      30.858  23.082  -2.270  0.00  0.00    -0.302 N 
ATOM    251  H   TYR A   1      31.192  23.941  -2.606  0.00  0.00    +0.150 HD
ATOM    252  C   TYR A   1      29.767  22.372  -2.836  0.00  0.00    +0.236 C 
ATOM    253  O   TYR A   1      28.953  21.846  -2.068  0.00  0.00    -0.274 OA
BRANCH 252 254
ATOM    254  CA  TYR A   1      29.557  22.068  -4.586  0.00  0.00    +0.184 C 
BRANCH 254 255
ATOM    255  N   TYR A   1      29.706  23.230  -5.560  0.00  0.00    -0.301 N 
ATOM    256  H   TYR A   1      30.000  23.793  -4.822  0.00  0.00    +0.150 HD
ATOM    257  C   TYR A   1      29.956  23.963  -6.704  0.00  0.00    +0.234 C 
ATOM    258  O   TYR A   1      30.469  23.427  -7.691  0.00  0.00    -0.274 OA
BRANCH 257 259
ATOM    259  CA  TYR A   1      29.715  25.817  -6.706  0.00  0.00    +0.165 C 
BRANCH 259 260
ATOM    260  N   TYR A   1      29.823  25.890  -8.395  0.00  0.00    -0.302 N 
ATOM    261  H   TYR A   1      30.456  25.153  -8.707  0.00  0.00    +0.150 HD
ATOM    262  C   TYR A   1      28.907  26.236  -9.346  0.00  0.00    +0.234 C 
ATOM    263  O   TYR A   1      27.902  26.868  -9.067  0.00  0.00    -0.274 OA
BRANCH 262 264
ATOM    264  CA  TYR A   1      28.793  26.284 -10.812  0.00  0.00    +0.162 C 
BRANCH 264 265
ATOM    265  N   TYR A   1      29.851  25.596 -11.366  0.00  0.00    -0.302 N 
ATOM    266  H   TYR A   1      30.673  25.388 -10.818  0.00  0.00    +0.150 HD
ATOM    267  C   TYR A   1      30.126  25.998 -12.635  0.00  0.00    +0.234 C 
ATOM    268  O   TYR A   1      29.495  26.890 -13.191  0.00  0.00    -0.274 OA
BRANCH 267 269
ATOM    269  CA  TYR A   1      31.273  25.232 -13.238  0.00  0.00    +0.159 C 
BRANCH 269 270
ATOM    270  N   TYR A   1      31.824  24.264 -12.265  0.00  0.00    -0.302 N 
ATOM    271  H   TYR A   1      32.713  24.483 -11.819  0.00  0.00    +0.150 HD
ATOM    272  C   TYR A   1      31.095  23.190 -11.770  0.00  0.00    +0.236 C 
ATOM    273  O   TYR A   1      29.928  22.971 -12.092  0.00  0.00    -0.274 OA
BRANCH 272 274
ATOM    274  CA  TYR A   1      31.793  22.396 -10.656  0.00  0.00    +0.184 C 
BRANCH 274 275
ATOM    275  N   TYR A   1      30.902  21.328 -10.233  0.00  0.00    -0.300 N 
ATOM    276  H   TYR A   1      30.302  21.509  -9.422  0.00  0.00    +0.150 HD
ATOM    277  C   TYR A   1      30.584  20.272 -11.059  0.00  0.00    +0.237 C 
ATOM    278  O   TYR A   1      31.059  20.153 -12.192  0.00  0.00    -0.274 OA
BRANCH 277 279
ATOM    279  CA  TYR A   1      29.618  19.201 -10.510  0.00  0.00    +0.187 C 
BRANCH 279 280
ATOM    280  N   TYR A   1      30.134  17.899 -10.987  0.00  0.00    -0.300 N 
ATOM    281  H   TYR A   1      30.920  17.953 -11.629  0.00  0.00    +0.150 HD
ATOM    282  C   TYR A   1      29.377  16.750 -10.959  0.00  0.00    +0.234 C 
ATOM    283  O   TYR A   1      28.260  16.741 -10.437  0.00  0.00    -0.274 OA
BRANCH 282 284
ATOM    284  CA  TYR A   1      30.037  15.448 -11.516  0.00  0.00    +0.163 C 
BRANCH 284 285
ATOM    285  N   TYR A   1      29.182  14.315 -11.140  0.00  0.00    -0.304 N 
ATOM    286  H   TYR A   1      28.202  14.529 -10.978  0.00  0.00    +0.149 HD
ATOM    287  C   UNK A   0      29.624  13.019 -11.138  0.00  0.00    +0.211 C 
ATOM    288  C   UNK A   0      28.616  12.004 -10.673  0.00  0.00    +0.109 C 
ATOM    289  O   UNK A   0      30.754  12.694 -11.492  0.00  0.00    -0.276 OA
ENDBRANCH 284 285
BRANCH 284 290
ATOM    290  CB  TYR A   1      30.403  15.447 -13.019  0.00  0.00    +0.067 C 
BRANCH 290 291
ATOM    291  CG  TYR A   1      29.230  15.384 -13.974  0.00  0.00    -0.045 A 
ATOM    292  CD2 TYR A   1      28.640  14.150 -14.301  0.00  0.00    +0.007 A 
ATOM    293  CE2 TYR A   1      27.472  14.099 -15.063  0.00  0.00    +0.045 A 
ATOM    294  CZ  TYR A   1      26.917  15.276 -15.543  0.00  0.00    +0.117 A 
ATOM    295  CE1 TYR A   1      27.542  16.499 -15.318  0.00  0.00    +0.045 A 
ATOM    296  CD1 TYR A   1      28.696  16.552 -14.530  0.00  0.00    +0.007 A 
BRANCH 294 297
ATOM    297  OH  TYR A   1      25.745  15.191 -16.235  0.00  0.00    -0.507 OA
ATOM    298  HH  TYR A   1      25.437  16.092 -16.428  0.00  0.00    +0.292 HD
ENDBRANCH 294 297
ENDBRANCH 290 291
ENDBRANCH 284 290
ENDBRANCH 282 284
ENDBRANCH 279 280
BRANCH 279 299
ATOM    299  CB  TYR A   1      29.399  19.299  -8.981  0.00  0.00    +0.141 C 
ATOM    300  CG2 TYR A   1      30.662  19.027  -8.165  0.00  0.00    +0.040 C 
BRANCH 299 301
ATOM    301  OG1 TYR A   1      28.902  20.611  -8.637  0.00  0.00    -0.390 OA
ATOM    302  HG1 TYR A   1      28.064  20.739  -9.123  0.00  0.00    +0.210 HD
ENDBRANCH 299 301
ENDBRANCH 279 299
ENDBRANCH 277 279
ENDBRANCH 274 275
BRANCH 274 303
ATOM    303  CB  TYR A   1      33.171  21.892 -11.076  0.00  0.00    +0.187 C 
BRANCH 303 304
ATOM    304  O   TYR A   1      34.033  22.973 -11.434  0.00  0.00    -0.393 OA
ATOM    305  H   TYR A   1      34.048  22.975 -12.412  0.00  0.00    +0.209 HD
ENDBRANCH 303 304
ENDBRANCH 274 303
ENDBRANCH 272 274
ENDBRANCH 269 270
BRANCH 269 306
ATOM    306  CB  TYR A   1      30.768  24.607 -14.537  0.00  0.00    +0.034 C 
BRANCH 306 307
ATOM    307  CG  TYR A   1      30.078  25.599 -15.503  0.00  0.00    -0.015 C 
ATOM    308  CD2 TYR A   1      29.532  24.876 -16.719  0.00  0.00    +0.007 C 
ATOM    309  CD1 TYR A   1      30.977  26.782 -15.861  0.00  0.00    +0.007 C 
ENDBRANCH 306 307
ENDBRANCH 269 306
ENDBRANCH 267 269
ENDBRANCH 264 265
BRANCH 264 310
ATOM    310  CB  TYR A   1      27.275  25.944 -11.210  0.00  0.00    +0.015 C 
ATOM    311  CG2 TYR A   1      27.134  24.473 -10.781  0.00  0.00    +0.010 C 
BRANCH 310 312
ATOM    312  CG1 TYR A   1      26.021  26.817 -10.613  0.00  0.00    +0.002 C 
ATOM    313  CD1 TYR A   1      25.673  28.268 -10.995  0.00  0.00    +0.004 C 
ENDBRANCH 310 312
ENDBRANCH 264 310
ENDBRANCH 262 264
ENDBRANCH 259 260
BRANCH 259 314
ATOM    314  CB  TYR A   1      28.673  26.977  -5.413  0.00  0.00    +0.088 C 
BRANCH 314 315
ATOM    315  CG  TYR A   1      26.857  26.947  -4.973  0.00  0.00    +0.061 A 
ATOM    316  ND1 TYR A   1      25.856  26.381  -5.810  0.00  0.00    -0.241 NA
ATOM    317  CE1 TYR A   1      25.000  25.851  -5.084  0.00  0.00    +0.196 A 
ATOM    318  NE2 TYR A   1      24.764  26.859  -4.147  0.00  0.00    -0.351 N 
ATOM    319  HE2 TYR A   1      23.829  27.053  -3.921  0.00  0.00    +0.166 HD
ATOM    320  CD2 TYR A   1      25.979  27.520  -4.065  0.00  0.00    +0.107 A 
ENDBRANCH 314 315
ENDBRANCH 259 314
ENDBRANCH 257 259
ENDBRANCH 254 255
BRANCH 254 321
ATOM    321  CB  TYR A   1      30.468  21.064  -5.193  0.00  0.00    +0.187 C 
BRANCH 321 322
ATOM    322  O   TYR A   1      30.458  19.809  -4.576  0.00  0.00    -0.393 OA
ATOM    323  H   TYR A   1      31.219  19.796  -3.972  0.00  0.00    +0.209 HD
ENDBRANCH 321 322
ENDBRANCH 254 321
ENDBRANCH 252 254
ENDBRANCH 249 250
BRANCH 249 324
ATOM    324  CB  TYR A   1      32.153  21.856  -0.686  0.00  0.00    +0.034 C 
BRANCH 324 325
ATOM    325  CG  TYR A   1      32.835  21.644   0.667  0.00  0.00    -0.015 C 
ATOM    326  CD2 TYR A   1      33.468  20.266   0.732  0.00  0.00    +0.007 C 
ATOM    327  CD1 TYR A   1      31.916  21.877   1.855  0.00  0.00    +0.007 C 
ENDBRANCH 324 325
ENDBRANCH 249 324
ENDBRANCH 247 249
ENDBRANCH 244 245
BRANCH 244 328
ATOM    328  CB  TYR A   1      34.795  26.488  -1.033  0.00  0.00    +0.015 C 
ATOM    329  CG2 TYR A   1      35.398  26.020  -2.410  0.00  0.00    +0.010 C 
BRANCH 328 331
ATOM    330  CD1 TYR A   1      37.011  27.670  -0.452  0.00  0.00    +0.004 C 
ATOM    331  CG1 TYR A   1      35.531  27.777  -0.587  0.00  0.00    +0.002 C 
ENDBRANCH 328 331
ENDBRANCH 244 328
ENDBRANCH 240 244
ENDBRANCH 239 241
BRANCH 239 332
ATOM    332  CB  GLU A   2      33.237  32.043  -2.011  0.00  0.00    +0.043 C 
BRANCH 332 333
ATOM    333  CG  GLU A   2      32.631  33.144  -2.903  0.00  0.00    +0.123 C 
BRANCH 333 334
ATOM    334  CD  GLU A   2      31.122  33.267  -2.767  0.00  0.00    +0.305 C 
ATOM    335  OE1 GLU A   2      30.378  32.533  -3.408  0.00  0.00    -0.251 OA
BRANCH 334 336
ATOM    336  OE2 GLU A   2      30.696  34.158  -1.909  0.00  0.00    -0.481 OA
ATOM    337  HE2 GLU A   2      31.404  34.647  -1.461  0.00  0.00    +0.295 HD
ENDBRANCH 334 336
ENDBRANCH 333 334
ENDBRANCH 332 333
ENDBRANCH 239 332
ENDBRANCH 235 239
ENDBRANCH 234 236
BRANCH 234 338
ATOM    338  CB  GLU A   3      34.349  29.287  -6.854  0.00  0.00    +0.043 C 
BRANCH 338 339
ATOM    339  CG  GLU A   3      34.687  29.371  -8.333  0.00  0.00    +0.123 C 
BRANCH 339 340
ATOM    340  CD  GLU A   3      35.919  28.615  -8.582  0.00  0.00    +0.305 C 
ATOM    341  OE1 GLU A   3      35.945  27.566  -9.208  0.00  0.00    -0.251 OA
BRANCH 340 342
ATOM    342  OE2 GLU A   3      37.002  29.185  -8.012  0.00  0.00    -0.481 OA
ATOM    343  HE2 GLU A   3      36.775  29.982  -7.486  0.00  0.00    +0.295 HD
ENDBRANCH 340 342
ENDBRANCH 339 340
ENDBRANCH 338 339
ENDBRANCH 234 338
ENDBRANCH 230 234
ENDBRANCH 229 231
BRANCH 229 344
ATOM    344  CB  SER A   4      29.474  28.899  -9.521  0.00  0.00    +0.187 C 
BRANCH 344 345
ATOM    345  OG  SER A   4      28.259  29.020 -10.173  0.00  0.00    -0.393 OA
ATOM    346  H   SER A   4      27.680  28.381  -9.696  0.00  0.00    +0.209 HD
ENDBRANCH 344 345
ENDBRANCH 229 344
ENDBRANCH 225 229
ENDBRANCH 224 226
BRANCH 224 347
ATOM    347  CB  GLN A   5      27.015  23.698  -6.989  0.00  0.00    +0.041 C 
BRANCH 347 348
ATOM    348  CG  GLN A   5      25.813  24.080  -7.941  0.00  0.00    +0.098 C 
BRANCH 348 349
ATOM    349  CD  GLN A   5      24.382  24.478  -7.563  0.00  0.00    +0.211 C 
ATOM    350  NE2 GLN A   5      23.898  25.619  -8.158  0.00  0.00    -0.329 N 
ATOM    351 HE21 GLN A   5      23.085  26.074  -7.762  0.00  0.00    +0.145 HD
ATOM    352 HE22 GLN A   5      24.445  26.211  -8.761  0.00  0.00    +0.145 HD
ATOM    353  OE1 GLN A   5      23.648  23.807  -6.845  0.00  0.00    -0.276 OA
ENDBRANCH 348 349
ENDBRANCH 347 348
ENDBRANCH 224 347
ENDBRANCH 220 224
ENDBRANCH 219 221
BRANCH 219 354
ATOM    354  CB  ASN A   6      32.642  24.230  -5.500  0.00  0.00    +0.127 C 
BRANCH 354 355
ATOM    355  CG  ASN A   6      33.367  25.202  -6.356  0.00  0.00    +0.213 C 
ATOM    356  ND2 ASN A   6      34.566  24.761  -6.828  0.00  0.00    -0.329 N 
ATOM    357 HD21 ASN A   6      35.105  25.359  -7.443  0.00  0.00    +0.145 HD
ATOM    358 HD22 ASN A   6      34.920  23.821  -6.683  0.00  0.00    +0.145 HD
ATOM    359  OD1 ASN A   6      32.883  26.292  -6.664  0.00  0.00    -0.276 OA
ENDBRANCH 354 355
ENDBRANCH 219 354
ENDBRANCH 215 219
ENDBRANCH 214 216
BRANCH 214 360
ATOM    360  CB  GLN A   7      30.114  29.454  -3.897  0.00  0.00    +0.041 C 
BRANCH 360 361
ATOM    361  CG  GLN A   7      30.992  29.717  -5.077  0.00  0.00    +0.098 C 
BRANCH 361 362
ATOM    362  CD  GLN A   7      30.628  31.173  -6.038  0.00  0.00    +0.211 C 
ATOM    363  NE2 GLN A   7      31.249  31.746  -7.092  0.00  0.00    -0.329 N 
ATOM    364 HE21 GLN A   7      30.834  32.606  -7.506  0.00  0.00    +0.145 HD
ATOM    365 HE22 GLN A   7      31.667  31.350  -7.911  0.00  0.00    +0.145 HD
ATOM    366  OE1 GLN A   7      29.464  31.710  -5.763  0.00  0.00    -0.276 OA
ENDBRANCH 361 362
ENDBRANCH 360 361
ENDBRANCH 214 360
ENDBRANCH 210 214
ENDBRANCH 209 211
BRANCH 209 367
ATOM    367  CB  GLN A   8      27.687  28.095  -0.191  0.00  0.00    +0.041 C 
BRANCH 367 368
ATOM    368  CG  GLN A   8      26.791  28.180   1.028  0.00  0.00    +0.098 C 
BRANCH 368 369
ATOM    369  CD  GLN A   8      25.554  28.969   0.777  0.00  0.00    +0.211 C 
ATOM    370  NE2 GLN A   8      25.729  30.269   0.421  0.00  0.00    -0.329 N 
ATOM    371 HE21 GLN A   8      24.917  30.826   0.275  0.00  0.00    +0.145 HD
ATOM    372 HE22 GLN A   8      26.649  30.678   0.416  0.00  0.00    +0.145 HD
ATOM    373  OE1 GLN A   8      24.413  28.496   0.896  0.00  0.00    -0.276 OA
ENDBRANCH 368 369
ENDBRANCH 367 368
ENDBRANCH 209 367
ENDBRANCH 205 209
ENDBRANCH 204 206
BRANCH 204 374
ATOM    374  CB  GLU A   9      28.523  23.109   1.771  0.00  0.00    +0.043 C 
BRANCH 374 375
ATOM    375  CG  GLU A   9      27.988  21.760   2.230  0.00  0.00    +0.123 C 
BRANCH 375 376
ATOM    376  CD  GLU A   9      28.770  20.589   1.673  0.00  0.00    +0.305 C 
ATOM    377  OE1 GLU A   9      29.477  20.599   0.682  0.00  0.00    -0.251 OA
BRANCH 376 378
ATOM    378  OE2 GLU A   9      28.607  19.470   2.418  0.00  0.00    -0.481 OA
ATOM    379  HE2 GLU A   9      27.920  19.572   3.102  0.00  0.00    +0.295 HD
ENDBRANCH 376 378
ENDBRANCH 375 376
ENDBRANCH 374 375
ENDBRANCH 204 374
ENDBRANCH 200 204
ENDBRANCH 199 201
BRANCH 199 380
ATOM    380  CB  LYS A  10      28.630  25.528   5.746  0.00  0.00    +0.032 C 
BRANCH 380 381
ATOM    381  CG  LYS A  10      28.653  25.616   7.196  0.00  0.00    +0.003 C 
BRANCH 381 382
ATOM    382  CD  LYS A  10      29.977  25.113   7.530  0.00  0.00    +0.015 C 
BRANCH 382 383
ATOM    383  CE  LYS A  10      30.030  25.760   8.814  0.00  0.00    +0.077 C 
BRANCH 383 384
ATOM    384  NZ  LYS A  10      31.375  26.367   8.976  0.00  0.00    -0.330 NA
ATOM    385  HZ1 LYS A  10      31.858  26.006   9.816  0.00  0.00    +0.118 HD
ATOM    386  HZ2 LYS A  10      31.989  25.751   8.411  0.00  0.00    +0.118 HD
ENDBRANCH 383 384
ENDBRANCH 382 383
ENDBRANCH 381 382
ENDBRANCH 380 381
ENDBRANCH 199 380
ENDBRANCH 195 199
ENDBRANCH   1 196
BRANCH   1 387
ATOM    387  CB  ASN A  11      25.653  29.685   7.801  0.00  0.00    +0.127 C 
BRANCH 387 388
ATOM    388  CG  ASN A  11      25.000  28.825   8.872  0.00  0.00    +0.213 C 
ATOM    389  ND2 ASN A  11      23.670  29.069   9.057  0.00  0.00    -0.329 N 
ATOM    390 HD21 ASN A  11      23.203  28.462   9.716  0.00  0.00    +0.145 HD
ATOM    391 HD22 ASN A  11      23.118  29.446   8.297  0.00  0.00    +0.145 HD
ATOM    392  OD1 ASN A  11      25.558  27.944   9.514  0.00  0.00    -0.276 OA
ENDBRANCH 387 388
ENDBRANCH   1 387
TORSDOF 166
