REMARK  Name = 
REMARK  10 active torsions:
REMARK  status: ('A' for Active; 'I' for Inactive)
REMARK    1  A    between atoms: C_1  and  C_2
REMARK    2  A    between atoms: C_4  and  C_19
REMARK    3  A    between atoms: C_6  and  C_18
REMARK    4  A    between atoms: C_7  and  O_8
REMARK    5  A    between atoms: O_8  and  C_9
REMARK    6  A    between atoms: C_9  and  C_10
REMARK    7  A    between atoms: C_10  and  C_11
REMARK    8  A    between atoms: C_11  and  C_12
REMARK    9  A    between atoms: C_14  and  C_17
REMARK   10  A    between atoms: C_22  and  C_24
REMARK                            x       y       z     vdW  Elec       q    Type
REMARK                         _______ _______ _______ _____ _____    ______ ____
ROOT
ATOM      1  C   UNL     1       0.915   0.346   0.142  0.00  0.00    +0.047 C 
ATOM      2  C   UNL     1       2.407   0.168   0.072  0.00  0.00    -0.008 A 
ATOM      3  C   UNL     1       3.073  -1.075   0.061  0.00  0.00    +0.126 A 
ATOM      4  C   UNL     1       4.486  -1.112   0.079  0.00  0.00    -0.008 A 
ATOM      5  C   UNL     1       5.235  -2.419   0.097  0.00  0.00    +0.047 C 
ATOM      6  C   UNL     1       5.220   0.084   0.077  0.00  0.00    +0.018 A 
ATOM      7  C   UNL     1       4.580   1.324   0.061  0.00  0.00    +0.023 A 
ATOM      8  C   UNL     1       3.180   1.351   0.057  0.00  0.00    +0.018 A 
ENDROOT
BRANCH   7   9
ATOM      9  C   UNL     1       5.368   2.552   0.061  0.00  0.00    +0.202 A 
ATOM     10  N   UNL     1       6.747   2.529   0.054  0.00  0.00    -0.184 NA
ATOM     11  C   UNL     1       7.062   3.810   0.051  0.00  0.00    +0.332 A 
ATOM     12  O   UNL     1       5.966   4.623   0.057  0.00  0.00    -0.328 OA
ATOM     13  N   UNL     1       4.850   3.790   0.061  0.00  0.00    -0.056 NA
BRANCH  11  14
ATOM     14  C   UNL     1       8.385   4.483   0.035  0.00  0.00    +0.472 C 
ATOM     15  F   UNL     1       9.116   4.146  -1.061  0.00  0.00    -0.162 F 
ATOM     16  F   UNL     1       9.140   4.157   1.119  0.00  0.00    -0.162 F 
ATOM     17  F   UNL     1       8.291   5.841   0.030  0.00  0.00    -0.162 F 
ENDBRANCH  11  14
ENDBRANCH   7   9
BRANCH   3  18
ATOM     18  O   UNL     1       2.492  -2.318   0.107  0.00  0.00    -0.491 OA
BRANCH  18  19
ATOM     19  C   UNL     1       1.260  -2.502  -0.580  0.00  0.00    +0.229 C 
BRANCH  19  20
ATOM     20  C   UNL     1       1.157  -3.943  -1.068  0.00  0.00    +0.049 C 
BRANCH  20  21
ATOM     21  C   UNL     1      -0.195  -4.170  -1.740  0.00  0.00    +0.080 C 
BRANCH  21  22
ATOM     22  C   UNL     1      -0.294  -5.521  -2.330  0.00  0.00    +0.138 A 
ATOM     23  O   UNL     1      -0.802  -6.501  -1.537  0.00  0.00    -0.359 OA
ATOM     24  N   UNL     1      -0.823  -7.694  -2.239  0.00  0.00    -0.083 NA
ATOM     25  C   UNL     1      -0.323  -7.412  -3.449  0.00  0.00    +0.081 A 
ATOM     26  C   UNL     1      -0.186  -8.473  -4.468  0.00  0.00    +0.069 C 
ATOM     27  C   UNL     1       0.020  -6.047  -3.557  0.00  0.00    +0.070 A 
ENDBRANCH  21  22
ENDBRANCH  20  21
ENDBRANCH  19  20
ENDBRANCH  18  19
ENDBRANCH   3  18
TORSDOF 7
