REMARK  Name = 
REMARK  1 active torsions:
REMARK  status: ('A' for Active; 'I' for Inactive)
REMARK    1  A    between atoms: C_1  and  P_4
REMARK                            x       y       z     vdW  Elec       q    Type
REMARK                         _______ _______ _______ _____ _____    ______ ____
ROOT
ATOM      1  P   UNL     1       2.807   0.096   0.019  0.00  0.00    +0.153 P 
ATOM      2  O   UNL     1       4.537   0.096   0.019  0.00  0.00    -0.353 OA
ATOM      3  O   UNL     1       2.707  -0.286  -1.486  0.00  0.00    -0.353 OA
ATOM      4  O   UNL     1       2.773  -1.204   0.875  0.00  0.00    -0.455 OA
ENDROOT
BRANCH   1   5
ATOM      5  C   UNL     1       0.977   0.096   0.019  0.00  0.00    +0.102 C 
ATOM      6  O   UNL     1       0.327   1.140  -0.370  0.00  0.00    -0.542 OA
ATOM      7  O   UNL     1       0.261  -0.868   0.531  0.00  0.00    -0.542 OA
ENDBRANCH   1   5
TORSDOF 1
REMARK  Name = 
REMARK  1 active torsions:
REMARK  status: ('A' for Active; 'I' for Inactive)
REMARK    1  A    between atoms: C_1  and  P_4
REMARK                            x       y       z     vdW  Elec       q    Type
REMARK                         _______ _______ _______ _____ _____    ______ ____
ROOT
ATOM      1  O   HOH     1       1.780   2.135  -2.319  0.00  0.00    -0.410 OA
ATOM      2  H   HOH     0       1.081   1.903  -1.652  0.00  0.00    +0.205 HD
ATOM      3  H   HOH     0       2.342   1.314  -2.207  0.00  0.00    +0.205 HD
ENDROOT
TORSDOF 0
REMARK  Name = 
REMARK  1 active torsions:
REMARK  status: ('A' for Active; 'I' for Inactive)
REMARK    1  A    between atoms: C_1  and  P_4
REMARK                            x       y       z     vdW  Elec       q    Type
REMARK                         _______ _______ _______ _____ _____    ______ ____
ROOT
ATOM      1  O   HOH     1       1.094  -2.319  -1.867  0.00  0.00    -0.410 OA
ATOM      2  H   HOH     0       0.829  -2.204  -0.931  0.00  0.00    +0.205 HD
ATOM      3  H   HOH     0       1.764  -1.580  -1.908  0.00  0.00    +0.205 HD
ENDROOT
TORSDOF 0
REMARK  Name = 
REMARK  1 active torsions:
REMARK  status: ('A' for Active; 'I' for Inactive)
REMARK    1  A    between atoms: C_1  and  P_4
REMARK                            x       y       z     vdW  Elec       q    Type
REMARK                         _______ _______ _______ _____ _____    ______ ____
ROOT
ATOM      1  O   HOH     1      -1.755  -0.140  -2.053  0.00  0.00    -0.410 OA
ATOM      2  H   HOH     0      -1.278  -0.952  -2.344  0.00  0.00    +0.205 HD
ATOM      3  H   HOH     0      -1.268   0.477  -2.658  0.00  0.00    +0.205 HD
ENDROOT
TORSDOF 0
REMARK  Name = 
REMARK  1 active torsions:
REMARK  status: ('A' for Active; 'I' for Inactive)
REMARK    1  A    between atoms: C_1  and  P_4
REMARK                            x       y       z     vdW  Elec       q    Type
REMARK                         _______ _______ _______ _____ _____    ______ ____
ROOT
ATOM      1  O   HOH     1       2.481   3.428   0.208  0.00  0.00    -0.410 OA
ATOM      2  H   HOH     0       2.152   3.388  -0.720  0.00  0.00    +0.205 HD
ATOM      3  H   HOH     0       3.419   3.203   0.071  0.00  0.00    +0.205 HD
ENDROOT
TORSDOF 0
REMARK  Name = 
REMARK  1 active torsions:
REMARK  status: ('A' for Active; 'I' for Inactive)
REMARK    1  A    between atoms: C_1  and  P_4
REMARK                            x       y       z     vdW  Elec       q    Type
REMARK                         _______ _______ _______ _____ _____    ______ ____
ROOT
ATOM      1  O   HOH     1       0.124   0.586  -3.818  0.00  0.00    -0.410 OA
ATOM      2  H   HOH     0       0.814  -0.108  -3.812  0.00  0.00    +0.205 HD
ATOM      3  H   HOH     0       0.688   1.374  -3.642  0.00  0.00    +0.205 HD
ENDROOT
TORSDOF 0
REMARK  Name = 
REMARK  1 active torsions:
REMARK  status: ('A' for Active; 'I' for Inactive)
REMARK    1  A    between atoms: C_1  and  P_4
REMARK                            x       y       z     vdW  Elec       q    Type
REMARK                         _______ _______ _______ _____ _____    ______ ____
ROOT
ATOM      1  O   HOH     1       1.023   0.990   2.833  0.00  0.00    -0.410 OA
ATOM      2  H   HOH     0       0.561   1.611   2.240  0.00  0.00    +0.205 HD
ATOM      3  H   HOH     0       1.839   1.518   3.005  0.00  0.00    +0.205 HD
ENDROOT
TORSDOF 0
REMARK  Name = 
REMARK  1 active torsions:
REMARK  status: ('A' for Active; 'I' for Inactive)
REMARK    1  A    between atoms: C_1  and  P_4
REMARK                            x       y       z     vdW  Elec       q    Type
REMARK                         _______ _______ _______ _____ _____    ______ ____
ROOT
ATOM      1 NA   UNL     1       4.385  -1.638  -0.827  0.00  0.00    +0.000 Na
ENDROOT
TORSDOF 0
REMARK  Name = 
REMARK  1 active torsions:
REMARK  status: ('A' for Active; 'I' for Inactive)
REMARK    1  A    between atoms: C_1  and  P_4
REMARK                            x       y       z     vdW  Elec       q    Type
REMARK                         _______ _______ _______ _____ _____    ______ ____
ROOT
ATOM      1 NA   UNL     1      -1.604   0.315   0.054  0.00  0.00    +0.000 Na
ENDROOT
TORSDOF 0
REMARK  Name = 
REMARK  1 active torsions:
REMARK  status: ('A' for Active; 'I' for Inactive)
REMARK    1  A    between atoms: C_1  and  P_4
REMARK                            x       y       z     vdW  Elec       q    Type
REMARK                         _______ _______ _______ _____ _____    ______ ____
ROOT
ATOM      1 NA   UNL     1       1.473  -1.447   2.320  0.00  0.00    +0.000 Na
ENDROOT
TORSDOF 0
