REMARK  Name = 
REMARK  8 active torsions:
REMARK  status: ('A' for Active; 'I' for Inactive)
REMARK    1  A    between atoms: C_1  and  N_2
REMARK    2  A    between atoms: N_2  and  C_3
REMARK    3  A    between atoms: N_2  and  C_4
REMARK    4  A    between atoms: C_4  and  C_5
REMARK    5  A    between atoms: C_5  and  O_6
REMARK    6  A    between atoms: O_6  and  C_7
REMARK    7  A    between atoms: C_7  and  C_8
REMARK    8  A    between atoms: N_10  and  C_11
REMARK                            x       y       z     vdW  Elec       q    Type
REMARK                         _______ _______ _______ _____ _____    ______ ____
ROOT
ATOM      1  C   UNL     1       6.917   0.771  -4.182  0.00  0.00    +0.239 C 
ATOM      2  N   UNL     1       8.229   0.686  -4.550  0.00  0.00    -0.308 N 
ATOM      3  H   UNL     1       8.909   0.456  -3.809  0.00  0.00    +0.149 HD
ATOM      4  O   UNL     1       6.043   1.036  -4.993  0.00  0.00    -0.273 OA
ENDROOT
BRANCH   2   5
ATOM      5  C   UNL     1       8.741   0.915  -5.902  0.00  0.00    +0.035 C 
ATOM      6  C   UNL     1      10.288   0.736  -5.893  0.00  0.00    +0.029 C 
ATOM      7  C   UNL     1      10.865   0.976  -7.304  0.00  0.00    -0.008 C 
ATOM      8  C   UNL     1      10.529   2.412  -7.758  0.00  0.00    +0.007 C 
ATOM      9  C   UNL     1       8.997   2.598  -7.786  0.00  0.00    -0.008 C 
ATOM     10  C   UNL     1       8.371   1.584  -8.770  0.00  0.00    +0.007 C 
ATOM     11  C   UNL     1       8.712   0.145  -8.319  0.00  0.00    -0.008 C 
ATOM     12  C   UNL     1      10.245  -0.037  -8.289  0.00  0.00    +0.007 C 
ATOM     13  C   UNL     1       8.136  -0.105  -6.908  0.00  0.00    +0.029 C 
ATOM     14  C   UNL     1       8.423   2.365  -6.372  0.00  0.00    +0.029 C 
ENDBRANCH   2   5
BRANCH   1  15
ATOM     15  C   UNL     1       6.542   0.558  -2.747  0.00  0.00    +0.255 C 
BRANCH  15  16
ATOM     16  O   UNL     1       7.232   1.518  -1.978  0.00  0.00    -0.369 OA
BRANCH  16  17
ATOM     17  C   UNL     1       6.888   1.381  -0.620  0.00  0.00    +0.175 C 
BRANCH  17  18
ATOM     18  C   UNL     1       7.623   2.470   0.168  0.00  0.00    +0.112 C 
BRANCH  18  20
ATOM     19  C   UNL     1       8.181   3.436   2.300  0.00  0.00    +0.104 C 
ATOM     20  N   UNL     1       7.393   2.389   1.628  0.00  0.00    -0.306 NA
ATOM     21  C   UNL     1       5.971   2.546   1.983  0.00  0.00    +0.104 C 
ENDBRANCH  18  20
ENDBRANCH  17  18
ENDBRANCH  16  17
ENDBRANCH  15  16
ENDBRANCH   1  15
TORSDOF 6
REMARK  Name = 
REMARK  8 active torsions:
REMARK  status: ('A' for Active; 'I' for Inactive)
REMARK    1  A    between atoms: C_1  and  N_2
REMARK    2  A    between atoms: N_2  and  C_3
REMARK    3  A    between atoms: N_2  and  C_4
REMARK    4  A    between atoms: C_4  and  C_5
REMARK    5  A    between atoms: C_5  and  O_6
REMARK    6  A    between atoms: O_6  and  C_7
REMARK    7  A    between atoms: C_7  and  C_8
REMARK    8  A    between atoms: N_10  and  C_11
REMARK                            x       y       z     vdW  Elec       q    Type
REMARK                         _______ _______ _______ _____ _____    ______ ____
ROOT
ATOM      1 CL   UNL     1       1.256   0.234   3.098  0.00  0.00    -0.145 Cl
ATOM      2  H   UNL     1       1.981   0.701   2.026  0.00  0.00    +0.145 HD
ENDROOT
TORSDOF 0
