REMARK  Name = 
REMARK  11 active torsions:
REMARK  status: ('A' for Active; 'I' for Inactive)
REMARK    1  A    between atoms: C_1  and  C_2
REMARK    2  A    between atoms: N_4  and  C_5
REMARK    3  A    between atoms: C_7  and  N_26
REMARK    4  A    between atoms: C_10  and  C_23
REMARK    5  A    between atoms: C_13  and  C_15
REMARK    6  A    between atoms: C_15  and  C_17
REMARK    7  A    between atoms: C_15  and  O_22
REMARK    8  A    between atoms: C_17  and  C_19
REMARK    9  A    between atoms: C_17  and  O_21
REMARK   10  A    between atoms: C_19  and  O_20
REMARK   11  A    between atoms: C_23  and  O_25
REMARK                            x       y       z     vdW  Elec       q    Type
REMARK                         _______ _______ _______ _____ _____    ______ ____
ROOT
ATOM      1  C   UNL     1       4.588   0.102   1.255  0.00  0.00    +0.145 C 
ATOM      2  C   UNL     1       5.181  -0.844   2.346  0.00  0.00    +0.174 C 
ATOM      3  O   UNL     1       4.948  -0.332   3.685  0.00  0.00    -0.357 OA
ATOM      4  C   UNL     1       5.418   0.998   3.929  0.00  0.00    +0.230 C 
ATOM      5  C   UNL     1       4.885   1.977   2.894  0.00  0.00    +0.089 C 
ATOM      6  C   UNL     1       5.235   1.494   1.489  0.00  0.00    +0.214 C 
ENDROOT
BRANCH   6   7
ATOM      7  N   UNL     1       4.746   2.473   0.513  0.00  0.00    -0.108 NA
ATOM      8  C   UNL     1       5.517   3.432   0.156  0.00  0.00    +0.377 C 
ATOM      9  N   UNL     1       5.049   4.354  -0.707  0.00  0.00    -0.289 N 
ATOM     10  H   UNL     1       5.690   4.707  -1.399  0.00  0.00    +0.255 HD
ATOM     11  H   UNL     1       4.155   4.081  -1.096  0.00  0.00    +0.255 HD
ATOM     12  N   UNL     1       6.774   3.724   0.553  0.00  0.00    -0.289 N 
ATOM     13  H   UNL     1       7.367   4.270  -0.052  0.00  0.00    +0.255 HD
ATOM     14  H   UNL     1       7.273   3.115   1.187  0.00  0.00    +0.255 HD
ENDBRANCH   6   7
BRANCH   1  17
ATOM     15  C   UNL     1       4.465  -1.492  -2.201  0.00  0.00    +0.109 C 
ATOM     16  C   UNL     1       3.962  -1.119  -0.834  0.00  0.00    +0.210 C 
ATOM     17  N   UNL     1       4.843  -0.347  -0.115  0.00  0.00    -0.307 N 
ATOM     18  H   UNL     1       5.725  -0.095  -0.540  0.00  0.00    +0.149 HD
ATOM     19  O   UNL     1       2.859  -1.476  -0.431  0.00  0.00    -0.276 OA
ENDBRANCH   1  17
BRANCH   4  20
ATOM     20  C   UNL     1       6.946   1.071   4.068  0.00  0.00    +0.334 C 
ATOM     21  O   UNL     1       7.635   2.042   3.792  0.00  0.00    -0.248 OA
BRANCH  20  22
ATOM     22  O   UNL     1       7.467  -0.091   4.533  0.00  0.00    -0.479 OA
ATOM     23  H   UNL     1       6.759  -0.757   4.672  0.00  0.00    +0.295 HD
ENDBRANCH  20  22
ENDBRANCH   4  20
BRANCH   2  24
ATOM     24  C   UNL     1       4.672  -2.311   2.332  0.00  0.00    +0.176 C 
BRANCH  24  25
ATOM     25  O   UNL     1       5.114  -2.962   1.140  0.00  0.00    -0.387 OA
ATOM     26  H   UNL     1       4.506  -3.716   0.974  0.00  0.00    +0.210 HD
ENDBRANCH  24  25
BRANCH  24  27
ATOM     27  C   UNL     1       3.150  -2.445   2.617  0.00  0.00    +0.171 C 
BRANCH  27  28
ATOM     28  O   UNL     1       2.808  -1.929   3.909  0.00  0.00    -0.387 OA
ATOM     29  H   UNL     1       3.254  -1.065   4.002  0.00  0.00    +0.210 HD
ENDBRANCH  27  28
BRANCH  27  30
ATOM     30  C   UNL     1       2.688  -3.906   2.563  0.00  0.00    +0.189 C 
BRANCH  30  31
ATOM     31  O   UNL     1       2.915  -4.473   1.275  0.00  0.00    -0.392 OA
ATOM     32  H   UNL     1       2.275  -4.048   0.669  0.00  0.00    +0.210 HD
ENDBRANCH  30  31
ENDBRANCH  27  30
ENDBRANCH  24  27
ENDBRANCH   2  24
TORSDOF 10
