REMARK  Name = 
REMARK  11 active torsions:
REMARK  status: ('A' for Active; 'I' for Inactive)
REMARK    1  A    between atoms: C_1  and  C_2
REMARK    2  A    between atoms: N_4  and  C_5
REMARK    3  A    between atoms: C_7  and  N_26
REMARK    4  A    between atoms: C_10  and  C_23
REMARK    5  A    between atoms: C_13  and  C_15
REMARK    6  A    between atoms: C_15  and  C_17
REMARK    7  A    between atoms: C_15  and  O_22
REMARK    8  A    between atoms: C_17  and  C_19
REMARK    9  A    between atoms: C_17  and  O_21
REMARK   10  A    between atoms: C_19  and  O_20
REMARK   11  A    between atoms: C_23  and  O_25
REMARK                            x       y       z     vdW  Elec       q    Type
REMARK                         _______ _______ _______ _____ _____    ______ ____
ROOT
ATOM      1  C   UNL     1       4.798   0.697  -1.081  0.00  0.00    +0.145 C 
ATOM      2  C   UNL     1       5.105  -0.831  -0.938  0.00  0.00    +0.174 C 
ATOM      3  O   UNL     1       4.923  -1.361   0.391  0.00  0.00    -0.357 OA
ATOM      4  C   UNL     1       5.429  -0.590   1.475  0.00  0.00    +0.230 C 
ATOM      5  C   UNL     1       4.893   0.830   1.444  0.00  0.00    +0.089 C 
ATOM      6  C   UNL     1       5.302   1.506   0.145  0.00  0.00    +0.214 C 
ENDROOT
BRANCH   6   7
ATOM      7  N   UNL     1       4.726   2.854   0.085  0.00  0.00    -0.108 NA
ATOM      8  C   UNL     1       5.332   3.861   0.581  0.00  0.00    +0.377 C 
ATOM      9  N   UNL     1       4.780   5.088   0.495  0.00  0.00    -0.289 N 
ATOM     10  H   UNL     1       4.873   5.627   1.345  0.00  0.00    +0.255 HD
ATOM     11  H   UNL     1       3.804   5.014   0.221  0.00  0.00    +0.255 HD
ATOM     12  N   UNL     1       6.511   3.941   1.243  0.00  0.00    -0.289 N 
ATOM     13  H   UNL     1       7.054   4.755   0.983  0.00  0.00    +0.255 HD
ATOM     14  H   UNL     1       7.077   3.102   1.257  0.00  0.00    +0.255 HD
ENDBRANCH   6   7
BRANCH   1  17
ATOM     15  C   UNL     1       5.622   2.110  -4.534  0.00  0.00    +0.109 C 
ATOM     16  C   UNL     1       4.799   1.388  -3.502  0.00  0.00    +0.210 C 
ATOM     17  N   UNL     1       5.442   1.258  -2.291  0.00  0.00    -0.307 N 
ATOM     18  H   UNL     1       6.254   1.846  -2.145  0.00  0.00    +0.149 HD
ATOM     19  O   UNL     1       3.684   0.942  -3.746  0.00  0.00    -0.276 OA
ENDBRANCH   1  17
BRANCH   4  20
ATOM     20  C   UNL     1       6.960  -0.652   1.565  0.00  0.00    +0.334 C 
ATOM     21  O   UNL     1       7.679   0.232   2.009  0.00  0.00    -0.248 OA
BRANCH  20  22
ATOM     22  O   UNL     1       7.448  -1.817   1.071  0.00  0.00    -0.479 OA
ATOM     23  H   UNL     1       6.710  -2.395   0.777  0.00  0.00    +0.295 HD
ENDBRANCH  20  22
ENDBRANCH   4  20
BRANCH   2  24
ATOM     24  C   UNL     1       4.226  -1.679  -1.904  0.00  0.00    +0.176 C 
BRANCH  24  25
ATOM     25  O   UNL     1       2.843  -1.567  -1.531  0.00  0.00    -0.387 OA
ATOM     26  H   UNL     1       2.351  -2.100  -2.185  0.00  0.00    +0.210 HD
ENDBRANCH  24  25
BRANCH  24  27
ATOM     27  C   UNL     1       4.586  -3.180  -1.995  0.00  0.00    +0.171 C 
BRANCH  27  28
ATOM     28  O   UNL     1       3.839  -3.743  -3.102  0.00  0.00    -0.387 OA
ATOM     29  H   UNL     1       4.438  -3.761  -3.871  0.00  0.00    +0.210 HD
ENDBRANCH  27  28
BRANCH  27  30
ATOM     30  C   UNL     1       4.209  -4.017  -0.767  0.00  0.00    +0.189 C 
BRANCH  30  31
ATOM     31  O   UNL     1       4.555  -5.388  -0.995  0.00  0.00    -0.392 OA
ATOM     32  H   UNL     1       3.913  -5.706  -1.658  0.00  0.00    +0.210 HD
ENDBRANCH  30  31
ENDBRANCH  27  30
ENDBRANCH  24  27
ENDBRANCH   2  24
TORSDOF 10
