REMARK  Name = 
REMARK  4 active torsions:
REMARK  status: ('A' for Active; 'I' for Inactive)
REMARK    1  A    between atoms: C3*_2  and  O3*_20
REMARK    2  A    between atoms: C4*_4  and  C5*_18
REMARK    3  A    between atoms: C1*_7  and  N_9
REMARK    4  A    between atoms: C5*_18  and  O5*_19
REMARK                            x       y       z     vdW  Elec       q    Type
REMARK                         _______ _______ _______ _____ _____    ______ ____
ROOT
ATOM      1  C2* UNL     1      -0.793  -1.015  -0.149  0.00  0.00    +0.088 C 
ATOM      2  C1* UNL     1       0.704  -0.994   0.159  0.00  0.00    +0.226 C 
ATOM      3  O4* UNL     1       1.128   0.385   0.163  0.00  0.00    -0.348 OA
ATOM      4  C4* UNL     1      -0.005   1.196  -0.185  0.00  0.00    +0.175 C 
ATOM      5  C3* UNL     1      -1.222   0.381   0.236  0.00  0.00    +0.150 C 
ENDROOT
BRANCH   2   6
ATOM      6  N   UNL     1       1.043  -1.629   1.432  0.00  0.00    -0.273 N 
ATOM      7  C   UNL     1       1.264  -3.000   1.411  0.00  0.00    +0.331 A 
ATOM      8  O   UNL     1       1.165  -3.696   0.404  0.00  0.00    -0.246 OA
ATOM      9  N   UNL     1       1.607  -3.564   2.609  0.00  0.00    -0.274 N 
ATOM     10  H   UNL     1       1.811  -4.551   2.606  0.00  0.00    +0.173 HD
ATOM     11  C   UNL     1       1.750  -2.912   3.806  0.00  0.00    +0.267 A 
ATOM     12  O   UNL     1       2.119  -3.512   4.810  0.00  0.00    -0.267 OA
ATOM     13  C   UNL     1       1.428  -1.459   3.789  0.00  0.00    +0.094 A 
ATOM     14  I   UNL     1       1.503  -0.374   5.518  0.00  0.00    -0.037 I 
ATOM     15  C   UNL     1       1.101  -0.908   2.613  0.00  0.00    +0.113 A 
ENDBRANCH   2   6
BRANCH   5  16
ATOM     16  O3* UNL     1      -2.423   0.797  -0.388  0.00  0.00    -0.389 OA
ATOM     17  H3* UNL     1      -2.343   0.666  -1.351  0.00  0.00    +0.210 HD
ENDBRANCH   5  16
BRANCH   4  18
ATOM     18  C5* UNL     1       0.065   2.564   0.490  0.00  0.00    +0.190 C 
BRANCH  18  19
ATOM     19  O5* UNL     1      -1.035   3.389   0.129  0.00  0.00    -0.392 OA
ATOM     20  H5* UNL     1      -1.858   2.886   0.287  0.00  0.00    +0.210 HD
ENDBRANCH  18  19
ENDBRANCH   4  18
TORSDOF 4
