REMARK  Name = 
REMARK  4 active torsions:
REMARK  status: ('A' for Active; 'I' for Inactive)
REMARK    1  A    between atoms: C3*_2  and  O3*_20
REMARK    2  A    between atoms: C4*_4  and  C5*_18
REMARK    3  A    between atoms: C1*_7  and  N_9
REMARK    4  A    between atoms: C5*_18  and  O5*_19
REMARK                            x       y       z     vdW  Elec       q    Type
REMARK                         _______ _______ _______ _____ _____    ______ ____
ROOT
ATOM      1  C2* UNL     1      -0.817  -1.018  -0.137  0.00  0.00    +0.088 C 
ATOM      2  C1* UNL     1       0.677  -0.996   0.172  0.00  0.00    +0.226 C 
ATOM      3  O4* UNL     1       1.100   0.385   0.195  0.00  0.00    -0.348 OA
ATOM      4  C4* UNL     1      -0.038   1.197  -0.158  0.00  0.00    +0.175 C 
ATOM      5  C3* UNL     1      -1.258   0.378   0.243  0.00  0.00    +0.150 C 
ENDROOT
BRANCH   2   6
ATOM      6  N   UNL     1       1.022  -1.657   1.430  0.00  0.00    -0.273 N 
ATOM      7  C   UNL     1       1.253  -3.025   1.384  0.00  0.00    +0.331 A 
ATOM      8  O   UNL     1       1.165  -3.704   0.364  0.00  0.00    -0.246 OA
ATOM      9  N   UNL     1       1.598  -3.606   2.576  0.00  0.00    -0.274 N 
ATOM     10  H   UNL     1       1.812  -4.591   2.554  0.00  0.00    +0.173 HD
ATOM     11  C   UNL     1       1.758  -2.969   3.778  0.00  0.00    +0.267 A 
ATOM     12  O   UNL     1       2.158  -3.577   4.765  0.00  0.00    -0.267 OA
ATOM     13  C   UNL     1       1.416  -1.522   3.788  0.00  0.00    +0.094 A 
ATOM     14  I   UNL     1       1.511  -0.456   5.528  0.00  0.00    -0.037 I 
ATOM     15  C   UNL     1       1.066  -0.961   2.624  0.00  0.00    +0.113 A 
ENDBRANCH   2   6
BRANCH   5  16
ATOM     16  O3* UNL     1      -2.445   0.767  -0.428  0.00  0.00    -0.389 OA
ATOM     17  H3* UNL     1      -2.325   0.655  -1.387  0.00  0.00    +0.210 HD
ENDBRANCH   5  16
BRANCH   4  18
ATOM     18  C5* UNL     1       0.051   2.570   0.507  0.00  0.00    +0.190 C 
BRANCH  18  19
ATOM     19  O5* UNL     1       0.161   2.463   1.924  0.00  0.00    -0.392 OA
ATOM     20  H5* UNL     1       1.091   2.236   2.104  0.00  0.00    +0.210 HD
ENDBRANCH  18  19
ENDBRANCH   4  18
TORSDOF 4
