REMARK  Name = 
REMARK  4 active torsions:
REMARK  status: ('A' for Active; 'I' for Inactive)
REMARK    1  A    between atoms: C_1  and  C_2
REMARK    2  A    between atoms: N_4  and  C_10
REMARK    3  A    between atoms: C_14  and  C_17
REMARK    4  A    between atoms: C_17  and  O_18
REMARK                            x       y       z     vdW  Elec       q    Type
REMARK                         _______ _______ _______ _____ _____    ______ ____
ROOT
ATOM      1  C   UNL     1       1.103   0.112  -0.003  0.00  0.00    +0.051 C 
ATOM      2  C   UNL     1       2.592   0.157  -0.099  0.00  0.00    +0.030 A 
ATOM      3  C   UNL     1       3.299  -1.147  -0.100  0.00  0.00    +0.257 A 
ATOM      4  O   UNL     1       2.697  -2.214  -0.082  0.00  0.00    -0.267 OA
ATOM      5  N   UNL     1       4.659  -1.085  -0.136  0.00  0.00    -0.275 N 
ATOM      6  H   UNL     1       5.156  -1.962  -0.160  0.00  0.00    +0.173 HD
ATOM      7  C   UNL     1       5.409   0.047  -0.287  0.00  0.00    +0.332 A 
ATOM      8  O   UNL     1       6.627  -0.042  -0.424  0.00  0.00    -0.246 OA
ATOM      9  N   UNL     1       4.705   1.246  -0.296  0.00  0.00    -0.270 N 
ATOM     10  C   UNL     1       3.327   1.275  -0.195  0.00  0.00    +0.102 A 
ENDROOT
BRANCH   9  11
ATOM     11  C   UNL     1       5.505   2.438  -0.509  0.00  0.00    +0.248 C 
ATOM     12  O   UNL     1       4.870   3.655  -0.045  0.00  0.00    -0.343 OA
ATOM     13  C   UNL     1       5.425   4.707  -0.882  0.00  0.00    +0.169 C 
ATOM     14  C   UNL     1       5.652   4.014  -2.184  0.00  0.00    +0.007 C 
ATOM     15  C   UNL     1       5.700   2.699  -1.965  0.00  0.00    +0.025 C 
BRANCH  13  16
ATOM     16  C   UNL     1       4.493   5.921  -0.938  0.00  0.00    +0.191 C 
BRANCH  16  17
ATOM     17  O   UNL     1       3.208   5.586  -1.460  0.00  0.00    -0.392 OA
ATOM     18  H   UNL     1       2.948   4.763  -1.010  0.00  0.00    +0.210 HD
ENDBRANCH  16  17
ENDBRANCH  13  16
ENDBRANCH   9  11
TORSDOF 3
