REMARK  Name = 
REMARK  4 active torsions:
REMARK  status: ('A' for Active; 'I' for Inactive)
REMARK    1  A    between atoms: C_1  and  C_2
REMARK    2  A    between atoms: N_4  and  C_10
REMARK    3  A    between atoms: C_14  and  C_17
REMARK    4  A    between atoms: C_17  and  O_18
REMARK                            x       y       z     vdW  Elec       q    Type
REMARK                         _______ _______ _______ _____ _____    ______ ____
ROOT
ATOM      1  C   UNL     1       1.066   0.146  -0.041  0.00  0.00    +0.051 C 
ATOM      2  C   UNL     1       2.555   0.189  -0.143  0.00  0.00    +0.030 A 
ATOM      3  C   UNL     1       3.261  -1.113  -0.153  0.00  0.00    +0.257 A 
ATOM      4  O   UNL     1       2.659  -2.182  -0.140  0.00  0.00    -0.267 OA
ATOM      5  N   UNL     1       4.621  -1.052  -0.188  0.00  0.00    -0.275 N 
ATOM      6  H   UNL     1       5.117  -1.929  -0.218  0.00  0.00    +0.173 HD
ATOM      7  C   UNL     1       5.371   0.081  -0.336  0.00  0.00    +0.332 A 
ATOM      8  O   UNL     1       6.590  -0.009  -0.472  0.00  0.00    -0.246 OA
ATOM      9  N   UNL     1       4.668   1.280  -0.341  0.00  0.00    -0.270 N 
ATOM     10  C   UNL     1       3.291   1.308  -0.239  0.00  0.00    +0.102 A 
ENDROOT
BRANCH   9  11
ATOM     11  C   UNL     1       5.468   2.473  -0.546  0.00  0.00    +0.248 C 
ATOM     12  O   UNL     1       4.837   3.682  -0.057  0.00  0.00    -0.343 OA
ATOM     13  C   UNL     1       5.372   4.747  -0.893  0.00  0.00    +0.169 C 
ATOM     14  C   UNL     1       5.593   4.070  -2.203  0.00  0.00    +0.007 C 
ATOM     15  C   UNL     1       5.650   2.752  -1.999  0.00  0.00    +0.025 C 
BRANCH  13  16
ATOM     16  C   UNL     1       4.425   5.950  -0.928  0.00  0.00    +0.191 C 
BRANCH  16  17
ATOM     17  O   UNL     1       3.124   5.597  -1.395  0.00  0.00    -0.392 OA
ATOM     18  H   UNL     1       2.873   4.800  -0.893  0.00  0.00    +0.210 HD
ENDBRANCH  16  17
ENDBRANCH  13  16
ENDBRANCH   9  11
TORSDOF 3
