REMARK  Name = 
REMARK  8 active torsions:
REMARK  status: ('A' for Active; 'I' for Inactive)
REMARK    1  A    between atoms: C_1  and  C_2
REMARK    2  A    between atoms: C_2  and  C_3
REMARK    3  A    between atoms: C_2  and  N_4
REMARK    4  A    between atoms: N_13  and  C1*_14
REMARK    5  A    between atoms: C2*_15  and  O2*_22
REMARK    6  A    between atoms: C3*_16  and  O3*_21
REMARK    7  A    between atoms: C4*_17  and  C5*_19
REMARK    8  A    between atoms: C5*_19  and  O5*_20
REMARK                            x       y       z     vdW  Elec       q    Type
REMARK                         _______ _______ _______ _____ _____    ______ ____
ROOT
ATOM      1  N   UNL     1       3.071  -0.719  -1.392  0.00  0.00    -0.312 N 
ATOM      2  H   UNL     1       2.535  -1.577  -1.434  0.00  0.00    +0.149 HD
ATOM      3  C   UNL     1       4.416  -0.717  -1.550  0.00  0.00    +0.199 A 
ATOM      4  N   UNL     1       5.152  -1.888  -1.629  0.00  0.00    -0.283 N 
ATOM      5  C   UNL     1       6.464  -1.547  -1.876  0.00  0.00    +0.074 A 
ATOM      6  C   UNL     1       6.459  -0.155  -1.846  0.00  0.00    +0.092 A 
ATOM      7  C   UNL     1       7.655   0.557  -2.012  0.00  0.00    +0.051 A 
ATOM      8  C   UNL     1       8.838  -0.153  -2.246  0.00  0.00    +0.061 A 
ATOM      9 CL   UNL     1      10.287   0.767  -2.456  0.00  0.00    -0.082 Cl
ATOM     10  C   UNL     1       8.825  -1.553  -2.308  0.00  0.00    +0.061 A 
ATOM     11 CL   UNL     1      10.259  -2.470  -2.628  0.00  0.00    -0.082 Cl
ATOM     12  C   UNL     1       7.638  -2.278  -2.114  0.00  0.00    +0.049 A 
ATOM     13  N   UNL     1       5.196   0.331  -1.657  0.00  0.00    -0.214 NA
ENDROOT
BRANCH   4  14
ATOM     14  C1* UNL     1       4.568  -3.203  -1.463  0.00  0.00    +0.254 C 
ATOM     15  O4* UNL     1       5.528  -4.192  -1.017  0.00  0.00    -0.346 OA
ATOM     16  C4* UNL     1       5.015  -5.485  -1.456  0.00  0.00    +0.177 C 
ATOM     17  C3* UNL     1       3.689  -5.215  -2.199  0.00  0.00    +0.178 C 
ATOM     18  C2* UNL     1       3.920  -3.804  -2.716  0.00  0.00    +0.195 C 
BRANCH  17  19
ATOM     19  O3* UNL     1       2.522  -5.177  -1.369  0.00  0.00    -0.386 OA
ATOM     20  H3* UNL     1       2.753  -5.512  -0.470  0.00  0.00    +0.210 HD
ENDBRANCH  17  19
BRANCH  18  21
ATOM     21  O2* UNL     1       4.778  -3.843  -3.861  0.00  0.00    -0.385 OA
ATOM     22  H2* UNL     1       5.704  -3.902  -3.569  0.00  0.00    +0.210 HD
ENDBRANCH  18  21
BRANCH  16  23
ATOM     23  C5* UNL     1       4.912  -6.418  -0.253  0.00  0.00    +0.190 C 
BRANCH  23  24
ATOM     24  O5* UNL     1       4.007  -5.870   0.709  0.00  0.00    -0.392 OA
ATOM     25  H5* UNL     1       4.502  -5.167   1.175  0.00  0.00    +0.210 HD
ENDBRANCH  23  24
ENDBRANCH  16  23
ENDBRANCH   4  14
BRANCH   1  27
ATOM     26  C   UNL     1       0.889   0.000  -2.174  0.00  0.00    +0.027 C 
ATOM     27  C   UNL     1       2.309   0.454  -1.826  0.00  0.00    +0.067 C 
ATOM     28  C   UNL     1       2.267   1.511  -0.727  0.00  0.00    +0.027 C 
ENDBRANCH   1  27
TORSDOF 6
