REMARK  Name = 
REMARK  6 active torsions:
REMARK  status: ('A' for Active; 'I' for Inactive)
REMARK    1  A    between atoms: C6_3  and  N6_19
REMARK    2  A    between atoms: N9_7  and  C1*_10
REMARK    3  A    between atoms: C2*_11  and  O2*_18
REMARK    4  A    between atoms: C3*_12  and  O3*_17
REMARK    5  A    between atoms: C4*_13  and  C5*_15
REMARK    6  A    between atoms: C5*_15  and  O5*_16
REMARK                            x       y       z     vdW  Elec       q    Type
REMARK                         _______ _______ _______ _____ _____    ______ ____
ROOT
ATOM      1  C2    A A   1      -1.959   0.655   0.699  0.00  0.00    +0.225 A 
ATOM      2  N3    A A   1      -0.877   1.453   0.564  0.00  0.00    -0.216 NA
ATOM      3  C4    A A   1       0.219   0.737   0.261  0.00  0.00    +0.167 A 
ATOM      4  N9    A A   1       1.492   1.184   0.049  0.00  0.00    -0.286 N 
ATOM      5  C8    A A   1       2.272   0.074  -0.198  0.00  0.00    +0.203 A 
ATOM      6  N7    A A   1       1.574  -1.037  -0.205  0.00  0.00    -0.231 NA
ATOM      7  C5    A A   1       0.283  -0.637   0.076  0.00  0.00    +0.147 A 
ATOM      8  C6    A A   1      -0.918  -1.354   0.198  0.00  0.00    +0.147 A 
ATOM      9  N1    A A   1      -2.041  -0.682   0.537  0.00  0.00    -0.219 NA
ENDROOT
BRANCH   4  10
ATOM     10  C1*   A A   1       2.012   2.528  -0.003  0.00  0.00    +0.253 C 
ATOM     11  O4*   A A   1       2.645   2.857   1.257  0.00  0.00    -0.346 OA
ATOM     12  C4*   A A   1       2.582   4.309   1.374  0.00  0.00    +0.177 C 
ATOM     13  C3*   A A   1       2.107   4.839   0.003  0.00  0.00    +0.178 C 
ATOM     14  C2*   A A   1       1.132   3.735  -0.386  0.00  0.00    +0.195 C 
BRANCH  13  15
ATOM     15  O3*   A A   1       3.132   4.911  -0.993  0.00  0.00    -0.386 OA
ATOM     16  H3*   A A   1       4.006   4.906  -0.544  0.00  0.00    +0.210 HD
ENDBRANCH  13  15
BRANCH  14  17
ATOM     17  O2*   A A   1      -0.043   3.943   0.401  0.00  0.00    -0.385 OA
ATOM     18  H2*   A A   1      -0.518   3.088   0.467  0.00  0.00    +0.210 HD
ENDBRANCH  14  17
BRANCH  12  19
ATOM     19  C5*   A A   1       3.940   4.825   1.832  0.00  0.00    +0.190 C 
BRANCH  19  20
ATOM     20  O5*   A A   1       4.950   4.406   0.909  0.00  0.00    -0.392 OA
ATOM     21  H5*   A A   1       5.049   3.444   1.055  0.00  0.00    +0.210 HD
ENDBRANCH  19  20
ENDBRANCH  12  19
ENDBRANCH   4  10
BRANCH   8  22
ATOM     22  N6    A A   1      -1.008  -2.725   0.005  0.00  0.00    -0.341 N 
ATOM     23  H61   A A   1      -0.119  -3.204   0.094  0.00  0.00    +0.144 HD
ATOM     24  H62   A A   1      -1.810  -3.128   0.469  0.00  0.00    +0.144 HD
ENDBRANCH   8  22
TORSDOF 6
