REMARK  Name = 
REMARK  6 active torsions:
REMARK  status: ('A' for Active; 'I' for Inactive)
REMARK    1  A    between atoms: C6_3  and  N6_19
REMARK    2  A    between atoms: N9_7  and  C1*_10
REMARK    3  A    between atoms: C2*_11  and  O2*_18
REMARK    4  A    between atoms: C3*_12  and  O3*_17
REMARK    5  A    between atoms: C4*_13  and  C5*_15
REMARK    6  A    between atoms: C5*_15  and  O5*_16
REMARK                            x       y       z     vdW  Elec       q    Type
REMARK                         _______ _______ _______ _____ _____    ______ ____
ROOT
ATOM      1  C2    A A   1      -1.959   0.665   0.750  0.00  0.00    +0.225 A 
ATOM      2  N3    A A   1      -0.878   1.462   0.598  0.00  0.00    -0.216 NA
ATOM      3  C4    A A   1       0.213   0.743   0.281  0.00  0.00    +0.167 A 
ATOM      4  N9    A A   1       1.484   1.186   0.052  0.00  0.00    -0.286 N 
ATOM      5  C8    A A   1       2.257   0.075  -0.204  0.00  0.00    +0.203 A 
ATOM      6  N7    A A   1       1.553  -1.037  -0.200  0.00  0.00    -0.231 NA
ATOM      7  C5    A A   1       0.273  -0.631   0.098  0.00  0.00    +0.147 A 
ATOM      8  C6    A A   1      -0.929  -1.346   0.240  0.00  0.00    +0.147 A 
ATOM      9  N1    A A   1      -2.045  -0.671   0.593  0.00  0.00    -0.219 NA
ENDROOT
BRANCH   4  10
ATOM     10  C1*   A A   1       2.010   2.528  -0.006  0.00  0.00    +0.253 C 
ATOM     11  O4*   A A   1       2.655   2.858   1.248  0.00  0.00    -0.346 OA
ATOM     12  C4*   A A   1       2.583   4.307   1.371  0.00  0.00    +0.177 C 
ATOM     13  C3*   A A   1       2.111   4.839  -0.000  0.00  0.00    +0.178 C 
ATOM     14  C2*   A A   1       1.134   3.737  -0.391  0.00  0.00    +0.195 C 
BRANCH  13  15
ATOM     15  O3*   A A   1       3.138   4.908  -0.994  0.00  0.00    -0.386 OA
ATOM     16  H3*   A A   1       4.010   4.932  -0.540  0.00  0.00    +0.210 HD
ENDBRANCH  13  15
BRANCH  14  17
ATOM     17  O2*   A A   1      -0.043   3.947   0.392  0.00  0.00    -0.385 OA
ATOM     18  H2*   A A   1      -0.528   3.097   0.442  0.00  0.00    +0.210 HD
ENDBRANCH  14  17
BRANCH  12  19
ATOM     19  C5*   A A   1       3.933   4.835   1.840  0.00  0.00    +0.190 C 
BRANCH  19  20
ATOM     20  O5*   A A   1       4.953   4.436   0.920  0.00  0.00    -0.392 OA
ATOM     21  H5*   A A   1       5.068   3.475   1.062  0.00  0.00    +0.210 HD
ENDBRANCH  19  20
ENDBRANCH  12  19
ENDBRANCH   4  10
BRANCH   8  22
ATOM     22  N6    A A   1      -1.022  -2.718   0.046  0.00  0.00    -0.341 N 
ATOM     23  H61   A A   1      -0.131  -3.196   0.114  0.00  0.00    +0.144 HD
ATOM     24  H62   A A   1      -1.814  -3.121   0.527  0.00  0.00    +0.144 HD
ENDBRANCH   8  22
TORSDOF 6
