REMARK  Name = 
REMARK  8 active torsions:
REMARK  status: ('A' for Active; 'I' for Inactive)
REMARK    1  A    between atoms: C_1  and  C_2
REMARK    2  A    between atoms: C_4  and  C_27
REMARK    3  A    between atoms: C_6  and  C_26
REMARK    4  A    between atoms: C_7  and  O_8
REMARK    5  A    between atoms: O_8  and  C_9
REMARK    6  A    between atoms: C_13  and  N_16
REMARK    7  A    between atoms: N_17  and  C_18
REMARK    8  A    between atoms: C_21  and  C_24
REMARK                            x       y       z     vdW  Elec       q    Type
REMARK                         _______ _______ _______ _____ _____    ______ ____
ROOT
ATOM      1  C   UNL     1       1.100  -2.597  -0.288  0.00  0.00    +0.241 A 
ATOM      2  C   UNL     1       0.503  -1.455  -0.782  0.00  0.00    +0.119 A 
ATOM      3 BR   UNL     1       1.456  -0.084  -1.661  0.00  0.00    -0.041 Br
ATOM      4  C   UNL     1      -0.861  -1.415  -0.622  0.00  0.00    +0.139 A 
ATOM      5  N   UNL     1      -1.549  -2.484  -0.223  0.00  0.00    -0.198 NA
ATOM      6  C   UNL     1      -0.899  -3.638  -0.024  0.00  0.00    +0.224 A 
ATOM      7  N   UNL     1      -1.607  -4.816   0.211  0.00  0.00    -0.283 N 
ATOM      8  H   UNL     1      -0.958  -5.590   0.195  0.00  0.00    +0.155 HD
ATOM      9  N   UNL     1       0.431  -3.732  -0.019  0.00  0.00    -0.178 NA
ENDROOT
BRANCH   7  10
ATOM     10  C   UNL     1      -2.931  -5.090  -0.158  0.00  0.00    +0.034 A 
ATOM     11  C   UNL     1      -3.928  -4.106  -0.198  0.00  0.00    +0.024 A 
ATOM     12  C   UNL     1      -5.207  -4.378  -0.676  0.00  0.00    +0.020 A 
ATOM     13  C   UNL     1      -5.524  -5.671  -1.091  0.00  0.00    +0.052 A 
ATOM     14  C   UNL     1      -4.562  -6.680  -1.008  0.00  0.00    +0.020 A 
ATOM     15  C   UNL     1      -3.279  -6.394  -0.541  0.00  0.00    +0.024 A 
BRANCH  13  16
ATOM     16  C   UNL     1      -6.833  -5.946  -1.600  0.00  0.00    +0.099 C 
ATOM     17  N   UNL     1      -7.890  -6.158  -2.012  0.00  0.00    -0.191 NA
ENDBRANCH  13  16
ENDBRANCH   7  10
BRANCH   4  18
ATOM     18  N   UNL     1      -1.648  -0.298  -0.892  0.00  0.00    -0.342 N 
ATOM     19  H   UNL     1      -1.281   0.550  -0.474  0.00  0.00    +0.144 HD
ATOM     20  H   UNL     1      -2.592  -0.505  -0.572  0.00  0.00    +0.144 HD
ENDBRANCH   4  18
BRANCH   1  21
ATOM     21  O   UNL     1       2.461  -2.605  -0.100  0.00  0.00    -0.436 OA
BRANCH  21  24
ATOM     22  C   UNL     1       1.049  -2.917   2.820  0.00  0.00    +0.047 C 
ATOM     23  C   UNL     1       2.482  -3.100   2.393  0.00  0.00    -0.007 A 
ATOM     24  C   UNL     1       3.041  -3.006   1.095  0.00  0.00    +0.136 A 
ATOM     25  C   UNL     1       4.434  -3.254   0.933  0.00  0.00    -0.007 A 
ATOM     26  C   UNL     1       5.075  -3.238  -0.433  0.00  0.00    +0.047 C 
ATOM     27  C   UNL     1       5.254  -3.526   2.042  0.00  0.00    +0.025 A 
ATOM     28  C   UNL     1       4.715  -3.568   3.319  0.00  0.00    +0.052 A 
ATOM     29  C   UNL     1       3.350  -3.362   3.484  0.00  0.00    +0.025 A 
BRANCH  28  30
ATOM     30  C   UNL     1       5.549  -3.831   4.461  0.00  0.00    +0.099 C 
ATOM     31  N   UNL     1       6.211  -4.042   5.381  0.00  0.00    -0.191 NA
ENDBRANCH  28  30
ENDBRANCH  21  24
ENDBRANCH   1  21
TORSDOF 6
