REMARK  Name = 
REMARK  2 active torsions:
REMARK  status: ('A' for Active; 'I' for Inactive)
REMARK    1  A    between atoms: C_1  and  C_2
REMARK    2  A    between atoms: N_8  and  C_18
REMARK                            x       y       z     vdW  Elec       q    Type
REMARK                         _______ _______ _______ _____ _____    ______ ____
ROOT
ATOM      1  C   UNL     1       0.952  -0.140   0.146  0.00  0.00    +0.048 C 
ATOM      2  C   UNL     1       2.450  -0.061   0.064  0.00  0.00    +0.005 A 
ATOM      3  C   UNL     1       3.205  -1.152   0.509  0.00  0.00    +0.027 A 
ATOM      4  C   UNL     1       4.579  -1.118   0.358  0.00  0.00    +0.113 A 
ATOM      5  N   UNL     1       5.246  -0.092  -0.207  0.00  0.00    -0.236 NA
ATOM      6  C   UNL     1       4.518   0.994  -0.590  0.00  0.00    +0.179 A 
ATOM      7  N   UNL     1       5.194   2.131  -1.104  0.00  0.00    -0.263 N 
ATOM      8  C   UNL     1       5.134   3.346  -0.388  0.00  0.00    +0.142 A 
ATOM      9  N   UNL     1       6.274   3.929   0.069  0.00  0.00    -0.239 NA
ATOM     10  C   UNL     1       6.160   5.051   0.815  0.00  0.00    +0.113 A 
ATOM     11  C   UNL     1       4.955   5.673   1.093  0.00  0.00    +0.021 A 
ATOM     12  C   UNL     1       3.795   5.112   0.577  0.00  0.00    +0.021 A 
ATOM     13  C   UNL     1       3.879   3.928  -0.160  0.00  0.00    +0.105 A 
ATOM     14  C   UNL     1       2.664   3.386  -0.823  0.00  0.00    +0.321 C 
ATOM     15  N   UNL     1       1.794   4.286  -1.395  0.00  0.00    -0.246 N 
ATOM     16  H   UNL     1       1.163   3.807  -2.033  0.00  0.00    +0.288 HD
ATOM     17  H   UNL     1       2.231   5.089  -1.834  0.00  0.00    +0.288 HD
ATOM     18  N   UNL     1       2.333   2.133  -0.953  0.00  0.00    -0.038 NA
ATOM     19  C   UNL     1       3.111   1.062  -0.460  0.00  0.00    +0.219 A 
ENDROOT
BRANCH   7  20
ATOM     20  C   UNL     1       6.207   1.957  -2.143  0.00  0.00    +0.082 C 
ATOM     21  C   UNL     1       6.176   2.850  -3.365  0.00  0.00    +0.025 C 
ATOM     22  C   UNL     1       5.803   1.407  -3.494  0.00  0.00    +0.025 C 
ENDBRANCH   7  20
TORSDOF 1
