REMARK  Name = 
REMARK  2 active torsions:
REMARK  status: ('A' for Active; 'I' for Inactive)
REMARK    1  A    between atoms: C_1  and  C_2
REMARK    2  A    between atoms: N_8  and  C_18
REMARK                            x       y       z     vdW  Elec       q    Type
REMARK                         _______ _______ _______ _____ _____    ______ ____
ROOT
ATOM      1  C   UNL     1       0.997  -0.086   0.042  0.00  0.00    +0.048 C 
ATOM      2  C   UNL     1       2.497  -0.012  -0.039  0.00  0.00    +0.005 A 
ATOM      3  C   UNL     1       3.248  -1.102   0.412  0.00  0.00    +0.027 A 
ATOM      4  C   UNL     1       4.622  -1.071   0.266  0.00  0.00    +0.113 A 
ATOM      5  N   UNL     1       5.292  -0.046  -0.296  0.00  0.00    -0.236 NA
ATOM      6  C   UNL     1       4.566   1.039  -0.685  0.00  0.00    +0.179 A 
ATOM      7  N   UNL     1       5.248   2.175  -1.190  0.00  0.00    -0.263 N 
ATOM      8  C   UNL     1       5.177   3.393  -0.481  0.00  0.00    +0.142 A 
ATOM      9  N   UNL     1       6.318   3.974  -0.017  0.00  0.00    -0.239 NA
ATOM     10  C   UNL     1       6.201   5.097   0.728  0.00  0.00    +0.113 A 
ATOM     11  C   UNL     1       4.997   5.720   1.000  0.00  0.00    +0.021 A 
ATOM     12  C   UNL     1       3.841   5.162   0.471  0.00  0.00    +0.021 A 
ATOM     13  C   UNL     1       3.926   3.974  -0.258  0.00  0.00    +0.105 A 
ATOM     14  C   UNL     1       2.713   3.434  -0.927  0.00  0.00    +0.321 C 
ATOM     15  N   UNL     1       1.841   4.333  -1.496  0.00  0.00    -0.246 N 
ATOM     16  H   UNL     1       1.212   3.856  -2.137  0.00  0.00    +0.288 HD
ATOM     17  H   UNL     1       2.275   5.141  -1.930  0.00  0.00    +0.288 HD
ATOM     18  N   UNL     1       2.384   2.180  -1.061  0.00  0.00    -0.038 NA
ATOM     19  C   UNL     1       3.160   1.109  -0.561  0.00  0.00    +0.219 A 
ENDROOT
BRANCH   7  20
ATOM     20  C   UNL     1       6.246   2.007  -2.245  0.00  0.00    +0.082 C 
ATOM     21  C   UNL     1       6.204   2.907  -3.461  0.00  0.00    +0.025 C 
ATOM     22  C   UNL     1       5.823   1.467  -3.594  0.00  0.00    +0.025 C 
ENDBRANCH   7  20
TORSDOF 1
