REMARK  Name = 
REMARK  11 active torsions:
REMARK  status: ('A' for Active; 'I' for Inactive)
REMARK    1  A    between atoms: C_1  and  C_2
REMARK    2  A    between atoms: N_4  and  C_5
REMARK    3  A    between atoms: C_7  and  N_25
REMARK    4  A    between atoms: C_10  and  C_22
REMARK    5  A    between atoms: C_12  and  C_14
REMARK    6  A    between atoms: C_14  and  C_16
REMARK    7  A    between atoms: C_14  and  O_21
REMARK    8  A    between atoms: C_16  and  C_18
REMARK    9  A    between atoms: C_16  and  O_20
REMARK   10  A    between atoms: C_18  and  O_19
REMARK   11  A    between atoms: C_22  and  O_24
REMARK                            x       y       z     vdW  Elec       q    Type
REMARK                         _______ _______ _______ _____ _____    ______ ____
ROOT
ATOM      1  C   UNL     1       4.965   0.939   0.573  0.00  0.00    +0.160 C 
ATOM      2  C   UNL     1       5.187  -0.345   1.417  0.00  0.00    +0.229 C 
ATOM      3  O   UNL     1       6.197  -0.249   2.434  0.00  0.00    -0.477 OA
ATOM      4  C   UNL     1       6.393   0.963   3.054  0.00  0.00    +0.204 C 
ATOM      5  C   UNL     1       5.915   2.129   2.606  0.00  0.00    +0.071 C 
ATOM      6  C   UNL     1       5.143   2.274   1.346  0.00  0.00    +0.238 C 
ENDROOT
BRANCH   6   7
ATOM      7  N   UNL     1       3.825   2.843   1.633  0.00  0.00    -0.104 NA
ATOM      8  C   UNL     1       3.667   4.114   1.656  0.00  0.00    +0.377 C 
ATOM      9  N   UNL     1       2.435   4.635   1.841  0.00  0.00    -0.289 N 
ATOM     10  H   UNL     1       2.415   5.495   2.372  0.00  0.00    +0.255 HD
ATOM     11  H   UNL     1       1.793   3.944   2.216  0.00  0.00    +0.255 HD
ATOM     12  N   UNL     1       4.563   5.118   1.524  0.00  0.00    -0.289 N 
ATOM     13  H   UNL     1       4.206   5.942   1.056  0.00  0.00    +0.255 HD
ATOM     14  H   UNL     1       5.490   4.877   1.202  0.00  0.00    +0.255 HD
ENDBRANCH   6   7
BRANCH   1  17
ATOM     15  C   UNL     1       4.204   1.850  -2.170  0.00  0.00    +0.109 C 
ATOM     16  C   UNL     1       5.599   1.377  -1.858  0.00  0.00    +0.210 C 
ATOM     17  N   UNL     1       5.863   0.909  -0.603  0.00  0.00    -0.305 N 
ATOM     18  H   UNL     1       6.843   0.691  -0.456  0.00  0.00    +0.149 HD
ATOM     19  O   UNL     1       6.498   1.399  -2.693  0.00  0.00    -0.276 OA
ENDBRANCH   1  17
BRANCH   4  20
ATOM     20  C   UNL     1       7.263   0.993   4.278  0.00  0.00    +0.372 C 
ATOM     21  O   UNL     1       7.509   1.976   4.948  0.00  0.00    -0.242 OA
BRANCH  20  22
ATOM     22  O   UNL     1       7.783  -0.232   4.518  0.00  0.00    -0.475 OA
ATOM     23  H   UNL     1       7.421  -0.892   3.883  0.00  0.00    +0.296 HD
ENDBRANCH  20  22
ENDBRANCH   4  20
BRANCH   2  24
ATOM     24  C   UNL     1       3.858  -0.973   1.938  0.00  0.00    +0.187 C 
BRANCH  24  25
ATOM     25  O   UNL     1       2.923  -1.124   0.855  0.00  0.00    -0.385 OA
ATOM     26  H   UNL     1       3.250  -1.818   0.253  0.00  0.00    +0.210 HD
ENDBRANCH  24  25
BRANCH  24  27
ATOM     27  C   UNL     1       4.060  -2.363   2.598  0.00  0.00    +0.172 C 
BRANCH  27  28
ATOM     28  O   UNL     1       4.860  -2.252   3.777  0.00  0.00    -0.387 OA
ATOM     29  H   UNL     1       4.230  -2.054   4.503  0.00  0.00    +0.210 HD
ENDBRANCH  27  28
BRANCH  27  30
ATOM     30  C   UNL     1       2.731  -3.045   2.970  0.00  0.00    +0.189 C 
BRANCH  30  31
ATOM     31  O   UNL     1       2.071  -2.290   3.986  0.00  0.00    -0.392 OA
ATOM     32  H   UNL     1       1.495  -1.646   3.532  0.00  0.00    +0.210 HD
ENDBRANCH  30  31
ENDBRANCH  27  30
ENDBRANCH  24  27
ENDBRANCH   2  24
TORSDOF 10
