REMARK  Name = 
REMARK  11 active torsions:
REMARK  status: ('A' for Active; 'I' for Inactive)
REMARK    1  A    between atoms: C_1  and  C_2
REMARK    2  A    between atoms: N_4  and  C_5
REMARK    3  A    between atoms: C_7  and  N_25
REMARK    4  A    between atoms: C_10  and  C_22
REMARK    5  A    between atoms: C_12  and  C_14
REMARK    6  A    between atoms: C_14  and  C_16
REMARK    7  A    between atoms: C_14  and  O_21
REMARK    8  A    between atoms: C_16  and  C_18
REMARK    9  A    between atoms: C_16  and  O_20
REMARK   10  A    between atoms: C_18  and  O_19
REMARK   11  A    between atoms: C_22  and  O_24
REMARK                            x       y       z     vdW  Elec       q    Type
REMARK                         _______ _______ _______ _____ _____    ______ ____
ROOT
ATOM      1  C   UNL     1       4.877  -0.327  -0.981  0.00  0.00    +0.160 C 
ATOM      2  C   UNL     1       5.157   0.944  -1.841  0.00  0.00    +0.229 C 
ATOM      3  O   UNL     1       6.196   0.813  -2.824  0.00  0.00    -0.477 OA
ATOM      4  C   UNL     1       6.358  -0.402  -3.442  0.00  0.00    +0.204 C 
ATOM      5  C   UNL     1       5.858  -1.556  -2.988  0.00  0.00    +0.071 C 
ATOM      6  C   UNL     1       5.112  -1.678  -1.710  0.00  0.00    +0.238 C 
ENDROOT
BRANCH   6   7
ATOM      7  N   UNL     1       3.807  -2.299  -1.978  0.00  0.00    -0.104 NA
ATOM      8  C   UNL     1       3.690  -3.570  -2.042  0.00  0.00    +0.377 C 
ATOM      9  N   UNL     1       2.476  -4.125  -2.255  0.00  0.00    -0.289 N 
ATOM     10  H   UNL     1       2.506  -4.907  -2.897  0.00  0.00    +0.255 HD
ATOM     11  H   UNL     1       1.813  -3.423  -2.569  0.00  0.00    +0.255 HD
ATOM     12  N   UNL     1       4.616  -4.550  -1.948  0.00  0.00    -0.289 N 
ATOM     13  H   UNL     1       4.292  -5.368  -1.444  0.00  0.00    +0.255 HD
ATOM     14  H   UNL     1       5.545  -4.276  -1.660  0.00  0.00    +0.255 HD
ENDBRANCH   6   7
BRANCH   1  17
ATOM     15  C   UNL     1       7.321  -0.005   1.952  0.00  0.00    +0.109 C 
ATOM     16  C   UNL     1       6.901  -0.000   0.507  0.00  0.00    +0.210 C 
ATOM     17  N   UNL     1       5.567  -0.283   0.332  0.00  0.00    -0.305 N 
ATOM     18  H   UNL     1       5.052  -0.655   1.121  0.00  0.00    +0.149 HD
ATOM     19  O   UNL     1       7.678   0.260  -0.401  0.00  0.00    -0.276 OA
ENDBRANCH   1  17
BRANCH   4  20
ATOM     20  C   UNL     1       7.219  -0.446  -4.669  0.00  0.00    +0.372 C 
ATOM     21  O   UNL     1       7.364  -1.413  -5.401  0.00  0.00    -0.242 OA
BRANCH  20  22
ATOM     22  O   UNL     1       7.836   0.742  -4.860  0.00  0.00    -0.475 OA
ATOM     23  H   UNL     1       7.573   1.366  -4.144  0.00  0.00    +0.296 HD
ENDBRANCH  20  22
ENDBRANCH   4  20
BRANCH   2  24
ATOM     24  C   UNL     1       3.871   1.564  -2.468  0.00  0.00    +0.187 C 
BRANCH  24  25
ATOM     25  O   UNL     1       2.832   1.696  -1.481  0.00  0.00    -0.385 OA
ATOM     26  H   UNL     1       3.066   2.429  -0.883  0.00  0.00    +0.210 HD
ENDBRANCH  24  25
BRANCH  24  27
ATOM     27  C   UNL     1       4.119   2.964  -3.097  0.00  0.00    +0.172 C 
BRANCH  27  28
ATOM     28  O   UNL     1       5.065   2.904  -4.166  0.00  0.00    -0.387 OA
ATOM     29  H   UNL     1       4.543   2.779  -4.985  0.00  0.00    +0.210 HD
ENDBRANCH  27  28
BRANCH  27  30
ATOM     30  C   UNL     1       2.826   3.607  -3.630  0.00  0.00    +0.189 C 
BRANCH  30  31
ATOM     31  O   UNL     1       2.331   2.850  -4.734  0.00  0.00    -0.392 OA
ATOM     32  H   UNL     1       1.875   2.070  -4.366  0.00  0.00    +0.210 HD
ENDBRANCH  30  31
ENDBRANCH  27  30
ENDBRANCH  24  27
ENDBRANCH   2  24
TORSDOF 10
