REMARK  Name = 
REMARK  4 active torsions:
REMARK  status: ('A' for Active; 'I' for Inactive)
REMARK    1  A    between atoms: C_3  and  C_11
REMARK    2  A    between atoms: C_6  and  C_7
REMARK    3  A    between atoms: C_11  and  C_12
REMARK    4  A    between atoms: C_12  and  O_14
REMARK                            x       y       z     vdW  Elec       q    Type
REMARK                         _______ _______ _______ _____ _____    ______ ____
ROOT
ATOM      1  C   UNL     1      -1.503  -0.146  -0.011  0.00  0.00    +0.015 A 
ATOM      2  C   UNL     1      -0.671  -1.265  -0.053  0.00  0.00    +0.073 A 
ATOM      3  C   UNL     1       0.695  -1.039  -0.052  0.00  0.00    +0.123 A 
ATOM      4  N   UNL     1       1.259   0.192  -0.035  0.00  0.00    -0.259 NA
ATOM      5  C   UNL     1       0.438   1.275  -0.005  0.00  0.00    +0.052 A 
ATOM      6  C   UNL     1      -0.947   1.134  -0.003  0.00  0.00    +0.024 A 
ENDROOT
BRANCH   2   7
ATOM      7  C   UNL     1      -1.193  -2.665  -0.128  0.00  0.00    +0.419 C 
ATOM      8  F   UNL     1      -0.786  -3.435   0.917  0.00  0.00    -0.166 F 
ATOM      9  F   UNL     1      -0.774  -3.312  -1.251  0.00  0.00    -0.166 F 
ATOM     10  F   UNL     1      -2.553  -2.741  -0.141  0.00  0.00    -0.166 F 
ENDBRANCH   2   7
BRANCH   5  11
ATOM     11  C   UNL     1       1.138   2.603  -0.140  0.00  0.00    +0.175 C 
BRANCH  11  12
ATOM     12  C   UNL     1       0.510   3.804   0.523  0.00  0.00    +0.311 C 
ATOM     13  O   UNL     1      -0.518   3.824   1.182  0.00  0.00    -0.251 OA
BRANCH  12  14
ATOM     14  O   UNL     1       1.221   4.941   0.296  0.00  0.00    -0.480 OA
ATOM     15  H   UNL     1       2.033   4.811  -0.230  0.00  0.00    +0.295 HD
ENDBRANCH  12  14
ENDBRANCH  11  12
ENDBRANCH   5  11
TORSDOF 4
