REMARK  Name = 
REMARK  4 active torsions:
REMARK  status: ('A' for Active; 'I' for Inactive)
REMARK    1  A    between atoms: C_3  and  C_11
REMARK    2  A    between atoms: C_6  and  C_7
REMARK    3  A    between atoms: C_11  and  C_12
REMARK    4  A    between atoms: C_12  and  O_14
REMARK                            x       y       z     vdW  Elec       q    Type
REMARK                         _______ _______ _______ _____ _____    ______ ____
ROOT
ATOM      1  C   UNL     1      -1.500  -0.147  -0.016  0.00  0.00    +0.015 A 
ATOM      2  C   UNL     1      -0.667  -1.264  -0.058  0.00  0.00    +0.073 A 
ATOM      3  C   UNL     1       0.699  -1.036  -0.060  0.00  0.00    +0.123 A 
ATOM      4  N   UNL     1       1.259   0.197  -0.044  0.00  0.00    -0.259 NA
ATOM      5  C   UNL     1       0.437   1.278  -0.010  0.00  0.00    +0.052 A 
ATOM      6  C   UNL     1      -0.948   1.134  -0.007  0.00  0.00    +0.024 A 
ENDROOT
BRANCH   2   7
ATOM      7  C   UNL     1      -1.185  -2.665  -0.128  0.00  0.00    +0.419 C 
ATOM      8  F   UNL     1      -0.776  -3.432   0.920  0.00  0.00    -0.166 F 
ATOM      9  F   UNL     1      -0.767  -3.316  -1.250  0.00  0.00    -0.166 F 
ATOM     10  F   UNL     1      -2.545  -2.744  -0.140  0.00  0.00    -0.166 F 
ENDBRANCH   2   7
BRANCH   5  11
ATOM     11  C   UNL     1       1.134   2.608  -0.140  0.00  0.00    +0.175 C 
BRANCH  11  12
ATOM     12  C   UNL     1       0.511   3.802   0.539  0.00  0.00    +0.311 C 
ATOM     13  O   UNL     1      -0.518   3.819   1.196  0.00  0.00    -0.251 OA
BRANCH  12  14
ATOM     14  O   UNL     1       1.228   4.938   0.328  0.00  0.00    -0.480 OA
ATOM     15  H   UNL     1       2.041   4.811  -0.199  0.00  0.00    +0.295 HD
ENDBRANCH  12  14
ENDBRANCH  11  12
ENDBRANCH   5  11
TORSDOF 4
