REMARK  Name = 
REMARK  16 active torsions:
REMARK  status: ('A' for Active; 'I' for Inactive)
REMARK    1  A    between atoms: C_1  and  C_2
REMARK    2  A    between atoms: C_2  and  C_3
REMARK    3  A    between atoms: C_2  and  C_4
REMARK    4  A    between atoms: C_4  and  N_5
REMARK    5  A    between atoms: N_5  and  C_6
REMARK    6  A    between atoms: N_5  and  S_34
REMARK    7  A    between atoms: C_6  and  C_7
REMARK    8  A    between atoms: C_7  and  C_9
REMARK    9  A    between atoms: C_7  and  O_33
REMARK   10  A    between atoms: C_9  and  C_11
REMARK   11  A    between atoms: C_9  and  N_18
REMARK   12  A    between atoms: C_11  and  C_12
REMARK   13  A    between atoms: C_19  and  O_21
REMARK   14  A    between atoms: O_21  and  C_22
REMARK   15  A    between atoms: S_34  and  C_37
REMARK   16  A    between atoms: C_40  and  N_43
REMARK                            x       y       z     vdW  Elec       q    Type
REMARK                         _______ _______ _______ _____ _____    ______ ____
ROOT
ATOM      1  C   UNL     1      -4.683   0.303   1.046  0.00  0.00    +0.151 C 
ENDROOT
BRANCH   1   2
ATOM      2  O   UNL     1      -4.960   1.721   1.023  0.00  0.00    -0.389 OA
ATOM      3  H   UNL     1      -5.560   1.882   0.272  0.00  0.00    +0.210 HD
ENDBRANCH   1   2
BRANCH   1   4
ATOM      4  C   UNL     1      -5.930  -0.417   1.554  0.00  0.00    +0.142 C 
BRANCH   4   5
ATOM      5  N   UNL     1      -5.902  -1.899   1.841  0.00  0.00    -0.174 NA
BRANCH   5   6
ATOM      6  S   UNL     1      -7.549  -2.271   2.472  0.00  0.00    +0.061 S 
ATOM      7  O   UNL     1      -8.389  -2.569   1.330  0.00  0.00    -0.153 OA
ATOM      8  O   UNL     1      -7.919  -1.248   3.428  0.00  0.00    -0.153 OA
BRANCH   6   9
ATOM      9  C   UNL     1      -7.264  -3.745   3.391  0.00  0.00    +0.106 A 
ATOM     10  C   UNL     1      -7.882  -4.939   3.017  0.00  0.00    +0.030 A 
ATOM     11  C   UNL     1      -7.588  -6.099   3.740  0.00  0.00    +0.024 A 
ATOM     12  C   UNL     1      -6.662  -6.068   4.787  0.00  0.00    +0.025 A 
ATOM     13  C   UNL     1      -6.147  -4.839   5.208  0.00  0.00    +0.024 A 
ATOM     14  C   UNL     1      -6.431  -3.676   4.501  0.00  0.00    +0.030 A 
BRANCH  12  15
ATOM     15  N   UNL     1      -6.426  -7.217   5.552  0.00  0.00    -0.358 N 
ATOM     16  H   UNL     1      -6.546  -8.081   5.032  0.00  0.00    +0.142 HD
ATOM     17  H   UNL     1      -5.541  -7.192   6.048  0.00  0.00    +0.142 HD
ENDBRANCH  12  15
ENDBRANCH   6   9
ENDBRANCH   5   6
BRANCH   5  18
ATOM     18  C   UNL     1      -5.605  -2.875   0.702  0.00  0.00    +0.112 C 
BRANCH  18  20
ATOM     19  C   UNL     1      -3.117  -3.345   1.188  0.00  0.00    +0.008 C 
ATOM     20  C   UNL     1      -4.167  -2.934   0.155  0.00  0.00    -0.001 C 
ATOM     21  C   UNL     1      -4.054  -3.946  -1.002  0.00  0.00    +0.008 C 
ENDBRANCH  18  20
ENDBRANCH   5  18
ENDBRANCH   4   5
ENDBRANCH   1   4
BRANCH   1  22
ATOM     22  C   UNL     1      -3.302   0.098   1.740  0.00  0.00    +0.110 C 
BRANCH  22  23
ATOM     23  N   UNL     1      -2.203   0.636   0.911  0.00  0.00    -0.275 N 
ATOM     24  H   UNL     1      -1.366   0.952   1.384  0.00  0.00    +0.152 HD
ATOM     25  C   UNL     1      -2.166   0.761  -0.443  0.00  0.00    +0.401 C 
ATOM     26  O   UNL     1      -2.985   0.400  -1.264  0.00  0.00    -0.226 OA
BRANCH  25  27
ATOM     27  O   UNL     1      -1.061   1.481  -0.755  0.00  0.00    -0.444 OA
BRANCH  27  28
ATOM     28  C   UNL     1      -1.112   2.117  -2.032  0.00  0.00    +0.212 C 
ATOM     29  C   UNL     1       0.191   2.831  -2.288  0.00  0.00    +0.090 C 
ATOM     30  C   UNL     1       0.786   3.531  -1.082  0.00  0.00    +0.040 C 
ATOM     31  C   UNL     1       1.324   4.815  -1.662  0.00  0.00    +0.163 C 
ATOM     32  O   UNL     1       0.571   5.108  -2.841  0.00  0.00    -0.351 OA
ATOM     33  C   UNL     1      -0.203   3.967  -3.204  0.00  0.00    +0.257 C 
ATOM     34  O   UNL     1      -1.601   4.217  -3.025  0.00  0.00    -0.347 OA
ATOM     35  C   UNL     1      -2.114   3.267  -2.086  0.00  0.00    +0.208 C 
ENDBRANCH  27  28
ENDBRANCH  25  27
ENDBRANCH  22  23
BRANCH  22  36
ATOM     36  C   UNL     1      -3.182   0.690   3.181  0.00  0.00    +0.060 C 
BRANCH  36  37
ATOM     37  C   UNL     1      -1.901   0.390   3.979  0.00  0.00    -0.046 A 
ATOM     38  C   UNL     1      -1.247  -0.851   3.968  0.00  0.00    +0.004 A 
ATOM     39  C   UNL     1      -0.097  -1.074   4.741  0.00  0.00    +0.000 A 
ATOM     40  C   UNL     1       0.414  -0.070   5.564  0.00  0.00    +0.000 A 
ATOM     41  C   UNL     1      -0.237   1.157   5.618  0.00  0.00    +0.000 A 
ATOM     42  C   UNL     1      -1.383   1.381   4.838  0.00  0.00    +0.004 A 
ENDBRANCH  36  37
ENDBRANCH  22  36
ENDBRANCH   1  22
TORSDOF 14
