REMARK  Name = 
REMARK  27 active torsions:
REMARK  status: ('A' for Active; 'I' for Inactive)
REMARK    1  A    between atoms: C_1  and  C_2
REMARK    2  A    between atoms: C_2  and  C_3
REMARK    3  A    between atoms: C_2  and  C_4
REMARK    4  A    between atoms: C_2  and  C_5
REMARK    5  A    between atoms: C_5  and  C_6
REMARK    6  A    between atoms: C_5  and  N_47
REMARK    7  A    between atoms: N_8  and  C_9
REMARK    8  A    between atoms: C_9  and  C_10
REMARK    9  A    between atoms: C_9  and  C_17
REMARK   10  A    between atoms: C_10  and  C_11
REMARK   11  A    between atoms: C_17  and  C_18
REMARK   12  A    between atoms: C_17  and  O_46
REMARK   13  A    between atoms: C_18  and  N_19
REMARK   14  A    between atoms: N_19  and  C_20
REMARK   15  A    between atoms: N_19  and  N_33
REMARK   16  A    between atoms: C_20  and  C_21
REMARK   17  A    between atoms: C_24  and  C_27
REMARK   18  A    between atoms: C_34  and  C_36
REMARK   19  A    between atoms: C_36  and  C_37
REMARK   20  A    between atoms: C_36  and  N_41
REMARK   21  A    between atoms: C_37  and  C_38
REMARK   22  A    between atoms: C_37  and  C_39
REMARK   23  A    between atoms: C_37  and  C_40
REMARK   24  A    between atoms: C_42  and  O_44
REMARK   25  A    between atoms: O_44  and  C_45
REMARK   26  A    between atoms: C_48  and  O_50
REMARK   27  A    between atoms: O_50  and  C_51
REMARK                            x       y       z     vdW  Elec       q    Type
REMARK                         _______ _______ _______ _____ _____    ______ ____
ROOT
ATOM      1  N   UNL     1      -1.660   1.669  -0.297  0.00  0.00    -0.220 NA
ENDROOT
BRANCH   1   2
ATOM      2  N   UNL     1      -1.441   1.135   1.059  0.00  0.00    -0.246 N 
ATOM      3  H   UNL     1      -0.513   1.215   1.469  0.00  0.00    +0.169 HD
ATOM      4  C   UNL     1      -2.505   0.607   1.801  0.00  0.00    +0.248 C 
ATOM      5  O   UNL     1      -3.611   0.367   1.310  0.00  0.00    -0.272 OA
BRANCH   4   6
ATOM      6  C   UNL     1      -2.218   0.333   3.330  0.00  0.00    +0.169 C 
BRANCH   6   7
ATOM      7  C   UNL     1      -2.995   1.312   4.299  0.00  0.00    -0.011 C 
ATOM      8  C   UNL     1      -2.582   2.770   4.023  0.00  0.00    +0.013 C 
ATOM      9  C   UNL     1      -2.738   1.023   5.796  0.00  0.00    +0.013 C 
ATOM     10  C   UNL     1      -4.511   1.214   4.105  0.00  0.00    +0.013 C 
ENDBRANCH   6   7
BRANCH   6  11
ATOM     11  N   UNL     1      -2.587  -1.062   3.580  0.00  0.00    -0.269 N 
ATOM     12  H   UNL     1      -3.418  -1.435   3.135  0.00  0.00    +0.153 HD
ATOM     13  C   UNL     1      -1.959  -1.875   4.473  0.00  0.00    +0.401 C 
ATOM     14  O   UNL     1      -0.976  -1.568   5.129  0.00  0.00    -0.226 OA
BRANCH  13  15
ATOM     15  O   UNL     1      -2.609  -3.063   4.536  0.00  0.00    -0.454 OA
ATOM     16  C   UNL     1      -2.054  -4.005   5.459  0.00  0.00    +0.282 C 
ENDBRANCH  13  15
ENDBRANCH   6  11
ENDBRANCH   4   6
ENDBRANCH   1   2
BRANCH   1  17
ATOM     17  C   UNL     1      -2.019   3.121  -0.161  0.00  0.00    +0.139 C 
BRANCH  17  18
ATOM     18  C   UNL     1      -2.087   4.153  -1.349  0.00  0.00    +0.151 C 
BRANCH  18  19
ATOM     19  O   UNL     1      -0.793   4.118  -1.977  0.00  0.00    -0.389 OA
ATOM     20  H   UNL     1      -0.745   4.752  -2.704  0.00  0.00    +0.210 HD
ENDBRANCH  18  19
BRANCH  18  21
ATOM     21  C   UNL     1      -3.315   4.124  -2.362  0.00  0.00    +0.107 C 
BRANCH  21  23
ATOM     22  C   UNL     1      -5.878   4.533  -2.328  0.00  0.00    +0.234 C 
ATOM     23  N   UNL     1      -4.632   4.402  -1.690  0.00  0.00    -0.308 N 
ATOM     24  H   UNL     1      -4.735   3.971  -0.782  0.00  0.00    +0.149 HD
ATOM     25  O   UNL     1      -6.007   4.695  -3.537  0.00  0.00    -0.274 OA
BRANCH  22  26
ATOM     26  C   UNL     1      -7.141   4.512  -1.351  0.00  0.00    +0.167 C 
BRANCH  26  27
ATOM     27  N   UNL     1      -6.702   3.888  -0.103  0.00  0.00    -0.269 N 
ATOM     28  H   UNL     1      -6.145   4.410   0.557  0.00  0.00    +0.153 HD
ATOM     29  C   UNL     1      -7.214   2.728   0.369  0.00  0.00    +0.401 C 
ATOM     30  O   UNL     1      -8.024   2.017  -0.200  0.00  0.00    -0.226 OA
BRANCH  29  31
ATOM     31  O   UNL     1      -6.693   2.523   1.595  0.00  0.00    -0.454 OA
ATOM     32  C   UNL     1      -7.130   1.322   2.224  0.00  0.00    +0.282 C 
ENDBRANCH  29  31
ENDBRANCH  26  27
BRANCH  26  34
ATOM     33  C   UNL     1      -8.538   6.504  -2.276  0.00  0.00    +0.013 C 
ATOM     34  C   UNL     1      -7.881   5.868  -1.027  0.00  0.00    -0.011 C 
ATOM     35  C   UNL     1      -9.039   5.648  -0.004  0.00  0.00    +0.013 C 
ATOM     36  C   UNL     1      -6.905   6.870  -0.384  0.00  0.00    +0.013 C 
ENDBRANCH  26  34
ENDBRANCH  22  26
ENDBRANCH  21  23
BRANCH  21  37
ATOM     37  C   UNL     1      -3.041   5.064  -3.591  0.00  0.00    +0.060 C 
BRANCH  37  38
ATOM     38  C   UNL     1      -3.019   6.565  -3.347  0.00  0.00    -0.046 A 
ATOM     39  C   UNL     1      -4.166   7.324  -3.625  0.00  0.00    +0.004 A 
ATOM     40  C   UNL     1      -4.178   8.711  -3.462  0.00  0.00    +0.000 A 
ATOM     41  C   UNL     1      -3.034   9.370  -3.030  0.00  0.00    +0.000 A 
ATOM     42  C   UNL     1      -1.881   8.640  -2.757  0.00  0.00    +0.000 A 
ATOM     43  C   UNL     1      -1.871   7.250  -2.916  0.00  0.00    +0.004 A 
ENDBRANCH  37  38
ENDBRANCH  21  37
ENDBRANCH  18  21
ENDBRANCH  17  18
ENDBRANCH   1  17
BRANCH   1  44
ATOM     44  C   UNL     1      -0.470   1.450  -1.185  0.00  0.00    +0.140 C 
BRANCH  44  45
ATOM     45  C   UNL     1      -0.140   0.027  -1.615  0.00  0.00    -0.032 A 
ATOM     46  C   UNL     1       1.102  -0.320  -2.182  0.00  0.00    +0.005 A 
ATOM     47  C   UNL     1       1.334  -1.596  -2.759  0.00  0.00    +0.010 A 
ATOM     48  C   UNL     1       0.316  -2.554  -2.793  0.00  0.00    +0.000 A 
ATOM     49  C   UNL     1      -0.911  -2.194  -2.202  0.00  0.00    +0.010 A 
ATOM     50  C   UNL     1      -1.140  -0.937  -1.642  0.00  0.00    +0.005 A 
BRANCH  48  51
ATOM     51  C   UNL     1       0.448  -3.925  -3.342  0.00  0.00    +0.071 A 
ATOM     52  N   UNL     1       1.563  -4.623  -3.013  0.00  0.00    -0.255 NA
ATOM     53  C   UNL     1       1.504  -5.973  -3.146  0.00  0.00    +0.111 A 
ATOM     54  C   UNL     1       0.385  -6.670  -3.578  0.00  0.00    +0.020 A 
ATOM     55  C   UNL     1      -0.709  -5.938  -4.007  0.00  0.00    +0.004 A 
ATOM     56  C   UNL     1      -0.658  -4.551  -3.934  0.00  0.00    +0.028 A 
ENDBRANCH  48  51
ENDBRANCH  44  45
ENDBRANCH   1  44
TORSDOF 19
