REMARK  Name = 
REMARK  6 active torsions:
REMARK  status: ('A' for Active; 'I' for Inactive)
REMARK    1  A    between atoms: C6_3  and  N6_23
REMARK    2  A    between atoms: N9_7  and  C1*_10
REMARK    3  A    between atoms: C2*_12  and  O2*_22
REMARK    4  A    between atoms: C3*_14  and  O3*_21
REMARK    5  A    between atoms: C4*_16  and  C5*_19
REMARK    6  A    between atoms: C5*_19  and  O5*_20
REMARK                            x       y       z     vdW  Elec       q    Type
REMARK                         _______ _______ _______ _____ _____    ______ ____
ROOT
ATOM      1  C2    A A   1      -1.752   0.562  -1.258  0.00  0.00    +0.225 A 
ATOM      2  N3    A A   1      -0.737   1.394  -0.921  0.00  0.00    -0.216 NA
ATOM      3  C4    A A   1       0.289   0.706  -0.387  0.00  0.00    +0.167 A 
ATOM      4  N9    A A   1       1.476   1.186   0.093  0.00  0.00    -0.286 N 
ATOM      5  C8    A A   1       2.196   0.101   0.543  0.00  0.00    +0.203 A 
ATOM      6  N7    A A   1       1.552  -1.033   0.376  0.00  0.00    -0.231 NA
ATOM      7  C5    A A   1       0.357  -0.668  -0.203  0.00  0.00    +0.147 A 
ATOM      8  C6    A A   1      -0.751  -1.426  -0.616  0.00  0.00    +0.147 A 
ATOM      9  N1    A A   1      -1.818  -0.780  -1.132  0.00  0.00    -0.219 NA
ENDROOT
BRANCH   4  10
ATOM     10  C1*   A A   1       2.026   2.520   0.048  0.00  0.00    +0.253 C 
ATOM     11  O4*   A A   1       2.443   2.897   1.379  0.00  0.00    -0.346 OA
ATOM     12  C4*   A A   1       2.470   4.346   1.428  0.00  0.00    +0.177 C 
ATOM     13  C3*   A A   1       2.047   4.856   0.040  0.00  0.00    +0.178 C 
ATOM     14  C2*   A A   1       1.211   3.703  -0.497  0.00  0.00    +0.195 C 
BRANCH  13  15
ATOM     15  O3*   A A   1       3.210   5.029  -0.779  0.00  0.00    -0.386 OA
ATOM     16  H3*   A A   1       2.950   5.574  -1.545  0.00  0.00    +0.210 HD
ENDBRANCH  13  15
BRANCH  14  17
ATOM     17  O2*   A A   1      -0.103   3.848   0.041  0.00  0.00    -0.385 OA
ATOM     18  H2*   A A   1      -0.609   3.054  -0.234  0.00  0.00    +0.210 HD
ENDBRANCH  14  17
BRANCH  12  19
ATOM     19  C5*   A A   1       1.537   4.836   2.546  0.00  0.00    +0.190 C 
BRANCH  19  20
ATOM     20  O5*   A A   1       1.975   4.404   3.835  0.00  0.00    -0.392 OA
ATOM     21  H5*   A A   1       2.942   4.484   3.873  0.00  0.00    +0.210 HD
ENDBRANCH  19  20
ENDBRANCH  12  19
ENDBRANCH   4  10
BRANCH   8  22
ATOM     22  N6    A A   1      -0.806  -2.809  -0.500  0.00  0.00    -0.341 N 
ATOM     23  H61   A A   1      -0.148  -3.177   0.179  0.00  0.00    +0.144 HD
ATOM     24  H62   A A   1      -1.757  -3.151  -0.464  0.00  0.00    +0.144 HD
ENDBRANCH   8  22
TORSDOF 6
