REMARK  Name = 
REMARK  6 active torsions:
REMARK  status: ('A' for Active; 'I' for Inactive)
REMARK    1  A    between atoms: C6_3  and  N6_23
REMARK    2  A    between atoms: N9_7  and  C1*_10
REMARK    3  A    between atoms: C2*_12  and  O2*_22
REMARK    4  A    between atoms: C3*_14  and  O3*_21
REMARK    5  A    between atoms: C4*_16  and  C5*_19
REMARK    6  A    between atoms: C5*_19  and  O5*_20
REMARK                            x       y       z     vdW  Elec       q    Type
REMARK                         _______ _______ _______ _____ _____    ______ ____
ROOT
ATOM      1  C2    A A   1      -1.701   0.535  -1.387  0.00  0.00    +0.225 A 
ATOM      2  N3    A A   1      -0.694   1.366  -1.032  0.00  0.00    -0.216 NA
ATOM      3  C4    A A   1       0.314   0.684  -0.453  0.00  0.00    +0.167 A 
ATOM      4  N9    A A   1       1.483   1.167   0.066  0.00  0.00    -0.286 N 
ATOM      5  C8    A A   1       2.185   0.088   0.557  0.00  0.00    +0.203 A 
ATOM      6  N7    A A   1       1.544  -1.045   0.384  0.00  0.00    -0.231 NA
ATOM      7  C5    A A   1       0.370  -0.688  -0.245  0.00  0.00    +0.147 A 
ATOM      8  C6    A A   1      -0.729  -1.447  -0.683  0.00  0.00    +0.147 A 
ATOM      9  N1    A A   1      -1.776  -0.803  -1.242  0.00  0.00    -0.219 NA
ENDROOT
BRANCH   4  10
ATOM     10  C1*   A A   1       2.017   2.508   0.057  0.00  0.00    +0.253 C 
ATOM     11  O4*   A A   1       2.325   2.887   1.417  0.00  0.00    -0.346 OA
ATOM     12  C4*   A A   1       2.447   4.333   1.438  0.00  0.00    +0.177 C 
ATOM     13  C3*   A A   1       1.987   4.848   0.063  0.00  0.00    +0.178 C 
ATOM     14  C2*   A A   1       1.194   3.676  -0.502  0.00  0.00    +0.195 C 
BRANCH  13  15
ATOM     15  O3*   A A   1       3.141   5.067  -0.761  0.00  0.00    -0.386 OA
ATOM     16  H3*   A A   1       2.864   5.635  -1.503  0.00  0.00    +0.210 HD
ENDBRANCH  13  15
BRANCH  14  17
ATOM     17  O2*   A A   1      -0.133   3.754   0.020  0.00  0.00    -0.385 OA
ATOM     18  H2*   A A   1      -0.636   3.014  -0.383  0.00  0.00    +0.210 HD
ENDBRANCH  14  17
BRANCH  12  19
ATOM     19  C5*   A A   1       1.649   4.881   2.628  0.00  0.00    +0.190 C 
BRANCH  19  20
ATOM     20  O5*   A A   1       0.250   4.642   2.552  0.00  0.00    -0.392 OA
ATOM     21  H5*   A A   1       0.105   3.840   2.013  0.00  0.00    +0.210 HD
ENDBRANCH  19  20
ENDBRANCH  12  19
ENDBRANCH   4  10
BRANCH   8  22
ATOM     22  N6    A A   1      -0.798  -2.828  -0.549  0.00  0.00    -0.341 N 
ATOM     23  H61   A A   1      -0.168  -3.192   0.158  0.00  0.00    +0.144 HD
ATOM     24  H62   A A   1      -1.753  -3.162  -0.542  0.00  0.00    +0.144 HD
ENDBRANCH   8  22
TORSDOF 6
