REMARK  Name = 
REMARK  16 active torsions:
REMARK  status: ('A' for Active; 'I' for Inactive)
REMARK    1  A    between atoms: C_1  and  C_2
REMARK    2  A    between atoms: C_2  and  C_3
REMARK    3  A    between atoms: C_2  and  C_4
REMARK    4  A    between atoms: C_4  and  N_5
REMARK    5  A    between atoms: N_5  and  C_6
REMARK    6  A    between atoms: N_5  and  S_26
REMARK    7  A    between atoms: C_6  and  C_7
REMARK    8  A    between atoms: C_7  and  C_8
REMARK    9  A    between atoms: C_7  and  O_25
REMARK   10  A    between atoms: C_8  and  C_9
REMARK   11  A    between atoms: C_8  and  N_16
REMARK   12  A    between atoms: C_9  and  C_10
REMARK   13  A    between atoms: C_17  and  O_19
REMARK   14  A    between atoms: O_19  and  C_20
REMARK   15  A    between atoms: S_26  and  C_29
REMARK   16  A    between atoms: C_32  and  N_35
REMARK                            x       y       z     vdW  Elec       q    Type
REMARK                         _______ _______ _______ _____ _____    ______ ____
ROOT
ATOM      1  C   UNL     1       3.866   1.836   1.040  0.00  0.00    +0.151 C 
ENDROOT
BRANCH   1   2
ATOM      2  O   UNL     1       4.306   3.124   1.480  0.00  0.00    -0.389 OA
ATOM      3  H   UNL     1       4.271   3.745   0.733  0.00  0.00    +0.210 HD
ENDBRANCH   1   2
BRANCH   1   4
ATOM      4  C   UNL     1       4.690   0.840   1.855  0.00  0.00    +0.142 C 
BRANCH   4   5
ATOM      5  N   UNL     1       6.203   1.107   1.806  0.00  0.00    -0.174 NA
BRANCH   5   6
ATOM      6  S   UNL     1       7.061  -0.015   2.877  0.00  0.00    +0.061 S 
ATOM      7  O   UNL     1       6.408   0.010   4.169  0.00  0.00    -0.153 OA
ATOM      8  O   UNL     1       8.480   0.193   2.747  0.00  0.00    -0.153 OA
BRANCH   6   9
ATOM      9  C   UNL     1       6.690  -1.612   2.146  0.00  0.00    +0.106 A 
ATOM     10  C   UNL     1       5.831  -2.510   2.785  0.00  0.00    +0.030 A 
ATOM     11  C   UNL     1       5.399  -3.644   2.093  0.00  0.00    +0.024 A 
ATOM     12  C   UNL     1       5.732  -3.821   0.745  0.00  0.00    +0.025 A 
ATOM     13  C   UNL     1       6.678  -2.981   0.163  0.00  0.00    +0.024 A 
ATOM     14  C   UNL     1       7.194  -1.907   0.877  0.00  0.00    +0.030 A 
BRANCH  12  15
ATOM     15  N   UNL     1       5.252  -4.924   0.025  0.00  0.00    -0.358 N 
ATOM     16  H   UNL     1       4.353  -5.257   0.389  0.00  0.00    +0.142 HD
ATOM     17  H   UNL     1       5.148  -4.704  -0.963  0.00  0.00    +0.142 HD
ENDBRANCH  12  15
ENDBRANCH   6   9
ENDBRANCH   5   6
BRANCH   5  18
ATOM     18  C   UNL     1       6.892   1.285   0.459  0.00  0.00    +0.112 C 
BRANCH  18  20
ATOM     19  C   UNL     1       6.903   3.859   0.021  0.00  0.00    +0.008 C 
ATOM     20  C   UNL     1       6.518   2.467  -0.469  0.00  0.00    -0.001 C 
ATOM     21  C   UNL     1       7.044   2.246  -1.897  0.00  0.00    +0.008 C 
ENDBRANCH  18  20
ENDBRANCH   5  18
ENDBRANCH   4   5
ENDBRANCH   1   4
BRANCH   1  22
ATOM     22  C   UNL     1       2.323   1.843   1.078  0.00  0.00    +0.110 C 
BRANCH  22  23
ATOM     23  N   UNL     1       1.635   0.567   0.750  0.00  0.00    -0.275 N 
ATOM     24  H   UNL     1       0.668   0.508   1.038  0.00  0.00    +0.152 HD
ATOM     25  C   UNL     1       2.035  -0.549   0.091  0.00  0.00    +0.401 C 
ATOM     26  O   UNL     1       3.137  -0.765  -0.408  0.00  0.00    -0.226 OA
BRANCH  25  27
ATOM     27  O   UNL     1       1.017  -1.440   0.191  0.00  0.00    -0.445 OA
BRANCH  27  28
ATOM     28  C   UNL     1       1.173  -2.868   0.094  0.00  0.00    +0.206 C 
ATOM     29  C   UNL     1       2.334  -3.455   0.855  0.00  0.00    +0.204 C 
ATOM     30  O   UNL     1       2.486  -4.790   0.349  0.00  0.00    -0.376 OA
ATOM     31  C   UNL     1       2.054  -4.781  -1.023  0.00  0.00    +0.163 C 
ATOM     32  C   UNL     1       1.332  -3.466  -1.285  0.00  0.00    +0.075 C 
ENDBRANCH  27  28
ENDBRANCH  25  27
ENDBRANCH  22  23
BRANCH  22  33
ATOM     33  C   UNL     1       1.788   2.991   0.132  0.00  0.00    +0.060 C 
BRANCH  33  34
ATOM     34  C   UNL     1       1.909   4.469   0.512  0.00  0.00    -0.046 A 
ATOM     35  C   UNL     1       1.924   4.928   1.836  0.00  0.00    +0.004 A 
ATOM     36  C   UNL     1       1.937   6.301   2.129  0.00  0.00    +0.000 A 
ATOM     37  C   UNL     1       1.925   7.243   1.104  0.00  0.00    +0.000 A 
ATOM     38  C   UNL     1       1.935   6.812  -0.219  0.00  0.00    +0.000 A 
ATOM     39  C   UNL     1       1.928   5.439  -0.510  0.00  0.00    +0.004 A 
ENDBRANCH  33  34
ENDBRANCH  22  33
ENDBRANCH   1  22
TORSDOF 14
