REMARK  Name = 
REMARK  6 active torsions:
REMARK  status: ('A' for Active; 'I' for Inactive)
REMARK    1  A    between atoms: C_3  and  C_19
REMARK    2  A    between atoms: N_5  and  C1*_6
REMARK    3  A    between atoms: C2*_8  and  O2*_18
REMARK    4  A    between atoms: C3*_10  and  O3*_17
REMARK    5  A    between atoms: C4*_12  and  C5*_15
REMARK    6  A    between atoms: C5*_15  and  O5*_16
REMARK                            x       y       z     vdW  Elec       q    Type
REMARK                         _______ _______ _______ _____ _____    ______ ____
ROOT
ATOM      1  C1* UNL     1      -0.866  -2.685  -0.114  0.00  0.00    +0.270 C 
ATOM      2  O4* UNL     1      -1.306  -3.108   1.193  0.00  0.00    -0.344 OA
ATOM      3  C4* UNL     1      -1.081  -4.531   1.320  0.00  0.00    +0.177 C 
ATOM      4  C3* UNL     1      -0.489  -5.035   0.000  0.00  0.00    +0.178 C 
ATOM      5  C2* UNL     1       0.014  -3.785  -0.704  0.00  0.00    +0.196 C 
ENDROOT
BRANCH   1   7
ATOM      6  C   UNL     1      -3.229  -2.962  -1.013  0.00  0.00    +0.223 A 
ATOM      7  N   UNL     1      -2.005  -2.373  -0.967  0.00  0.00    -0.220 N 
ATOM      8  N   UNL     1      -1.876  -1.451  -1.946  0.00  0.00    -0.142 NA
ATOM      9  C   UNL     1      -3.076  -1.510  -2.555  0.00  0.00    +0.236 A 
ATOM     10  N   UNL     1      -3.930  -2.456  -2.002  0.00  0.00    -0.211 NA
BRANCH   9  11
ATOM     11  C   UNL     1      -3.459  -0.692  -3.722  0.00  0.00    +0.281 C 
ATOM     12  N   UNL     1      -4.689  -1.007  -4.245  0.00  0.00    -0.323 N 
ATOM     13  H   UNL     1      -5.023  -0.501  -5.050  0.00  0.00    +0.145 HD
ATOM     14  H   UNL     1      -5.234  -1.754  -3.831  0.00  0.00    +0.145 HD
ATOM     15  O   UNL     1      -2.774   0.197  -4.222  0.00  0.00    -0.267 OA
ENDBRANCH   9  11
ENDBRANCH   1   7
BRANCH   4  16
ATOM     16  O3* UNL     1      -1.549  -5.612  -0.774  0.00  0.00    -0.386 OA
ATOM     17  H3* UNL     1      -1.139  -6.096  -1.515  0.00  0.00    +0.210 HD
ENDBRANCH   4  16
BRANCH   5  18
ATOM     18  O2* UNL     1       1.394  -3.572  -0.394  0.00  0.00    -0.385 OA
ATOM     19  H2* UNL     1       1.703  -2.802  -0.907  0.00  0.00    +0.210 HD
ENDBRANCH   5  18
BRANCH   3  20
ATOM     20  C5* UNL     1      -0.207  -4.814   2.547  0.00  0.00    +0.190 C 
BRANCH  20  21
ATOM     21  O5* UNL     1       1.104  -4.280   2.429  0.00  0.00    -0.392 OA
ATOM     22  H5* UNL     1       1.016  -3.320   2.293  0.00  0.00    +0.210 HD
ENDBRANCH  20  21
ENDBRANCH   3  20
TORSDOF 6
