REMARK  Name = 
REMARK  18 active torsions:
REMARK  status: ('A' for Active; 'I' for Inactive)
REMARK    1  A    between atoms: C_1  and  C_2
REMARK    2  A    between atoms: C_2  and  C_3
REMARK    3  A    between atoms: C_3  and  C_4
REMARK    4  A    between atoms: C_4  and  C_5
REMARK    5  A    between atoms: C_4  and  N_13
REMARK    6  A    between atoms: C_5  and  C_7
REMARK    7  A    between atoms: N_9  and  C_10
REMARK    8  A    between atoms: C_14  and  C_16
REMARK    9  A    between atoms: C_24  and  C_26
REMARK   10  A    between atoms: C_26  and  C_27
REMARK   11  A    between atoms: C_26  and  N_31
REMARK   12  A    between atoms: C_27  and  C_28
REMARK   13  A    between atoms: C_27  and  C_29
REMARK   14  A    between atoms: C_27  and  C_30
REMARK   15  A    between atoms: C_32  and  C_34
REMARK   16  A    between atoms: C_34  and  C_35
REMARK   17  A    between atoms: C_34  and  N_41
REMARK   18  A    between atoms: C_42  and  C_44
REMARK                            x       y       z     vdW  Elec       q    Type
REMARK                         _______ _______ _______ _____ _____    ______ ____
ROOT
ATOM      1  C   UNL     1       8.741   1.258   4.531  0.00  0.00    +0.165 C 
ATOM      2  N   UNL     1       7.354   0.868   4.816  0.00  0.00    -0.288 N 
ATOM      3  C   UNL     1       7.000  -0.254   5.547  0.00  0.00    +0.237 C 
ATOM      4  O   UNL     1       7.866  -0.853   6.187  0.00  0.00    -0.274 OA
ATOM      5  C   UNL     1       6.423   1.661   4.048  0.00  0.00    +0.112 C 
ATOM      6  C   UNL     1       7.205   2.300   2.919  0.00  0.00    +0.012 C 
ATOM      7  C   UNL     1       7.052   1.534   1.598  0.00  0.00    +0.005 C 
ATOM      8  C   UNL     1       8.336   0.739   1.425  0.00  0.00    +0.001 C 
ATOM      9  C   UNL     1       9.385   1.624   2.066  0.00  0.00    +0.006 C 
ATOM     10  C   UNL     1       8.686   2.194   3.301  0.00  0.00    +0.023 C 
ENDROOT
BRANCH   1  13
ATOM     11  N   UNL     1       8.951   2.481   6.693  0.00  0.00    -0.304 N 
ATOM     12  H   UNL     1       7.962   2.200   6.777  0.00  0.00    +0.149 HD
ATOM     13  C   UNL     1       9.582   2.066   5.562  0.00  0.00    +0.234 C 
ATOM     14  O   UNL     1      10.761   2.385   5.308  0.00  0.00    -0.274 OA
BRANCH  11  15
ATOM     15  C   UNL     1       9.336   3.692   7.446  0.00  0.00    +0.149 C 
BRANCH  15  16
ATOM     16  C   UNL     1       8.688   4.986   6.821  0.00  0.00    +0.237 C 
ATOM     17  O   UNL     1       9.224   6.096   6.868  0.00  0.00    -0.285 OA
BRANCH  16  18
ATOM     18  C   UNL     1       7.207   4.968   6.324  0.00  0.00    +0.282 C 
ATOM     19  N   UNL     1       6.389   6.014   6.806  0.00  0.00    -0.306 N 
ATOM     20  H   UNL     1       6.931   6.819   7.083  0.00  0.00    +0.149 HD
ATOM     21  O   UNL     1       6.877   4.142   5.499  0.00  0.00    -0.267 OA
BRANCH  19  22
ATOM     22  C   UNL     1       4.965   6.257   6.563  0.00  0.00    +0.073 C 
ATOM     23  C   UNL     1       4.211   7.146   7.556  0.00  0.00    +0.024 C 
ATOM     24  C   UNL     1       3.740   5.759   7.308  0.00  0.00    +0.024 C 
ENDBRANCH  19  22
ENDBRANCH  16  18
ENDBRANCH  15  16
BRANCH  15  25
ATOM     25  C   UNL     1      10.876   3.804   7.745  0.00  0.00    +0.030 C 
BRANCH  25  27
ATOM     26  C   UNL     1      10.980   4.385  10.270  0.00  0.00    +0.004 C 
ATOM     27  C   UNL     1      11.322   4.792   8.844  0.00  0.00    -0.001 C 
ENDBRANCH  25  27
ENDBRANCH  15  25
ENDBRANCH  11  15
ENDBRANCH   1  13
BRANCH   3  28
ATOM     28  C   UNL     1       5.471  -0.689   5.604  0.00  0.00    +0.164 C 
BRANCH  28  29
ATOM     29  N   UNL     1       4.812  -0.116   6.785  0.00  0.00    -0.302 N 
ATOM     30  H   UNL     1       4.788  -0.756   7.551  0.00  0.00    +0.150 HD
ATOM     31  C   UNL     1       4.012   0.998   6.893  0.00  0.00    +0.234 C 
ATOM     32  O   UNL     1       3.607   1.626   5.908  0.00  0.00    -0.274 OA
BRANCH  31  33
ATOM     33  C   UNL     1       3.605   1.405   8.393  0.00  0.00    +0.162 C 
BRANCH  33  34
ATOM     34  C   UNL     1       3.885   0.291   9.459  0.00  0.00    +0.018 C 
ATOM     35  C   UNL     1       3.164   0.537  10.797  0.00  0.00    +0.006 C 
ATOM     36  C   UNL     1       3.864   1.501  11.760  0.00  0.00    +0.000 C 
ATOM     37  C   UNL     1       5.394   1.440  11.804  0.00  0.00    +0.000 C 
ATOM     38  C   UNL     1       6.100   1.023  10.525  0.00  0.00    +0.000 C 
ATOM     39  C   UNL     1       5.365  -0.045   9.739  0.00  0.00    +0.006 C 
ENDBRANCH  33  34
BRANCH  33  40
ATOM     40  N   UNL     1       3.959   2.756   8.891  0.00  0.00    -0.298 N 
ATOM     41  H   UNL     1       3.440   3.069   9.697  0.00  0.00    +0.150 HD
ATOM     42  C   UNL     1       5.214   3.303   8.628  0.00  0.00    +0.264 C 
ATOM     43  O   UNL     1       5.879   2.855   7.702  0.00  0.00    -0.268 OA
BRANCH  42  44
ATOM     44  C   UNL     1       5.793   4.431   9.489  0.00  0.00    +0.143 A 
ATOM     45  C   UNL     1       5.068   5.258  10.332  0.00  0.00    +0.143 A 
ATOM     46  N   UNL     1       5.535   6.471  10.761  0.00  0.00    -0.259 NA
ATOM     47  C   UNL     1       6.756   6.825  10.310  0.00  0.00    +0.130 A 
ATOM     48  C   UNL     1       7.542   5.948   9.608  0.00  0.00    +0.131 A 
ATOM     49  N   UNL     1       7.092   4.735   9.214  0.00  0.00    -0.247 NA
ENDBRANCH  42  44
ENDBRANCH  33  40
ENDBRANCH  31  33
ENDBRANCH  28  29
BRANCH  28  50
ATOM     50  C   UNL     1       5.265  -2.274   5.632  0.00  0.00    -0.011 C 
ATOM     51  C   UNL     1       5.930  -2.913   4.401  0.00  0.00    +0.013 C 
ATOM     52  C   UNL     1       3.746  -2.592   5.558  0.00  0.00    +0.013 C 
ATOM     53  C   UNL     1       5.803  -2.976   6.903  0.00  0.00    +0.013 C 
ENDBRANCH  28  50
ENDBRANCH   3  28
TORSDOF 14
