REMARK  Name = 
REMARK  18 active torsions:
REMARK  status: ('A' for Active; 'I' for Inactive)
REMARK    1  A    between atoms: C_1  and  C_2
REMARK    2  A    between atoms: C_2  and  C_3
REMARK    3  A    between atoms: C_3  and  C_4
REMARK    4  A    between atoms: C_4  and  C_5
REMARK    5  A    between atoms: C_4  and  N_13
REMARK    6  A    between atoms: C_5  and  C_7
REMARK    7  A    between atoms: N_9  and  C_10
REMARK    8  A    between atoms: C_14  and  C_16
REMARK    9  A    between atoms: C_24  and  C_26
REMARK   10  A    between atoms: C_26  and  C_27
REMARK   11  A    between atoms: C_26  and  N_31
REMARK   12  A    between atoms: C_27  and  C_28
REMARK   13  A    between atoms: C_27  and  C_29
REMARK   14  A    between atoms: C_27  and  C_30
REMARK   15  A    between atoms: C_32  and  C_34
REMARK   16  A    between atoms: C_34  and  C_35
REMARK   17  A    between atoms: C_34  and  N_41
REMARK   18  A    between atoms: C_42  and  C_44
REMARK                            x       y       z     vdW  Elec       q    Type
REMARK                         _______ _______ _______ _____ _____    ______ ____
ROOT
ATOM      1  C   UNL     1       6.841   4.330  -0.143  0.00  0.00    +0.165 C 
ATOM      2  N   UNL     1       8.248   4.382  -0.579  0.00  0.00    -0.288 N 
ATOM      3  C   UNL     1       9.338   3.640  -0.149  0.00  0.00    +0.237 C 
ATOM      4  O   UNL     1      10.370   3.658  -0.831  0.00  0.00    -0.274 OA
ATOM      5  C   UNL     1       8.312   5.051  -1.862  0.00  0.00    +0.112 C 
ATOM      6  C   UNL     1       7.258   6.146  -1.774  0.00  0.00    +0.012 C 
ATOM      7  C   UNL     1       7.846   7.474  -1.270  0.00  0.00    +0.005 C 
ATOM      8  C   UNL     1       7.592   7.482   0.228  0.00  0.00    +0.001 C 
ATOM      9  C   UNL     1       6.239   6.799   0.349  0.00  0.00    +0.006 C 
ATOM     10  C   UNL     1       6.259   5.662  -0.686  0.00  0.00    +0.023 C 
ENDROOT
BRANCH   1  13
ATOM     11  N   UNL     1       4.807   2.956  -0.804  0.00  0.00    -0.304 N 
ATOM     12  H   UNL     1       4.247   3.552  -0.206  0.00  0.00    +0.149 HD
ATOM     13  C   UNL     1       6.187   3.077  -0.815  0.00  0.00    +0.234 C 
ATOM     14  O   UNL     1       6.883   2.175  -1.295  0.00  0.00    -0.274 OA
BRANCH  11  15
ATOM     15  C   UNL     1       4.199   1.697  -1.299  0.00  0.00    +0.149 C 
BRANCH  15  16
ATOM     16  C   UNL     1       2.800   1.889  -1.899  0.00  0.00    +0.237 C 
ATOM     17  O   UNL     1       1.857   2.423  -1.323  0.00  0.00    -0.285 OA
BRANCH  16  18
ATOM     18  C   UNL     1       2.592   1.306  -3.313  0.00  0.00    +0.282 C 
ATOM     19  N   UNL     1       1.278   1.049  -3.660  0.00  0.00    -0.306 N 
ATOM     20  H   UNL     1       0.552   1.259  -2.982  0.00  0.00    +0.149 HD
ATOM     21  O   UNL     1       3.560   1.085  -4.027  0.00  0.00    -0.267 OA
BRANCH  19  22
ATOM     22  C   UNL     1       0.934   0.465  -4.927  0.00  0.00    +0.073 C 
ATOM     23  C   UNL     1       0.420   1.320  -6.052  0.00  0.00    +0.024 C 
ATOM     24  C   UNL     1      -0.491   0.333  -5.387  0.00  0.00    +0.024 C 
ENDBRANCH  19  22
ENDBRANCH  16  18
ENDBRANCH  15  16
BRANCH  15  25
ATOM     25  C   UNL     1       4.147   0.699  -0.127  0.00  0.00    +0.030 C 
BRANCH  25  27
ATOM     26  C   UNL     1       3.754  -1.652   0.658  0.00  0.00    +0.004 C 
ATOM     27  C   UNL     1       3.718  -0.709  -0.535  0.00  0.00    -0.001 C 
ENDBRANCH  25  27
ENDBRANCH  15  25
ENDBRANCH  11  15
ENDBRANCH   1  13
BRANCH   3  28
ATOM     28  C   UNL     1       9.352   3.006   1.282  0.00  0.00    +0.164 C 
BRANCH  28  29
ATOM     29  N   UNL     1       9.928   4.048   2.162  0.00  0.00    -0.302 N 
ATOM     30  H   UNL     1      10.848   4.384   1.910  0.00  0.00    +0.150 HD
ATOM     31  C   UNL     1       9.410   4.341   3.399  0.00  0.00    +0.234 C 
ATOM     32  O   UNL     1       8.377   3.817   3.816  0.00  0.00    -0.274 OA
BRANCH  31  33
ATOM     33  C   UNL     1      10.221   5.348   4.260  0.00  0.00    +0.162 C 
BRANCH  33  34
ATOM     34  C   UNL     1       9.540   6.744   4.341  0.00  0.00    +0.018 C 
ATOM     35  C   UNL     1      10.442   7.815   4.995  0.00  0.00    +0.006 C 
ATOM     36  C   UNL     1      10.415   7.828   6.523  0.00  0.00    +0.000 C 
ATOM     37  C   UNL     1       8.995   7.921   7.064  0.00  0.00    +0.000 C 
ATOM     38  C   UNL     1       8.102   6.823   6.501  0.00  0.00    +0.000 C 
ATOM     39  C   UNL     1       8.133   6.780   4.974  0.00  0.00    +0.006 C 
ENDBRANCH  33  34
BRANCH  33  40
ATOM     40  N   UNL     1      10.451   4.738   5.556  0.00  0.00    -0.298 N 
ATOM     41  H   UNL     1       9.654   4.403   6.094  0.00  0.00    +0.150 HD
ATOM     42  C   UNL     1      11.702   4.428   6.040  0.00  0.00    +0.264 C 
ATOM     43  O   UNL     1      12.741   4.624   5.418  0.00  0.00    -0.268 OA
BRANCH  42  44
ATOM     44  C   UNL     1      11.721   3.869   7.421  0.00  0.00    +0.143 A 
ATOM     45  C   UNL     1      12.932   3.659   8.065  0.00  0.00    +0.143 A 
ATOM     46  N   UNL     1      13.003   3.204   9.343  0.00  0.00    -0.259 NA
ATOM     47  C   UNL     1      11.812   2.970   9.940  0.00  0.00    +0.130 A 
ATOM     48  C   UNL     1      10.601   3.180   9.296  0.00  0.00    +0.131 A 
ATOM     49  N   UNL     1      10.518   3.637   8.023  0.00  0.00    -0.247 NA
ENDBRANCH  42  44
ENDBRANCH  33  40
ENDBRANCH  31  33
ENDBRANCH  28  29
BRANCH  28  50
ATOM     50  C   UNL     1      10.167   1.653   1.404  0.00  0.00    -0.011 C 
ATOM     51  C   UNL     1       9.488   0.571   0.540  0.00  0.00    +0.013 C 
ATOM     52  C   UNL     1      10.164   1.121   2.861  0.00  0.00    +0.013 C 
ATOM     53  C   UNL     1      11.657   1.765   1.006  0.00  0.00    +0.013 C 
ENDBRANCH  28  50
ENDBRANCH   3  28
TORSDOF 14
