REMARK  Name = 
REMARK  7 active torsions:
REMARK  status: ('A' for Active; 'I' for Inactive)
REMARK    1  A    between atoms: C_3  and  N_4
REMARK    2  A    between atoms: N_4  and  C_5
REMARK    3  A    between atoms: N_12  and  C_15
REMARK    4  A    between atoms: C_17  and  C_20
REMARK    5  A    between atoms: C_20  and  O_21
REMARK    6  A    between atoms: O_22  and  S_23
REMARK    7  A    between atoms: S_23  and  O_26
REMARK                            x       y       z     vdW  Elec       q    Type
REMARK                         _______ _______ _______ _____ _____    ______ ____
ROOT
ATOM      1  C   UNL     1       2.860  -1.189   1.727  0.00  0.00    +0.152 A 
ATOM      2  N   UNL     1       3.484  -0.002   1.954  0.00  0.00    -0.198 NA
ATOM      3  C   UNL     1       4.823   0.084   1.843  0.00  0.00    +0.216 A 
ATOM      4  N   UNL     1       5.363   1.358   1.904  0.00  0.00    -0.327 N 
ATOM      5  H   UNL     1       4.628   2.004   1.620  0.00  0.00    +0.145 HD
ATOM      6  H   UNL     1       6.201   1.383   1.340  0.00  0.00    +0.145 HD
ATOM      7  N   UNL     1       5.677  -0.916   1.574  0.00  0.00    -0.195 NA
ATOM      8  C   UNL     1       5.038  -2.082   1.408  0.00  0.00    +0.168 A 
ATOM      9  N   UNL     1       5.590  -3.314   1.177  0.00  0.00    -0.308 N 
ATOM     10  C   UNL     1       4.551  -4.199   1.034  0.00  0.00    +0.202 A 
ATOM     11  N   UNL     1       3.377  -3.620   1.181  0.00  0.00    -0.231 NA
ATOM     12  C   UNL     1       3.673  -2.299   1.443  0.00  0.00    +0.148 A 
ENDROOT
BRANCH   9  13
ATOM     13  C   UNL     1       7.017  -3.599   1.178  0.00  0.00    +0.113 C 
ATOM     14  C   UNL     1       7.334  -5.002   1.614  0.00  0.00    -0.006 C 
ATOM     15  C   UNL     1       7.695  -5.776   0.584  0.00  0.00    -0.023 C 
ATOM     16  C   UNL     1       7.699  -5.009  -0.712  0.00  0.00    +0.039 C 
ATOM     17  C   UNL     1       7.669  -3.552  -0.214  0.00  0.00    +0.039 C 
BRANCH  16  18
ATOM     18  C   UNL     1       8.917  -5.303  -1.590  0.00  0.00    +0.163 C 
BRANCH  18  19
ATOM     19  O   UNL     1       8.842  -6.624  -2.119  0.00  0.00    -0.394 OA
ATOM     20  H   UNL     1       8.982  -7.243  -1.382  0.00  0.00    +0.209 HD
ENDBRANCH  18  19
ENDBRANCH  16  18
ENDBRANCH   9  13
BRANCH   1  21
ATOM     21  N   UNL     1       1.454  -1.294   1.711  0.00  0.00    -0.324 N 
ATOM     22  H   UNL     1       1.186  -2.277   1.693  0.00  0.00    +0.148 HD
BRANCH  21  24
ATOM     23  C   UNL     1      -0.140  -0.776   3.661  0.00  0.00    +0.024 C 
ATOM     24  C   UNL     1       0.630  -0.341   2.446  0.00  0.00    +0.072 C 
ATOM     25  C   UNL     1      -0.871  -0.443   2.394  0.00  0.00    +0.024 C 
ENDBRANCH  21  24
ENDBRANCH   1  21
TORSDOF 5
REMARK  Name = 
REMARK  7 active torsions:
REMARK  status: ('A' for Active; 'I' for Inactive)
REMARK    1  A    between atoms: C_3  and  N_4
REMARK    2  A    between atoms: N_4  and  C_5
REMARK    3  A    between atoms: N_12  and  C_15
REMARK    4  A    between atoms: C_17  and  C_20
REMARK    5  A    between atoms: C_20  and  O_21
REMARK    6  A    between atoms: O_22  and  S_23
REMARK    7  A    between atoms: S_23  and  O_26
REMARK                            x       y       z     vdW  Elec       q    Type
REMARK                         _______ _______ _______ _____ _____    ______ ____
ROOT
ATOM      1  S   UNL     1       3.012   1.731  -1.180  0.00  0.00    +0.205 S 
ATOM      2  O   UNL     1       3.096   2.347   0.121  0.00  0.00    -0.118 OA
ATOM      3  O   UNL     1       3.784   2.191  -2.310  0.00  0.00    -0.118 OA
ENDROOT
BRANCH   1   4
ATOM      4  O   UNL     1       1.463   1.743  -1.597  0.00  0.00    -0.231 OA
ATOM      5  H   UNL     1       0.943   1.764  -0.766  0.00  0.00    +0.247 HD
ENDBRANCH   1   4
BRANCH   1   6
ATOM      6  O   UNL     1       3.284   0.159  -1.050  0.00  0.00    -0.231 OA
ATOM      7  H   UNL     1       3.099  -0.261  -1.912  0.00  0.00    +0.247 HD
ENDBRANCH   1   6
TORSDOF 2
