REMARK  Name = 
REMARK  7 active torsions:
REMARK  status: ('A' for Active; 'I' for Inactive)
REMARK    1  A    between atoms: C_3  and  N_4
REMARK    2  A    between atoms: N_4  and  C_5
REMARK    3  A    between atoms: N_12  and  C_15
REMARK    4  A    between atoms: C_17  and  C_20
REMARK    5  A    between atoms: C_20  and  O_21
REMARK    6  A    between atoms: O_22  and  S_23
REMARK    7  A    between atoms: S_23  and  O_26
REMARK                            x       y       z     vdW  Elec       q    Type
REMARK                         _______ _______ _______ _____ _____    ______ ____
ROOT
ATOM      1  C   UNL     1       2.903  -0.923   1.907  0.00  0.00    +0.152 A 
ATOM      2  N   UNL     1       3.588   0.262   1.958  0.00  0.00    -0.198 NA
ATOM      3  C   UNL     1       4.928   0.261   1.805  0.00  0.00    +0.216 A 
ATOM      4  N   UNL     1       5.532   1.500   1.754  0.00  0.00    -0.327 N 
ATOM      5  H   UNL     1       4.887   2.235   1.500  0.00  0.00    +0.145 HD
ATOM      6  H   UNL     1       6.383   1.448   1.211  0.00  0.00    +0.145 HD
ATOM      7  N   UNL     1       5.708  -0.800   1.580  0.00  0.00    -0.195 NA
ATOM      8  C   UNL     1       5.004  -1.937   1.493  0.00  0.00    +0.168 A 
ATOM      9  N   UNL     1       5.486  -3.201   1.282  0.00  0.00    -0.308 N 
ATOM     10  C   UNL     1       4.401  -4.039   1.221  0.00  0.00    +0.202 A 
ATOM     11  N   UNL     1       3.267  -3.401   1.421  0.00  0.00    -0.231 NA
ATOM     12  C   UNL     1       3.631  -2.086   1.611  0.00  0.00    +0.148 A 
ENDROOT
BRANCH   9  13
ATOM     13  C   UNL     1       6.897  -3.551   1.208  0.00  0.00    +0.113 C 
ATOM     14  C   UNL     1       7.168  -4.974   1.607  0.00  0.00    -0.006 C 
ATOM     15  C   UNL     1       7.426  -5.748   0.547  0.00  0.00    -0.023 C 
ATOM     16  C   UNL     1       7.404  -4.958  -0.736  0.00  0.00    +0.039 C 
ATOM     17  C   UNL     1       7.479  -3.511  -0.215  0.00  0.00    +0.039 C 
BRANCH  16  18
ATOM     18  C   UNL     1       8.560  -5.304  -1.676  0.00  0.00    +0.163 C 
BRANCH  18  19
ATOM     19  O   UNL     1       8.390  -6.613  -2.214  0.00  0.00    -0.394 OA
ATOM     20  H   UNL     1       8.502  -7.249  -1.487  0.00  0.00    +0.209 HD
ENDBRANCH  18  19
ENDBRANCH  16  18
ENDBRANCH   9  13
BRANCH   1  21
ATOM     21  N   UNL     1       1.506  -0.914   2.059  0.00  0.00    -0.324 N 
ATOM     22  H   UNL     1       1.041  -1.343   1.264  0.00  0.00    +0.148 HD
BRANCH  21  24
ATOM     23  C   UNL     1       0.820  -0.050   4.348  0.00  0.00    +0.024 C 
ATOM     24  C   UNL     1       0.871   0.128   2.853  0.00  0.00    +0.072 C 
ATOM     25  C   UNL     1      -0.446  -0.080   3.546  0.00  0.00    +0.024 C 
ENDBRANCH  21  24
ENDBRANCH   1  21
TORSDOF 5
REMARK  Name = 
REMARK  7 active torsions:
REMARK  status: ('A' for Active; 'I' for Inactive)
REMARK    1  A    between atoms: C_3  and  N_4
REMARK    2  A    between atoms: N_4  and  C_5
REMARK    3  A    between atoms: N_12  and  C_15
REMARK    4  A    between atoms: C_17  and  C_20
REMARK    5  A    between atoms: C_20  and  O_21
REMARK    6  A    between atoms: O_22  and  S_23
REMARK    7  A    between atoms: S_23  and  O_26
REMARK                            x       y       z     vdW  Elec       q    Type
REMARK                         _______ _______ _______ _____ _____    ______ ____
ROOT
ATOM      1  S   UNL     1       2.918   1.151  -1.325  0.00  0.00    +0.205 S 
ATOM      2  O   UNL     1       3.893   2.092  -1.816  0.00  0.00    -0.118 OA
ATOM      3  O   UNL     1       3.226  -0.241  -1.095  0.00  0.00    -0.118 OA
ENDROOT
BRANCH   1   4
ATOM      4  O   UNL     1       1.634   1.164  -2.279  0.00  0.00    -0.231 OA
ATOM      5  H   UNL     1       1.091   0.382  -2.054  0.00  0.00    +0.247 HD
ENDBRANCH   1   4
BRANCH   1   6
ATOM      6  O   UNL     1       2.316   1.736   0.048  0.00  0.00    -0.231 OA
ATOM      7  H   UNL     1       2.719   1.247   0.806  0.00  0.00    +0.247 HD
ENDBRANCH   1   6
TORSDOF 2
