REMARK  Name = 
REMARK  11 active torsions:
REMARK  status: ('A' for Active; 'I' for Inactive)
REMARK    1  A    between atoms: C_1  and  C_2
REMARK    2  A    between atoms: C_5  and  C_35
REMARK    3  A    between atoms: N_6  and  C_7
REMARK    4  A    between atoms: N_14  and  C_15
REMARK    5  A    between atoms: C_15  and  C_16
REMARK    6  A    between atoms: C_16  and  C_17
REMARK    7  A    between atoms: C_17  and  C_18
REMARK    8  A    between atoms: C_17  and  N_24
REMARK    9  A    between atoms: C_25  and  C_27
REMARK   10  A    between atoms: C_35  and  C_36
REMARK   11  A    between atoms: C_35  and  C_37
REMARK                            x       y       z     vdW  Elec       q    Type
REMARK                         _______ _______ _______ _____ _____    ______ ____
ROOT
ATOM      1  C   UNL     1      -0.552  -5.805   1.385  0.00  0.00    +0.042 C 
ENDROOT
BRANCH   1   2
ATOM      2  C   UNL     1      -0.031  -5.413  -0.008  0.00  0.00    +0.087 C 
BRANCH   2   6
ATOM      3  C   UNL     1       2.695  -2.372  -0.035  0.00  0.00    +0.093 C 
ATOM      4  C   UNL     1       3.294  -3.595   0.703  0.00  0.00    +0.044 C 
ATOM      5  C   UNL     1       2.348  -4.843   0.607  0.00  0.00    +0.059 C 
ATOM      6  N   UNL     1       1.072  -4.430  -0.021  0.00  0.00    -0.296 NA
ATOM      7  C   UNL     1       1.506  -4.165  -1.413  0.00  0.00    +0.059 C 
ATOM      8  C   UNL     1       2.492  -5.306  -1.738  0.00  0.00    +0.020 C 
ATOM      9  C   UNL     1       2.911  -5.862  -0.381  0.00  0.00    +0.020 C 
ATOM     10  C   UNL     1       2.199  -2.786  -1.431  0.00  0.00    +0.044 C 
BRANCH   3  13
ATOM     11  C   UNL     1       2.536  -0.537   2.396  0.00  0.00    +0.088 C 
ATOM     12  C   UNL     1       3.345  -0.284   1.179  0.00  0.00    +0.131 A 
ATOM     13  N   UNL     1       3.455  -1.129   0.078  0.00  0.00    -0.312 N 
ATOM     14  C   UNL     1       4.267  -0.442  -0.810  0.00  0.00    +0.136 A 
ATOM     15  N   UNL     1       4.601   0.714  -0.265  0.00  0.00    -0.134 NA
ATOM     16  N   UNL     1       4.041   0.807   0.967  0.00  0.00    -0.135 NA
BRANCH  14  17
ATOM     17  C   UNL     1       4.745  -0.838  -2.180  0.00  0.00    +0.051 C 
ATOM     18  C   UNL     1       6.130  -0.225  -2.461  0.00  0.00    +0.015 C 
ATOM     19  C   UNL     1       3.784  -0.338  -3.266  0.00  0.00    +0.015 C 
ENDBRANCH  14  17
ENDBRANCH   3  13
ENDBRANCH   2   6
ENDBRANCH   1   2
BRANCH   1  20
ATOM     20  C   UNL     1      -1.776  -6.755   1.288  0.00  0.00    +0.104 C 
BRANCH  20  21
ATOM     21  C   UNL     1      -1.453  -8.070   0.601  0.00  0.00    -0.027 A 
ATOM     22  C   UNL     1      -2.154  -8.429  -0.563  0.00  0.00    +0.005 A 
ATOM     23  C   UNL     1      -1.796  -9.564  -1.290  0.00  0.00    +0.000 A 
ATOM     24  C   UNL     1      -0.742 -10.364  -0.856  0.00  0.00    +0.000 A 
ATOM     25  C   UNL     1      -0.069 -10.048   0.322  0.00  0.00    +0.000 A 
ATOM     26  C   UNL     1      -0.425  -8.912   1.052  0.00  0.00    +0.005 A 
ENDBRANCH  20  21
BRANCH  20  27
ATOM     27  N   UNL     1      -2.354  -6.994   2.605  0.00  0.00    -0.308 N 
ATOM     28  H   UNL     1      -1.994  -7.756   3.163  0.00  0.00    +0.149 HD
ATOM     29  C   UNL     1      -3.327  -6.160   3.105  0.00  0.00    +0.217 C 
ATOM     30  O   UNL     1      -3.846  -5.280   2.424  0.00  0.00    -0.275 OA
BRANCH  29  31
ATOM     31  C   UNL     1      -3.694  -6.388   4.574  0.00  0.00    +0.075 C 
ATOM     32  C   UNL     1      -4.828  -5.443   5.027  0.00  0.00    +0.018 C 
ATOM     33  C   UNL     1      -4.396  -3.978   5.119  0.00  0.00    +0.076 C 
ATOM     34  C   UNL     1      -3.116  -3.801   5.917  0.00  0.00    +0.249 C 
ATOM     35  F   UNL     1      -3.390  -3.996   7.235  0.00  0.00    -0.206 F 
ATOM     36  F   UNL     1      -2.680  -2.522   5.802  0.00  0.00    -0.206 F 
ATOM     37  C   UNL     1      -2.002  -4.751   5.509  0.00  0.00    +0.076 C 
ATOM     38  C   UNL     1      -2.479  -6.203   5.496  0.00  0.00    +0.018 C 
ENDBRANCH  29  31
ENDBRANCH  20  27
ENDBRANCH   1  20
TORSDOF 8
