REMARK  Name = 
REMARK  11 active torsions:
REMARK  status: ('A' for Active; 'I' for Inactive)
REMARK    1  A    between atoms: C_1  and  C_2
REMARK    2  A    between atoms: C_5  and  C_35
REMARK    3  A    between atoms: N_6  and  C_7
REMARK    4  A    between atoms: N_14  and  C_15
REMARK    5  A    between atoms: C_15  and  C_16
REMARK    6  A    between atoms: C_16  and  C_17
REMARK    7  A    between atoms: C_17  and  C_18
REMARK    8  A    between atoms: C_17  and  N_24
REMARK    9  A    between atoms: C_25  and  C_27
REMARK   10  A    between atoms: C_35  and  C_36
REMARK   11  A    between atoms: C_35  and  C_37
REMARK                            x       y       z     vdW  Elec       q    Type
REMARK                         _______ _______ _______ _____ _____    ______ ____
ROOT
ATOM      1  C   UNL     1      -0.549  -5.691   1.320  0.00  0.00    +0.042 C 
ENDROOT
BRANCH   1   2
ATOM      2  C   UNL     1      -0.022  -5.299  -0.072  0.00  0.00    +0.087 C 
BRANCH   2   6
ATOM      3  C   UNL     1       2.733  -2.291  -0.080  0.00  0.00    +0.093 C 
ATOM      4  C   UNL     1       3.322  -3.506   0.666  0.00  0.00    +0.044 C 
ATOM      5  C   UNL     1       2.362  -4.747   0.553  0.00  0.00    +0.059 C 
ATOM      6  N   UNL     1       1.091  -4.322  -0.085  0.00  0.00    -0.296 NA
ATOM      7  C   UNL     1       1.540  -4.049  -1.476  0.00  0.00    +0.059 C 
ATOM      8  C   UNL     1       2.504  -5.206  -1.798  0.00  0.00    +0.020 C 
ATOM      9  C   UNL     1       2.917  -5.766  -0.439  0.00  0.00    +0.020 C 
ATOM     10  C   UNL     1       2.259  -2.674  -1.491  0.00  0.00    +0.044 C 
BRANCH   3  13
ATOM     11  C   UNL     1       1.670   0.073   1.523  0.00  0.00    +0.088 C 
ATOM     12  C   UNL     1       2.936   0.058   0.751  0.00  0.00    +0.131 A 
ATOM     13  N   UNL     1       3.437  -1.020   0.032  0.00  0.00    -0.312 N 
ATOM     14  C   UNL     1       4.592  -0.546  -0.553  0.00  0.00    +0.136 A 
ATOM     15  N   UNL     1       4.772   0.709  -0.183  0.00  0.00    -0.134 NA
ATOM     16  N   UNL     1       3.745   1.083   0.623  0.00  0.00    -0.135 NA
BRANCH  14  17
ATOM     17  C   UNL     1       5.550  -1.241  -1.478  0.00  0.00    +0.051 C 
ATOM     18  C   UNL     1       6.967  -1.203  -0.887  0.00  0.00    +0.015 C 
ATOM     19  C   UNL     1       5.573  -0.528  -2.839  0.00  0.00    +0.015 C 
ENDBRANCH  14  17
ENDBRANCH   3  13
ENDBRANCH   2   6
ENDBRANCH   1   2
BRANCH   1  20
ATOM     20  C   UNL     1      -1.776  -6.645   1.233  0.00  0.00    +0.104 C 
BRANCH  20  21
ATOM     21  C   UNL     1      -1.455  -7.965   0.556  0.00  0.00    -0.027 A 
ATOM     22  C   UNL     1      -2.156  -8.335  -0.604  0.00  0.00    +0.005 A 
ATOM     23  C   UNL     1      -1.801  -9.479  -1.319  0.00  0.00    +0.000 A 
ATOM     24  C   UNL     1      -0.750 -10.279  -0.876  0.00  0.00    +0.000 A 
ATOM     25  C   UNL     1      -0.078  -9.952   0.300  0.00  0.00    +0.000 A 
ATOM     26  C   UNL     1      -0.431  -8.807   1.018  0.00  0.00    +0.005 A 
ENDBRANCH  20  21
BRANCH  20  27
ATOM     27  N   UNL     1      -2.350  -6.873   2.558  0.00  0.00    -0.308 N 
ATOM     28  H   UNL     1      -1.977  -7.618   3.129  0.00  0.00    +0.149 HD
ATOM     29  C   UNL     1      -3.332  -6.048   3.052  0.00  0.00    +0.217 C 
ATOM     30  O   UNL     1      -3.870  -5.184   2.356  0.00  0.00    -0.275 OA
BRANCH  29  31
ATOM     31  C   UNL     1      -3.683  -6.242   4.530  0.00  0.00    +0.075 C 
ATOM     32  C   UNL     1      -4.819  -5.298   4.975  0.00  0.00    +0.018 C 
ATOM     33  C   UNL     1      -4.397  -3.824   5.022  0.00  0.00    +0.076 C 
ATOM     34  C   UNL     1      -3.102  -3.613   5.788  0.00  0.00    +0.249 C 
ATOM     35  F   UNL     1      -3.349  -3.767   7.116  0.00  0.00    -0.206 F 
ATOM     36  F   UNL     1      -2.678  -2.336   5.624  0.00  0.00    -0.206 F 
ATOM     37  C   UNL     1      -1.988  -4.568   5.390  0.00  0.00    +0.076 C 
ATOM     38  C   UNL     1      -2.457  -6.023   5.430  0.00  0.00    +0.018 C 
ENDBRANCH  29  31
ENDBRANCH  20  27
ENDBRANCH   1  20
TORSDOF 8
