REMARK  Name = 
REMARK  3 active torsions:
REMARK  status: ('A' for Active; 'I' for Inactive)
REMARK    1  A    between atoms: C_2  and  N_10
REMARK    2  A    between atoms: C_5  and  C_8
REMARK    3  A    between atoms: C_8  and  O_9
REMARK                            x       y       z     vdW  Elec       q    Type
REMARK                         _______ _______ _______ _____ _____    ______ ____
ROOT
ATOM      1  N   UNL     1      -1.188   0.306   1.836  0.00  0.00    -0.269 N 
ATOM      2  C   UNL     1      -2.294  -0.390   2.356  0.00  0.00    +0.352 A 
ATOM      3  O   UNL     1      -3.113  -0.915   1.605  0.00  0.00    -0.244 OA
ATOM      4  N   UNL     1      -2.448  -0.467   3.725  0.00  0.00    -0.175 NA
ATOM      5  C   UNL     1      -1.640   0.184   4.508  0.00  0.00    +0.159 A 
ATOM      6  N   UNL     1      -1.833   0.069   5.860  0.00  0.00    -0.341 N 
ATOM      7  H   UNL     1      -2.755  -0.271   6.114  0.00  0.00    +0.144 HD
ATOM      8  H   UNL     1      -1.488   0.826   6.441  0.00  0.00    +0.144 HD
ATOM      9  C   UNL     1      -0.561   1.042   3.983  0.00  0.00    +0.179 A 
ATOM     10  F   UNL     1       0.182   1.746   4.855  0.00  0.00    -0.200 F 
ATOM     11  C   UNL     1      -0.392   1.071   2.668  0.00  0.00    +0.135 A 
ENDROOT
BRANCH   1  16
ATOM     12  C   UNL     1      -0.913  -1.027  -0.327  0.00  0.00    +0.126 C 
ATOM     13  S   UNL     1       0.815  -1.487  -0.117  0.00  0.00    -0.123 S 
ATOM     14  C   UNL     1       1.309   0.245   0.046  0.00  0.00    +0.203 C 
ATOM     15  O   UNL     1       0.144   1.092  -0.003  0.00  0.00    -0.340 OA
ATOM     16  C   UNL     1      -1.028   0.337   0.375  0.00  0.00    +0.235 C 
BRANCH  14  17
ATOM     17  C   UNL     1       2.292   0.656  -1.059  0.00  0.00    +0.198 C 
BRANCH  17  18
ATOM     18  O   UNL     1       1.757   0.448  -2.368  0.00  0.00    -0.392 OA
ATOM     19  H   UNL     1       1.417  -0.466  -2.384  0.00  0.00    +0.210 HD
ENDBRANCH  17  18
ENDBRANCH  14  17
ENDBRANCH   1  16
TORSDOF 3
