REMARK  Name = 
REMARK  3 active torsions:
REMARK  status: ('A' for Active; 'I' for Inactive)
REMARK    1  A    between atoms: C_2  and  N_10
REMARK    2  A    between atoms: C_5  and  C_8
REMARK    3  A    between atoms: C_8  and  O_9
REMARK                            x       y       z     vdW  Elec       q    Type
REMARK                         _______ _______ _______ _____ _____    ______ ____
ROOT
ATOM      1  N   UNL     1      -1.188   0.318   1.837  0.00  0.00    -0.269 N 
ATOM      2  C   UNL     1      -2.293  -0.378   2.359  0.00  0.00    +0.352 A 
ATOM      3  O   UNL     1      -3.108  -0.909   1.609  0.00  0.00    -0.244 OA
ATOM      4  N   UNL     1      -2.445  -0.454   3.728  0.00  0.00    -0.175 NA
ATOM      5  C   UNL     1      -1.639   0.201   4.512  0.00  0.00    +0.159 A 
ATOM      6  N   UNL     1      -1.831   0.088   5.865  0.00  0.00    -0.341 N 
ATOM      7  H   UNL     1      -2.751  -0.256   6.116  0.00  0.00    +0.144 HD
ATOM      8  H   UNL     1      -1.490   0.848   6.442  0.00  0.00    +0.144 HD
ATOM      9  C   UNL     1      -0.561   1.060   3.983  0.00  0.00    +0.179 A 
ATOM     10  F   UNL     1       0.178   1.769   4.852  0.00  0.00    -0.200 F 
ATOM     11  C   UNL     1      -0.397   1.090   2.667  0.00  0.00    +0.135 A 
ENDROOT
BRANCH   1  16
ATOM     12  C   UNL     1      -0.913  -1.023  -0.324  0.00  0.00    +0.126 C 
ATOM     13  S   UNL     1       0.816  -1.483  -0.114  0.00  0.00    -0.123 S 
ATOM     14  C   UNL     1       1.310   0.251   0.046  0.00  0.00    +0.203 C 
ATOM     15  O   UNL     1       0.145   1.096  -0.006  0.00  0.00    -0.340 OA
ATOM     16  C   UNL     1      -1.027   0.343   0.374  0.00  0.00    +0.235 C 
BRANCH  14  17
ATOM     17  C   UNL     1       2.296   0.658  -1.059  0.00  0.00    +0.198 C 
BRANCH  17  18
ATOM     18  O   UNL     1       1.763   0.445  -2.368  0.00  0.00    -0.392 OA
ATOM     19  H   UNL     1       1.424  -0.469  -2.381  0.00  0.00    +0.210 HD
ENDBRANCH  17  18
ENDBRANCH  14  17
ENDBRANCH   1  16
TORSDOF 3
