REMARK  Name = 
REMARK  12 active torsions:
REMARK  status: ('A' for Active; 'I' for Inactive)
REMARK    1  A    between atoms: C_1  and  C_2
REMARK    2  A    between atoms: C_2  and  C_3
REMARK    3  A    between atoms: C_2  and  C_4
REMARK    4  A    between atoms: C_4  and  C_5
REMARK    5  A    between atoms: C_4  and  N_7
REMARK    6  A    between atoms: C_5  and  O_6
REMARK    7  A    between atoms: C_9  and  C_29
REMARK    8  A    between atoms: C_15  and  O_27
REMARK    9  A    between atoms: C_16  and  C_18
REMARK   10  A    between atoms: C_18  and  C_19
REMARK   11  A    between atoms: O_27  and  C_28
REMARK   12  A    between atoms: C_29  and  O_31
REMARK                            x       y       z     vdW  Elec       q    Type
REMARK                         _______ _______ _______ _____ _____    ______ ____
ROOT
ATOM      1  N   UNL     1       4.549   1.065  -1.080  0.00  0.00    -0.340 N 
ATOM      2  C   UNL     1       5.213   1.032  -2.335  0.00  0.00    +0.057 A 
ATOM      3  C   UNL     1       4.574   1.000  -3.586  0.00  0.00    +0.072 A 
ATOM      4  C   UNL     1       5.274   0.903  -4.812  0.00  0.00    +0.126 A 
ATOM      5  C   UNL     1       6.672   0.872  -4.816  0.00  0.00    -0.001 A 
ATOM      6  C   UNL     1       7.329   0.971  -3.577  0.00  0.00    +0.021 A 
ATOM      7  C   UNL     1       6.618   1.034  -2.372  0.00  0.00    +0.046 A 
ATOM      8  C   UNL     1       7.398   1.081  -1.116  0.00  0.00    +0.203 A 
ATOM      9  O   UNL     1       8.628   1.116  -1.117  0.00  0.00    -0.286 OA
ATOM     10  C   UNL     1       6.665   1.072   0.158  0.00  0.00    +0.122 A 
ATOM     11  C   UNL     1       5.325   1.071   0.083  0.00  0.00    +0.105 A 
ENDROOT
BRANCH   4  12
ATOM     12  O   UNL     1       4.440   0.967  -5.896  0.00  0.00    -0.495 OA
ATOM     13  C   UNL     1       4.671   0.091  -6.989  0.00  0.00    +0.277 C 
ENDBRANCH   4  12
BRANCH  10  14
ATOM     14  C   UNL     1       7.327   1.051   1.479  0.00  0.00    +0.342 C 
ATOM     15  O   UNL     1       6.714   1.005   2.534  0.00  0.00    -0.245 OA
BRANCH  14  16
ATOM     16  O   UNL     1       8.675   1.080   1.432  0.00  0.00    -0.477 OA
ATOM     17  H   UNL     1       9.050   1.117   0.517  0.00  0.00    +0.295 HD
ENDBRANCH  14  16
ENDBRANCH  10  14
BRANCH   1  18
ATOM     18  C   UNL     1       3.045   1.033  -1.010  0.00  0.00    +0.115 C 
BRANCH  18  20
ATOM     19  C   UNL     1       0.995  -0.301  -0.251  0.00  0.00    +0.009 C 
ATOM     20  C   UNL     1       2.528  -0.224  -0.248  0.00  0.00    +0.008 C 
ATOM     21  C   UNL     1       3.076  -1.522  -0.859  0.00  0.00    +0.009 C 
ENDBRANCH  18  20
BRANCH  18  22
ATOM     22  C   UNL     1       2.539   2.367  -0.406  0.00  0.00    +0.181 C 
BRANCH  22  23
ATOM     23  O   UNL     1       3.033   3.480  -1.153  0.00  0.00    -0.393 OA
ATOM     24  H   UNL     1       3.994   3.340  -1.244  0.00  0.00    +0.209 HD
ENDBRANCH  22  23
ENDBRANCH  18  22
ENDBRANCH   1  18
BRANCH   5  25
ATOM     25  C   UNL     1       7.556   0.685  -6.031  0.00  0.00    +0.077 C 
BRANCH  25  26
ATOM     26  C   UNL     1       7.792  -0.765  -6.412  0.00  0.00    -0.006 A 
ATOM     27  C   UNL     1       7.797  -1.810  -5.470  0.00  0.00    +0.007 A 
ATOM     28  C   UNL     1       7.978  -3.137  -5.865  0.00  0.00    +0.002 A 
ATOM     29  C   UNL     1       8.185  -3.442  -7.206  0.00  0.00    +0.023 A 
ATOM     30  C   UNL     1       8.228  -2.415  -8.149  0.00  0.00    +0.076 A 
ATOM     31 CL   UNL     1       8.494  -2.804  -9.805  0.00  0.00    -0.081 Cl
ATOM     32  C   UNL     1       8.040  -1.089  -7.752  0.00  0.00    +0.145 A 
ATOM     33  F   UNL     1       8.074  -0.106  -8.664  0.00  0.00    -0.204 F 
ENDBRANCH  25  26
ENDBRANCH   5  25
TORSDOF 9
