REMARK  Name = 
REMARK  12 active torsions:
REMARK  status: ('A' for Active; 'I' for Inactive)
REMARK    1  A    between atoms: C_1  and  C_2
REMARK    2  A    between atoms: C_2  and  C_3
REMARK    3  A    between atoms: C_2  and  C_4
REMARK    4  A    between atoms: C_4  and  C_5
REMARK    5  A    between atoms: C_4  and  N_7
REMARK    6  A    between atoms: C_5  and  O_6
REMARK    7  A    between atoms: C_9  and  C_29
REMARK    8  A    between atoms: C_15  and  O_27
REMARK    9  A    between atoms: C_16  and  C_18
REMARK   10  A    between atoms: C_18  and  C_19
REMARK   11  A    between atoms: O_27  and  C_28
REMARK   12  A    between atoms: C_29  and  O_31
REMARK                            x       y       z     vdW  Elec       q    Type
REMARK                         _______ _______ _______ _____ _____    ______ ____
ROOT
ATOM      1  N   UNL     1       4.340  -1.087   1.009  0.00  0.00    -0.340 N 
ATOM      2  C   UNL     1       5.010  -2.338   0.902  0.00  0.00    +0.057 A 
ATOM      3  C   UNL     1       4.416  -3.601   1.043  0.00  0.00    +0.072 A 
ATOM      4  C   UNL     1       5.159  -4.821   1.107  0.00  0.00    +0.126 A 
ATOM      5  C   UNL     1       6.554  -4.800   0.960  0.00  0.00    -0.001 A 
ATOM      6  C   UNL     1       7.145  -3.551   0.699  0.00  0.00    +0.021 A 
ATOM      7  C   UNL     1       6.402  -2.361   0.714  0.00  0.00    +0.046 A 
ATOM      8  C   UNL     1       7.158  -1.100   0.643  0.00  0.00    +0.203 A 
ATOM      9  O   UNL     1       8.353  -1.067   0.350  0.00  0.00    -0.286 OA
ATOM     10  C   UNL     1       6.461   0.141   1.023  0.00  0.00    +0.122 A 
ATOM     11  C   UNL     1       5.130   0.055   1.162  0.00  0.00    +0.105 A 
ENDROOT
BRANCH   4  12
ATOM     12  O   UNL     1       4.318  -5.872   1.351  0.00  0.00    -0.495 OA
ATOM     13  C   UNL     1       4.797  -7.195   1.493  0.00  0.00    +0.277 C 
ENDBRANCH   4  12
BRANCH  10  14
ATOM     14  C   UNL     1       7.161   1.410   1.267  0.00  0.00    +0.342 C 
ATOM     15  O   UNL     1       6.586   2.434   1.617  0.00  0.00    -0.245 OA
BRANCH  14  16
ATOM     16  O   UNL     1       8.502   1.363   1.102  0.00  0.00    -0.477 OA
ATOM     17  H   UNL     1       8.837   0.485   0.788  0.00  0.00    +0.295 HD
ENDBRANCH  14  16
ENDBRANCH  10  14
BRANCH   1  18
ATOM     18  C   UNL     1       2.831  -1.002   1.035  0.00  0.00    +0.115 C 
BRANCH  18  20
ATOM     19  C   UNL     1       0.755  -0.491   2.471  0.00  0.00    +0.009 C 
ATOM     20  C   UNL     1       2.293  -0.522   2.424  0.00  0.00    +0.008 C 
ATOM     21  C   UNL     1       2.803  -1.378   3.586  0.00  0.00    +0.009 C 
ENDBRANCH  18  20
BRANCH  18  22
ATOM     22  C   UNL     1       2.326  -0.051  -0.091  0.00  0.00    +0.181 C 
BRANCH  22  23
ATOM     23  O   UNL     1       2.748  -0.467  -1.387  0.00  0.00    -0.393 OA
ATOM     24  H   UNL     1       3.675  -0.187  -1.480  0.00  0.00    +0.209 HD
ENDBRANCH  22  23
ENDBRANCH  18  22
ENDBRANCH   1  18
BRANCH   5  25
ATOM     25  C   UNL     1       7.541  -5.942   1.129  0.00  0.00    +0.077 C 
BRANCH  25  26
ATOM     26  C   UNL     1       8.142  -6.151   2.511  0.00  0.00    -0.006 A 
ATOM     27  C   UNL     1       7.900  -5.325   3.620  0.00  0.00    +0.007 A 
ATOM     28  C   UNL     1       8.539  -5.565   4.846  0.00  0.00    +0.002 A 
ATOM     29  C   UNL     1       9.425  -6.632   4.984  0.00  0.00    +0.023 A 
ATOM     30  C   UNL     1       9.672  -7.463   3.896  0.00  0.00    +0.076 A 
ATOM     31 CL   UNL     1      10.768  -8.781   4.070  0.00  0.00    -0.081 Cl
ATOM     32  C   UNL     1       9.038  -7.221   2.676  0.00  0.00    +0.145 A 
ATOM     33  F   UNL     1       9.287  -8.019   1.625  0.00  0.00    -0.204 F 
ENDBRANCH  25  26
ENDBRANCH   5  25
TORSDOF 9
