REMARK  Name = 
REMARK  16 active torsions:
REMARK  status: ('A' for Active; 'I' for Inactive)
REMARK    1  A    between atoms: C_1  and  C_2
REMARK    2  A    between atoms: C_2  and  C_3
REMARK    3  A    between atoms: C_2  and  C_4
REMARK    4  A    between atoms: C_4  and  N_5
REMARK    5  A    between atoms: N_5  and  C_6
REMARK    6  A    between atoms: N_5  and  S_29
REMARK    7  A    between atoms: C_6  and  C_7
REMARK    8  A    between atoms: C_7  and  C_8
REMARK    9  A    between atoms: C_7  and  O_28
REMARK   10  A    between atoms: C_8  and  C_9
REMARK   11  A    between atoms: C_8  and  N_16
REMARK   12  A    between atoms: C_9  and  C_10
REMARK   13  A    between atoms: C_17  and  O_19
REMARK   14  A    between atoms: O_19  and  C_20
REMARK   15  A    between atoms: S_29  and  C_32
REMARK   16  A    between atoms: C_35  and  N_38
REMARK                            x       y       z     vdW  Elec       q    Type
REMARK                         _______ _______ _______ _____ _____    ______ ____
ROOT
ATOM      1  C   UNL     1       3.964  -1.849   1.194  0.00  0.00    +0.151 C 
ENDROOT
BRANCH   1   2
ATOM      2  O   UNL     1       4.145  -2.586  -0.034  0.00  0.00    -0.389 OA
ATOM      3  H   UNL     1       4.107  -3.531   0.188  0.00  0.00    +0.210 HD
ENDBRANCH   1   2
BRANCH   1   4
ATOM      4  C   UNL     1       5.126  -0.821   1.329  0.00  0.00    +0.142 C 
BRANCH   4   5
ATOM      5  N   UNL     1       6.590  -1.433   1.316  0.00  0.00    -0.174 NA
BRANCH   5   6
ATOM      6  S   UNL     1       7.749  -0.128   1.365  0.00  0.00    +0.061 S 
ATOM      7  O   UNL     1       8.347  -0.103   2.670  0.00  0.00    -0.153 OA
ATOM      8  O   UNL     1       7.134   1.060   0.818  0.00  0.00    -0.153 OA
BRANCH   6   9
ATOM      9  C   UNL     1       8.958  -0.621   0.159  0.00  0.00    +0.106 A 
ATOM     10  C   UNL     1      10.318  -0.617   0.470  0.00  0.00    +0.030 A 
ATOM     11  C   UNL     1      11.244  -0.993  -0.509  0.00  0.00    +0.024 A 
ATOM     12  C   UNL     1      10.821  -1.389  -1.783  0.00  0.00    +0.025 A 
ATOM     13  C   UNL     1       9.466  -1.272  -2.108  0.00  0.00    +0.024 A 
ATOM     14  C   UNL     1       8.531  -0.908  -1.138  0.00  0.00    +0.030 A 
BRANCH  12  15
ATOM     15  N   UNL     1      11.760  -1.671  -2.782  0.00  0.00    -0.358 N 
ATOM     16  H   UNL     1      12.632  -2.050  -2.424  0.00  0.00    +0.142 HD
ATOM     17  H   UNL     1      11.388  -2.230  -3.544  0.00  0.00    +0.142 HD
ENDBRANCH  12  15
ENDBRANCH   6   9
ENDBRANCH   5   6
BRANCH   5  18
ATOM     18  C   UNL     1       6.783  -2.579   2.286  0.00  0.00    +0.112 C 
BRANCH  18  20
ATOM     19  C   UNL     1       8.635  -4.223   1.287  0.00  0.00    +0.008 C 
ATOM     20  C   UNL     1       8.082  -3.426   2.472  0.00  0.00    -0.001 C 
ATOM     21  C   UNL     1       9.226  -2.829   3.294  0.00  0.00    +0.008 C 
ENDBRANCH  18  20
ENDBRANCH   5  18
ENDBRANCH   4   5
ENDBRANCH   1   4
BRANCH   1  22
ATOM     22  C   UNL     1       2.458  -1.335   1.204  0.00  0.00    +0.110 C 
BRANCH  22  23
ATOM     23  N   UNL     1       2.029  -0.802  -0.153  0.00  0.00    -0.275 N 
ATOM     24  H   UNL     1       2.194  -1.470  -0.895  0.00  0.00    +0.152 HD
ATOM     25  C   UNL     1       1.127   0.157  -0.549  0.00  0.00    +0.401 C 
ATOM     26  O   UNL     1       0.635   1.018   0.156  0.00  0.00    -0.226 OA
BRANCH  25  27
ATOM     27  O   UNL     1       0.818  -0.008  -1.891  0.00  0.00    -0.444 OA
BRANCH  27  28
ATOM     28  C   UNL     1      -0.281   0.778  -2.498  0.00  0.00    +0.212 C 
ATOM     29  C   UNL     1      -0.344   0.551  -4.019  0.00  0.00    +0.090 C 
ATOM     30  C   UNL     1      -1.275   1.457  -4.849  0.00  0.00    +0.040 C 
ATOM     31  C   UNL     1      -2.425   0.573  -5.307  0.00  0.00    +0.163 C 
ATOM     32  O   UNL     1      -1.915  -0.755  -5.246  0.00  0.00    -0.351 OA
ATOM     33  C   UNL     1      -1.038  -0.801  -4.119  0.00  0.00    +0.257 C 
ATOM     34  O   UNL     1      -1.784  -0.993  -2.908  0.00  0.00    -0.347 OA
ATOM     35  C   UNL     1      -1.614   0.176  -2.084  0.00  0.00    +0.208 C 
ENDBRANCH  27  28
ENDBRANCH  25  27
ENDBRANCH  22  23
BRANCH  22  36
ATOM     36  C   UNL     1       2.021  -0.569   2.492  0.00  0.00    +0.060 C 
BRANCH  36  37
ATOM     37  C   UNL     1       2.179  -1.287   3.844  0.00  0.00    -0.046 A 
ATOM     38  C   UNL     1       2.025  -2.671   4.025  0.00  0.00    +0.004 A 
ATOM     39  C   UNL     1       2.154  -3.278   5.289  0.00  0.00    +0.000 A 
ATOM     40  C   UNL     1       2.409  -2.495   6.421  0.00  0.00    +0.000 A 
ATOM     41  C   UNL     1       2.511  -1.124   6.278  0.00  0.00    +0.000 A 
ATOM     42  C   UNL     1       2.390  -0.523   5.015  0.00  0.00    +0.004 A 
ENDBRANCH  36  37
ENDBRANCH  22  36
ENDBRANCH   1  22
TORSDOF 14
