REMARK  Name = 
REMARK  16 active torsions:
REMARK  status: ('A' for Active; 'I' for Inactive)
REMARK    1  A    between atoms: C_1  and  C_2
REMARK    2  A    between atoms: C_2  and  C_3
REMARK    3  A    between atoms: C_2  and  C_4
REMARK    4  A    between atoms: C_4  and  N_5
REMARK    5  A    between atoms: N_5  and  C_6
REMARK    6  A    between atoms: N_5  and  S_29
REMARK    7  A    between atoms: C_6  and  C_7
REMARK    8  A    between atoms: C_7  and  C_8
REMARK    9  A    between atoms: C_7  and  O_28
REMARK   10  A    between atoms: C_8  and  C_9
REMARK   11  A    between atoms: C_8  and  N_16
REMARK   12  A    between atoms: C_9  and  C_10
REMARK   13  A    between atoms: C_17  and  O_19
REMARK   14  A    between atoms: O_19  and  C_20
REMARK   15  A    between atoms: S_29  and  C_32
REMARK   16  A    between atoms: C_35  and  N_38
REMARK                            x       y       z     vdW  Elec       q    Type
REMARK                         _______ _______ _______ _____ _____    ______ ____
ROOT
ATOM      1  C   UNL     1       3.979   1.283   1.701  0.00  0.00    +0.151 C 
ENDROOT
BRANCH   1   2
ATOM      2  O   UNL     1       4.036   0.293   2.734  0.00  0.00    -0.389 OA
ATOM      3  H   UNL     1       4.205   0.759   3.571  0.00  0.00    +0.210 HD
ENDBRANCH   1   2
BRANCH   1   4
ATOM      4  C   UNL     1       5.146   1.114   0.713  0.00  0.00    +0.142 C 
BRANCH   4   5
ATOM      5  N   UNL     1       6.605   1.337   1.281  0.00  0.00    -0.174 NA
BRANCH   5   6
ATOM      6  S   UNL     1       7.773   0.969   0.014  0.00  0.00    +0.061 S 
ATOM      7  O   UNL     1       7.486  -0.361  -0.440  0.00  0.00    -0.153 OA
ATOM      8  O   UNL     1       9.116   1.345   0.410  0.00  0.00    -0.153 OA
BRANCH   6   9
ATOM      9  C   UNL     1       7.262   2.083  -1.281  0.00  0.00    +0.106 A 
ATOM     10  C   UNL     1       6.606   1.585  -2.414  0.00  0.00    +0.030 A 
ATOM     11  C   UNL     1       5.913   2.467  -3.246  0.00  0.00    +0.024 A 
ATOM     12  C   UNL     1       5.833   3.828  -2.927  0.00  0.00    +0.025 A 
ATOM     13  C   UNL     1       6.630   4.322  -1.887  0.00  0.00    +0.024 A 
ATOM     14  C   UNL     1       7.348   3.463  -1.066  0.00  0.00    +0.030 A 
BRANCH  12  15
ATOM     15  N   UNL     1       5.135   4.714  -3.750  0.00  0.00    -0.358 N 
ATOM     16  H   UNL     1       4.361   4.281  -4.247  0.00  0.00    +0.142 HD
ATOM     17  H   UNL     1       4.839   5.558  -3.265  0.00  0.00    +0.142 HD
ENDBRANCH  12  15
ENDBRANCH   6   9
ENDBRANCH   5   6
BRANCH   5  18
ATOM     18  C   UNL     1       6.814   2.561   2.152  0.00  0.00    +0.112 C 
BRANCH  18  20
ATOM     19  C   UNL     1       8.271   4.140   3.575  0.00  0.00    +0.008 C 
ATOM     20  C   UNL     1       8.244   2.845   2.731  0.00  0.00    -0.001 C 
ATOM     21  C   UNL     1       8.812   1.730   3.616  0.00  0.00    +0.008 C 
ENDBRANCH  18  20
ENDBRANCH   5  18
ENDBRANCH   4   5
ENDBRANCH   1   4
BRANCH   1  22
ATOM     22  C   UNL     1       2.487   1.325   1.142  0.00  0.00    +0.110 C 
BRANCH  22  23
ATOM     23  N   UNL     1       1.837  -0.074   0.944  0.00  0.00    -0.275 N 
ATOM     24  H   UNL     1       1.586  -0.529   1.812  0.00  0.00    +0.152 HD
ATOM     25  C   UNL     1       1.525  -0.864  -0.148  0.00  0.00    +0.401 C 
ATOM     26  O   UNL     1       1.755  -0.557  -1.309  0.00  0.00    -0.226 OA
BRANCH  25  27
ATOM     27  O   UNL     1       0.828  -2.034   0.213  0.00  0.00    -0.444 OA
BRANCH  27  28
ATOM     28  C   UNL     1       0.017  -2.707  -0.844  0.00  0.00    +0.212 C 
ATOM     29  C   UNL     1      -0.528  -4.137  -0.551  0.00  0.00    +0.090 C 
ATOM     30  C   UNL     1      -1.011  -4.948  -1.784  0.00  0.00    +0.040 C 
ATOM     31  C   UNL     1      -2.528  -4.864  -1.785  0.00  0.00    +0.163 C 
ATOM     32  O   UNL     1      -2.866  -4.711  -0.413  0.00  0.00    -0.351 OA
ATOM     33  C   UNL     1      -1.845  -3.905   0.190  0.00  0.00    +0.257 C 
ATOM     34  O   UNL     1      -2.172  -2.520   0.048  0.00  0.00    -0.347 OA
ATOM     35  C   UNL     1      -1.293  -1.940  -0.932  0.00  0.00    +0.208 C 
ENDBRANCH  27  28
ENDBRANCH  25  27
ENDBRANCH  22  23
BRANCH  22  36
ATOM     36  C   UNL     1       2.141   2.460   0.104  0.00  0.00    +0.060 C 
BRANCH  36  37
ATOM     37  C   UNL     1       2.405   3.978   0.347  0.00  0.00    -0.046 A 
ATOM     38  C   UNL     1       1.947   4.895  -0.629  0.00  0.00    +0.004 A 
ATOM     39  C   UNL     1       2.252   6.273  -0.584  0.00  0.00    +0.000 A 
ATOM     40  C   UNL     1       3.027   6.783   0.448  0.00  0.00    +0.000 A 
ATOM     41  C   UNL     1       3.424   5.917   1.465  0.00  0.00    +0.000 A 
ATOM     42  C   UNL     1       3.096   4.560   1.428  0.00  0.00    +0.004 A 
ENDBRANCH  36  37
ENDBRANCH  22  36
ENDBRANCH   1  22
TORSDOF 14
