REMARK  Name = 
REMARK  21 active torsions:
REMARK  status: ('A' for Active; 'I' for Inactive)
REMARK    1  A    between atoms: C_1  and  C_2
REMARK    2  A    between atoms: C_2  and  C_3
REMARK    3  A    between atoms: C_2  and  C_4
REMARK    4  A    between atoms: C_2  and  C_5
REMARK    5  A    between atoms: C_5  and  C_6
REMARK    6  A    between atoms: C_5  and  N_44
REMARK    7  A    between atoms: C_10  and  O_30
REMARK    8  A    between atoms: C_12  and  C_13
REMARK    9  A    between atoms: N_15  and  C_16
REMARK   10  A    between atoms: C_16  and  C_21
REMARK   11  A    between atoms: C_18  and  C_19
REMARK   12  A    between atoms: N_23  and  S_24
REMARK   13  A    between atoms: S_24  and  C_27
REMARK   14  A    between atoms: O_30  and  C_31
REMARK   15  A    between atoms: C_34  and  O_42
REMARK   16  A    between atoms: O_42  and  C_43
REMARK   17  A    between atoms: C_45  and  O_47
REMARK   18  A    between atoms: O_47  and  C_48
REMARK   19  A    between atoms: C_48  and  C_49
REMARK   20  A    between atoms: C_48  and  C_50
REMARK   21  A    between atoms: C_48  and  C_51
REMARK                            x       y       z     vdW  Elec       q    Type
REMARK                         _______ _______ _______ _____ _____    ______ ____
ROOT
ATOM      1  C   UNL     1       2.465   1.961  -1.394  0.00  0.00    +0.237 C 
ATOM      2  N   UNL     1       1.148   2.141  -1.742  0.00  0.00    -0.285 N 
ATOM      3  C   UNL     1       0.541   3.479  -1.740  0.00  0.00    +0.166 C 
ATOM      4  C   UNL     1      -0.929   3.250  -2.122  0.00  0.00    +0.078 C 
ATOM      5  C   UNL     1      -0.987   1.813  -2.669  0.00  0.00    +0.195 C 
ATOM      6  C   UNL     1       0.127   1.116  -1.891  0.00  0.00    +0.153 C 
ATOM      7  O   UNL     1       3.215   2.943  -1.358  0.00  0.00    -0.274 OA
ENDROOT
BRANCH   3   8
ATOM      8  C   UNL     1       1.223   4.563  -2.624  0.00  0.00    +0.234 C 
ATOM      9  N   UNL     1       2.191   5.270  -1.912  0.00  0.00    -0.299 N 
ATOM     10  H   UNL     1       2.718   4.651  -1.285  0.00  0.00    +0.150 HD
ATOM     11  O   UNL     1       0.984   4.770  -3.811  0.00  0.00    -0.274 OA
BRANCH   9  12
ATOM     12  C   UNL     1       3.029   6.261  -2.567  0.00  0.00    +0.119 C 
ATOM     13  C   UNL     1       3.663   7.377  -1.693  0.00  0.00    +0.046 C 
ATOM     14  C   UNL     1       2.516   7.686  -2.609  0.00  0.00    +0.046 C 
BRANCH  12  15
ATOM     15  C   UNL     1       3.993   5.672  -3.566  0.00  0.00    +0.256 C 
ATOM     16  N   UNL     1       3.666   5.764  -4.938  0.00  0.00    -0.188 N 
ATOM     17  H   UNL     1       2.691   5.498  -5.134  0.00  0.00    +0.176 HD
ATOM     18  O   UNL     1       4.998   5.121  -3.147  0.00  0.00    -0.272 OA
BRANCH  16  19
ATOM     19  S   UNL     1       4.837   5.202  -5.990  0.00  0.00    +0.048 S 
ATOM     20  O   UNL     1       4.799   3.751  -5.952  0.00  0.00    -0.155 OA
ATOM     21  O   UNL     1       6.047   5.942  -5.741  0.00  0.00    -0.155 OA
BRANCH  19  22
ATOM     22  C   UNL     1       4.444   5.634  -7.705  0.00  0.00    +0.151 C 
ATOM     23  C   UNL     1       3.182   6.398  -8.006  0.00  0.00    +0.030 C 
ATOM     24  C   UNL     1       3.221   4.915  -8.172  0.00  0.00    +0.030 C 
ENDBRANCH  19  22
ENDBRANCH  16  19
ENDBRANCH  12  15
BRANCH  13  25
ATOM     25  C   UNL     1       4.984   7.944  -2.028  0.00  0.00    -0.028 C 
ATOM     26  C   UNL     1       5.291   9.239  -2.182  0.00  0.00    +0.004 C 
ENDBRANCH  13  25
ENDBRANCH   9  12
ENDBRANCH   3   8
BRANCH   1  27
ATOM     27  C   UNL     1       2.999   0.556  -1.004  0.00  0.00    +0.168 C 
BRANCH  27  29
ATOM     28  C   UNL     1       2.182   0.911   1.414  0.00  0.00    +0.013 C 
ATOM     29  C   UNL     1       3.402   0.562   0.527  0.00  0.00    -0.011 C 
ATOM     30  C   UNL     1       3.890  -0.837   0.953  0.00  0.00    +0.013 C 
ATOM     31  C   UNL     1       4.523   1.569   0.869  0.00  0.00    +0.013 C 
ENDBRANCH  27  29
BRANCH  27  32
ATOM     32  N   UNL     1       4.125   0.229  -1.898  0.00  0.00    -0.269 N 
ATOM     33  H   UNL     1       4.944   0.823  -1.879  0.00  0.00    +0.153 HD
ATOM     34  C   UNL     1       3.995  -0.509  -3.050  0.00  0.00    +0.401 C 
ATOM     35  O   UNL     1       2.988  -1.125  -3.362  0.00  0.00    -0.226 OA
BRANCH  34  36
ATOM     36  O   UNL     1       5.154  -0.463  -3.765  0.00  0.00    -0.445 OA
BRANCH  36  37
ATOM     37  C   UNL     1       5.343  -1.228  -5.000  0.00  0.00    +0.107 C 
ATOM     38  C   UNL     1       5.328  -2.735  -4.715  0.00  0.00    +0.055 C 
ATOM     39  C   UNL     1       6.747  -0.874  -5.533  0.00  0.00    +0.055 C 
ATOM     40  C   UNL     1       4.333  -0.845  -6.090  0.00  0.00    +0.055 C 
ENDBRANCH  36  37
ENDBRANCH  34  36
ENDBRANCH  27  32
ENDBRANCH   1  27
BRANCH   5  41
ATOM     41  O   UNL     1      -0.640   1.728  -4.056  0.00  0.00    -0.471 OA
BRANCH  41  42
ATOM     42  C   UNL     1      -1.538   2.377  -4.875  0.00  0.00    +0.223 A 
ATOM     43  C   UNL     1      -1.054   2.908  -6.072  0.00  0.00    +0.049 A 
ATOM     44  C   UNL     1       0.202   2.561  -6.592  0.00  0.00    +0.034 A 
ATOM     45  C   UNL     1       0.555   2.993  -7.859  0.00  0.00    +0.042 A 
ATOM     46 CL   UNL     1       1.785   2.134  -8.711  0.00  0.00    -0.084 Cl
ATOM     47  C   UNL     1      -0.161   4.008  -8.482  0.00  0.00    +0.021 A 
ATOM     48  C   UNL     1      -1.389   4.400  -7.947  0.00  0.00    +0.014 A 
ATOM     49  C   UNL     1      -1.909   3.764  -6.798  0.00  0.00    +0.030 A 
ATOM     50  C   UNL     1      -3.246   3.903  -6.368  0.00  0.00    +0.146 A 
ATOM     51  C   UNL     1      -3.642   3.197  -5.236  0.00  0.00    +0.160 A 
ATOM     52  N   UNL     1      -2.815   2.472  -4.458  0.00  0.00    -0.217 NA
BRANCH  50  53
ATOM     53  O   UNL     1      -4.077   4.675  -7.139  0.00  0.00    -0.493 OA
ATOM     54  C   UNL     1      -5.441   4.730  -6.737  0.00  0.00    +0.277 C 
ENDBRANCH  50  53
ENDBRANCH  41  42
ENDBRANCH   5  41
TORSDOF 14
