REMARK  Name = 
REMARK  21 active torsions:
REMARK  status: ('A' for Active; 'I' for Inactive)
REMARK    1  A    between atoms: C_1  and  C_2
REMARK    2  A    between atoms: C_2  and  C_3
REMARK    3  A    between atoms: C_2  and  C_4
REMARK    4  A    between atoms: C_2  and  C_5
REMARK    5  A    between atoms: C_5  and  C_6
REMARK    6  A    between atoms: C_5  and  N_44
REMARK    7  A    between atoms: C_10  and  O_30
REMARK    8  A    between atoms: C_12  and  C_13
REMARK    9  A    between atoms: N_15  and  C_16
REMARK   10  A    between atoms: C_16  and  C_21
REMARK   11  A    between atoms: C_18  and  C_19
REMARK   12  A    between atoms: N_23  and  S_24
REMARK   13  A    between atoms: S_24  and  C_27
REMARK   14  A    between atoms: O_30  and  C_31
REMARK   15  A    between atoms: C_34  and  O_42
REMARK   16  A    between atoms: O_42  and  C_43
REMARK   17  A    between atoms: C_45  and  O_47
REMARK   18  A    between atoms: O_47  and  C_48
REMARK   19  A    between atoms: C_48  and  C_49
REMARK   20  A    between atoms: C_48  and  C_50
REMARK   21  A    between atoms: C_48  and  C_51
REMARK                            x       y       z     vdW  Elec       q    Type
REMARK                         _______ _______ _______ _____ _____    ______ ____
ROOT
ATOM      1  C   UNL     1       2.215   1.823  -1.407  0.00  0.00    +0.237 C 
ATOM      2  N   UNL     1       0.942   2.173  -1.811  0.00  0.00    -0.285 N 
ATOM      3  C   UNL     1       0.310   3.484  -1.810  0.00  0.00    +0.166 C 
ATOM      4  C   UNL     1      -1.135   3.225  -2.256  0.00  0.00    +0.078 C 
ATOM      5  C   UNL     1      -1.124   1.811  -2.869  0.00  0.00    +0.195 C 
ATOM      6  C   UNL     1      -0.050   1.129  -2.034  0.00  0.00    +0.153 C 
ATOM      7  O   UNL     1       2.495   0.624  -1.319  0.00  0.00    -0.274 OA
ENDROOT
BRANCH   3   8
ATOM      8  C   UNL     1       0.963   4.518  -2.732  0.00  0.00    +0.234 C 
ATOM      9  N   UNL     1       0.487   5.805  -2.577  0.00  0.00    -0.299 N 
ATOM     10  H   UNL     1      -0.166   5.997  -1.825  0.00  0.00    +0.150 HD
ATOM     11  O   UNL     1       1.841   4.238  -3.544  0.00  0.00    -0.274 OA
BRANCH   9  12
ATOM     12  C   UNL     1       0.937   6.945  -3.374  0.00  0.00    +0.119 C 
ATOM     13  C   UNL     1       2.042   7.849  -2.816  0.00  0.00    +0.046 C 
ATOM     14  C   UNL     1       0.618   8.316  -2.771  0.00  0.00    +0.046 C 
BRANCH  12  15
ATOM     15  C   UNL     1       0.827   6.847  -4.898  0.00  0.00    +0.256 C 
ATOM     16  N   UNL     1       1.341   5.696  -5.478  0.00  0.00    -0.188 N 
ATOM     17  H   UNL     1       1.762   4.956  -4.910  0.00  0.00    +0.176 HD
ATOM     18  O   UNL     1       0.361   7.772  -5.544  0.00  0.00    -0.272 OA
BRANCH  16  19
ATOM     19  S   UNL     1       1.412   5.391  -7.092  0.00  0.00    +0.048 S 
ATOM     20  O   UNL     1       0.081   5.500  -7.629  0.00  0.00    -0.155 OA
ATOM     21  O   UNL     1       2.207   4.185  -7.231  0.00  0.00    -0.155 OA
BRANCH  19  22
ATOM     22  C   UNL     1       2.329   6.755  -7.832  0.00  0.00    +0.151 C 
ATOM     23  C   UNL     1       3.473   6.357  -8.719  0.00  0.00    +0.030 C 
ATOM     24  C   UNL     1       3.741   6.894  -7.338  0.00  0.00    +0.030 C 
ENDBRANCH  19  22
ENDBRANCH  16  19
ENDBRANCH  12  15
BRANCH  13  25
ATOM     25  C   UNL     1       2.965   8.530  -3.735  0.00  0.00    -0.028 C 
ATOM     26  C   UNL     1       4.251   8.213  -3.930  0.00  0.00    +0.004 C 
ENDBRANCH  13  25
ENDBRANCH   9  12
ENDBRANCH   3   8
BRANCH   1  27
ATOM     27  C   UNL     1       3.315   2.939  -1.238  0.00  0.00    +0.168 C 
BRANCH  27  29
ATOM     28  C   UNL     1       5.199   1.429  -2.129  0.00  0.00    +0.013 C 
ATOM     29  C   UNL     1       4.768   2.402  -0.998  0.00  0.00    -0.011 C 
ATOM     30  C   UNL     1       5.783   3.568  -1.057  0.00  0.00    +0.013 C 
ATOM     31  C   UNL     1       4.887   1.702   0.360  0.00  0.00    +0.013 C 
ENDBRANCH  27  29
BRANCH  27  32
ATOM     32  N   UNL     1       2.910   4.057  -0.358  0.00  0.00    -0.269 N 
ATOM     33  H   UNL     1       3.292   4.977  -0.530  0.00  0.00    +0.153 HD
ATOM     34  C   UNL     1       2.309   3.877   0.857  0.00  0.00    +0.401 C 
ATOM     35  O   UNL     1       1.931   2.797   1.274  0.00  0.00    -0.226 OA
BRANCH  34  36
ATOM     36  O   UNL     1       2.089   5.075   1.466  0.00  0.00    -0.445 OA
BRANCH  36  37
ATOM     37  C   UNL     1       1.305   5.108   2.700  0.00  0.00    +0.107 C 
ATOM     38  C   UNL     1      -0.146   4.679   2.434  0.00  0.00    +0.055 C 
ATOM     39  C   UNL     1       1.268   6.571   3.181  0.00  0.00    +0.055 C 
ATOM     40  C   UNL     1       1.964   4.274   3.807  0.00  0.00    +0.055 C 
ENDBRANCH  36  37
ENDBRANCH  34  36
ENDBRANCH  27  32
ENDBRANCH   1  27
BRANCH   5  41
ATOM     41  O   UNL     1      -0.686   1.763  -4.236  0.00  0.00    -0.471 OA
BRANCH  41  42
ATOM     42  C   UNL     1      -1.572   2.305  -5.144  0.00  0.00    +0.223 A 
ATOM     43  C   UNL     1      -1.192   2.350  -6.496  0.00  0.00    +0.049 A 
ATOM     44  C   UNL     1      -0.048   1.696  -7.013  0.00  0.00    +0.034 A 
ATOM     45  C   UNL     1       0.309   1.836  -8.354  0.00  0.00    +0.042 A 
ATOM     46 CL   UNL     1       1.716   1.051  -8.961  0.00  0.00    -0.084 Cl
ATOM     47  C   UNL     1      -0.455   2.628  -9.201  0.00  0.00    +0.021 A 
ATOM     48  C   UNL     1      -1.603   3.256  -8.712  0.00  0.00    +0.014 A 
ATOM     49  C   UNL     1      -1.999   3.129  -7.360  0.00  0.00    +0.030 A 
ATOM     50  C   UNL     1      -3.133   3.789  -6.834  0.00  0.00    +0.146 A 
ATOM     51  C   UNL     1      -3.432   3.598  -5.493  0.00  0.00    +0.160 A 
ATOM     52  N   UNL     1      -2.692   2.866  -4.644  0.00  0.00    -0.217 NA
BRANCH  50  53
ATOM     53  O   UNL     1      -3.868   4.580  -7.681  0.00  0.00    -0.493 OA
ATOM     54  C   UNL     1      -4.952   5.296  -7.098  0.00  0.00    +0.277 C 
ENDBRANCH  50  53
ENDBRANCH  41  42
ENDBRANCH   5  41
TORSDOF 14
