REMARK  Name = 
REMARK  18 active torsions:
REMARK  status: ('A' for Active; 'I' for Inactive)
REMARK    1  A    between atoms: C_1  and  C_2
REMARK    2  A    between atoms: C_2  and  C_37
REMARK    3  A    between atoms: C_5  and  C_23
REMARK    4  A    between atoms: C_8  and  C_10
REMARK    5  A    between atoms: C_10  and  C_11
REMARK    6  A    between atoms: C_10  and  N_15
REMARK    7  A    between atoms: C_11  and  C_12
REMARK    8  A    between atoms: C_11  and  C_13
REMARK    9  A    between atoms: C_11  and  C_14
REMARK   10  A    between atoms: N_18  and  C_19
REMARK   11  A    between atoms: C_19  and  C_20
REMARK   12  A    between atoms: C_19  and  C_21
REMARK   13  A    between atoms: C_19  and  C_22
REMARK   14  A    between atoms: N_25  and  C_26
REMARK   15  A    between atoms: C_26  and  C_27
REMARK   16  A    between atoms: C_26  and  C_32
REMARK   17  A    between atoms: C_27  and  C_28
REMARK   18  A    between atoms: C_32  and  C_34
REMARK                            x       y       z     vdW  Elec       q    Type
REMARK                         _______ _______ _______ _____ _____    ______ ____
ROOT
ATOM      1  C   UNL     1       0.726  -0.098   0.103  0.00  0.00    +0.011 C 
ATOM      2  C   UNL     1       2.225   0.055   0.072  0.00  0.00    -0.025 C 
ATOM      3  C   UNL     1       2.787   0.396   1.441  0.00  0.00    +0.011 C 
ATOM      4  C   UNL     1       2.950   0.592  -1.180  0.00  0.00    +0.030 C 
ATOM      5  C   UNL     1       2.482   0.500  -2.638  0.00  0.00    +0.166 C 
ATOM      6  N   UNL     1       3.010  -0.812  -3.055  0.00  0.00    -0.288 N 
ATOM      7  C   UNL     1       4.215  -1.194  -3.665  0.00  0.00    +0.237 C 
ATOM      8  O   UNL     1       4.425  -2.412  -3.743  0.00  0.00    -0.274 OA
ATOM      9  C   UNL     1       2.698  -1.712  -1.931  0.00  0.00    +0.113 C 
ATOM     10  C   UNL     1       3.104  -0.858  -0.749  0.00  0.00    +0.018 C 
ENDROOT
BRANCH   5  11
ATOM     11  C   UNL     1       2.186   1.805  -3.433  0.00  0.00    +0.234 C 
ATOM     12  N   UNL     1       1.322   1.658  -4.522  0.00  0.00    -0.304 N 
ATOM     13  H   UNL     1       0.979   0.723  -4.732  0.00  0.00    +0.149 HD
ATOM     14  O   UNL     1       2.497   2.914  -3.001  0.00  0.00    -0.274 OA
BRANCH  12  15
ATOM     15  C   UNL     1       0.496   2.782  -5.042  0.00  0.00    +0.149 C 
BRANCH  15  16
ATOM     16  C   UNL     1      -0.661   2.269  -5.921  0.00  0.00    +0.237 C 
ATOM     17  O   UNL     1      -0.710   1.139  -6.405  0.00  0.00    -0.285 OA
BRANCH  16  18
ATOM     18  C   UNL     1      -1.823   3.243  -6.178  0.00  0.00    +0.279 C 
ATOM     19  N   UNL     1      -2.809   2.773  -7.014  0.00  0.00    -0.323 N 
ATOM     20  H   UNL     1      -3.610   3.342  -7.215  0.00  0.00    +0.145 HD
ATOM     21  H   UNL     1      -2.755   1.829  -7.387  0.00  0.00    +0.145 HD
ATOM     22  O   UNL     1      -1.861   4.348  -5.663  0.00  0.00    -0.267 OA
ENDBRANCH  16  18
ENDBRANCH  15  16
BRANCH  15  23
ATOM     23  C   UNL     1       1.297   3.881  -5.753  0.00  0.00    +0.034 C 
BRANCH  23  24
ATOM     24  C   UNL     1       2.033   3.424  -7.012  0.00  0.00    -0.009 C 
ATOM     25  C   UNL     1       3.386   2.700  -6.845  0.00  0.00    +0.003 C 
ATOM     26  C   UNL     1       4.073   3.782  -7.687  0.00  0.00    +0.001 C 
ATOM     27  C   UNL     1       2.780   4.600  -7.683  0.00  0.00    +0.003 C 
ENDBRANCH  23  24
ENDBRANCH  15  23
ENDBRANCH  12  15
ENDBRANCH   5  11
BRANCH   7  28
ATOM     28  C   UNL     1       5.292  -0.202  -4.260  0.00  0.00    +0.166 C 
BRANCH  28  29
ATOM     29  N   UNL     1       5.241  -0.122  -5.748  0.00  0.00    -0.288 N 
ATOM     30  H   UNL     1       5.624   0.725  -6.141  0.00  0.00    +0.151 HD
ATOM     31  C   UNL     1       5.444  -1.220  -6.550  0.00  0.00    +0.301 C 
ATOM     32  N   UNL     1       5.511  -0.908  -7.892  0.00  0.00    -0.295 N 
ATOM     33  H   UNL     1       5.013  -0.075  -8.167  0.00  0.00    +0.151 HD
ATOM     34  O   UNL     1       5.551  -2.359  -6.138  0.00  0.00    -0.253 OA
BRANCH  32  35
ATOM     35  C   UNL     1       5.667  -1.972  -8.917  0.00  0.00    +0.028 C 
ATOM     36  C   UNL     1       7.023  -2.689  -8.760  0.00  0.00    +0.031 C 
ATOM     37  C   UNL     1       5.640  -1.350 -10.327  0.00  0.00    +0.031 C 
ATOM     38  C   UNL     1       4.516  -2.996  -8.847  0.00  0.00    +0.031 C 
ENDBRANCH  32  35
ENDBRANCH  28  29
BRANCH  28  39
ATOM     39  C   UNL     1       6.780  -0.467  -3.697  0.00  0.00    -0.011 C 
ATOM     40  C   UNL     1       6.803  -0.230  -2.170  0.00  0.00    +0.013 C 
ATOM     41  C   UNL     1       7.800   0.517  -4.326  0.00  0.00    +0.013 C 
ATOM     42  C   UNL     1       7.370  -1.880  -3.928  0.00  0.00    +0.013 C 
ENDBRANCH  28  39
ENDBRANCH   7  28
TORSDOF 10
