REMARK  Name = 
REMARK  10 active torsions:
REMARK  status: ('A' for Active; 'I' for Inactive)
REMARK    1  A    between atoms: C_1  and  C_2
REMARK    2  A    between atoms: C_5  and  C_7
REMARK    3  A    between atoms: N_9  and  C_10
REMARK    4  A    between atoms: C_10  and  C_11
REMARK    5  A    between atoms: C_10  and  C_12
REMARK    6  A    between atoms: C_10  and  C_13
REMARK    7  A    between atoms: C_15  and  C_22
REMARK    8  A    between atoms: N_19  and  C_20
REMARK    9  A    between atoms: N_24  and  C_25
REMARK   10  A    between atoms: C_25  and  C_26
REMARK                            x       y       z     vdW  Elec       q    Type
REMARK                         _______ _______ _______ _____ _____    ______ ____
ROOT
ATOM      1  C   UNL     1       5.504  -5.868   0.001  0.00  0.00    +0.136 A 
ATOM      2  N   UNL     1       4.136  -5.935  -0.076  0.00  0.00    -0.299 N 
ATOM      3  C   UNL     1       3.275  -4.775  -0.107  0.00  0.00    +0.154 C 
ATOM      4  C   UNL     1       3.471  -7.152   0.005  0.00  0.00    +0.247 A 
ATOM      5  O   UNL     1       2.236  -7.187   0.105  0.00  0.00    -0.268 OA
ATOM      6  C   UNL     1       4.306  -8.422  -0.023  0.00  0.00    -0.010 A 
ATOM      7  O   UNL     1       3.645  -9.509  -0.079  0.00  0.00    -0.869 OA
ATOM      8  C   UNL     1       5.644  -8.185   0.023  0.00  0.00    +0.125 A 
ATOM      9  N   UNL     1       6.233  -6.935   0.060  0.00  0.00    -0.227 NA
ENDROOT
BRANCH   8  10
ATOM     10  C   UNL     1       6.651  -9.373   0.006  0.00  0.00    +0.262 C 
ATOM     11  N   UNL     1       6.088 -10.623   0.040  0.00  0.00    -0.306 N 
ATOM     12  H   UNL     1       5.059 -10.609   0.022  0.00  0.00    +0.149 HD
ATOM     13  O   UNL     1       7.869  -9.187  -0.032  0.00  0.00    -0.269 OA
BRANCH  11  14
ATOM     14  C   UNL     1       6.777 -11.880  -0.012  0.00  0.00    +0.140 C 
BRANCH  14  15
ATOM     15  C   UNL     1       6.414 -12.760   1.165  0.00  0.00    -0.030 A 
ATOM     16  C   UNL     1       7.403 -13.191   2.063  0.00  0.00    +0.008 A 
ATOM     17  C   UNL     1       7.063 -13.980   3.165  0.00  0.00    +0.038 A 
ATOM     18  C   UNL     1       5.737 -14.340   3.370  0.00  0.00    +0.123 A 
ATOM     19  F   UNL     1       5.413 -15.084   4.437  0.00  0.00    -0.205 F 
ATOM     20  C   UNL     1       4.742 -13.936   2.489  0.00  0.00    +0.038 A 
ATOM     21  C   UNL     1       5.081 -13.149   1.385  0.00  0.00    +0.008 A 
ENDBRANCH  14  15
ENDBRANCH  11  14
ENDBRANCH   8  10
BRANCH   1  22
ATOM     22  C   UNL     1       6.305  -4.483  -0.097  0.00  0.00    +0.087 C 
ATOM     23  C   UNL     1       7.682  -4.688   0.597  0.00  0.00    +0.039 C 
ATOM     24  C   UNL     1       6.606  -4.202  -1.581  0.00  0.00    +0.039 C 
BRANCH  22  26
ATOM     25  C   UNL     1       5.034  -2.230   0.059  0.00  0.00    +0.301 C 
ATOM     26  N   UNL     1       5.723  -3.303   0.611  0.00  0.00    -0.295 N 
ATOM     27  H   UNL     1       5.820  -3.315   1.619  0.00  0.00    +0.150 HD
ATOM     28  O   UNL     1       4.778  -2.133  -1.136  0.00  0.00    -0.265 OA
BRANCH  25  32
ATOM     29  C   UNL     1       4.614   0.107   4.278  0.00  0.00    +0.111 C 
ATOM     30  C   UNL     1       4.361  -0.190   2.858  0.00  0.00    +0.215 A 
ATOM     31  O   UNL     1       5.013  -1.271   2.325  0.00  0.00    -0.417 OA
ATOM     32  C   UNL     1       4.578  -1.237   1.024  0.00  0.00    +0.304 A 
ATOM     33  N   UNL     1       3.723  -0.253   0.797  0.00  0.00    -0.102 NA
ATOM     34  N   UNL     1       3.580   0.423   1.994  0.00  0.00    -0.112 NA
ENDBRANCH  25  32
ENDBRANCH  22  26
ENDBRANCH   1  22
TORSDOF 6
REMARK  Name = 
REMARK  10 active torsions:
REMARK  status: ('A' for Active; 'I' for Inactive)
REMARK    1  A    between atoms: C_1  and  C_2
REMARK    2  A    between atoms: C_5  and  C_7
REMARK    3  A    between atoms: N_9  and  C_10
REMARK    4  A    between atoms: C_10  and  C_11
REMARK    5  A    between atoms: C_10  and  C_12
REMARK    6  A    between atoms: C_10  and  C_13
REMARK    7  A    between atoms: C_15  and  C_22
REMARK    8  A    between atoms: N_19  and  C_20
REMARK    9  A    between atoms: N_24  and  C_25
REMARK   10  A    between atoms: C_25  and  C_26
REMARK                            x       y       z     vdW  Elec       q    Type
REMARK                         _______ _______ _______ _____ _____    ______ ____
ROOT
ATOM      1  K   UNL     1      -1.327   0.716   0.122  0.00  0.00    +0.000 K 
ENDROOT
TORSDOF 0
