REMARK  Name = 
REMARK  10 active torsions:
REMARK  status: ('A' for Active; 'I' for Inactive)
REMARK    1  A    between atoms: C_1  and  C_2
REMARK    2  A    between atoms: C_5  and  C_7
REMARK    3  A    between atoms: N_9  and  C_10
REMARK    4  A    between atoms: C_10  and  C_11
REMARK    5  A    between atoms: C_10  and  C_12
REMARK    6  A    between atoms: C_10  and  C_13
REMARK    7  A    between atoms: C_15  and  C_22
REMARK    8  A    between atoms: N_19  and  C_20
REMARK    9  A    between atoms: N_24  and  C_25
REMARK   10  A    between atoms: C_25  and  C_26
REMARK                            x       y       z     vdW  Elec       q    Type
REMARK                         _______ _______ _______ _____ _____    ______ ____
ROOT
ATOM      1  C   UNL     1       5.465  -5.707  -0.051  0.00  0.00    +0.136 A 
ATOM      2  N   UNL     1       4.097  -5.781  -0.054  0.00  0.00    -0.299 N 
ATOM      3  C   UNL     1       3.216  -4.634  -0.003  0.00  0.00    +0.154 C 
ATOM      4  C   UNL     1       3.440  -7.008  -0.036  0.00  0.00    +0.247 A 
ATOM      5  O   UNL     1       2.202  -7.053  -0.008  0.00  0.00    -0.268 OA
ATOM      6  C   UNL     1       4.283  -8.269  -0.051  0.00  0.00    -0.010 A 
ATOM      7  O   UNL     1       3.628  -9.361  -0.088  0.00  0.00    -0.869 OA
ATOM      8  C   UNL     1       5.621  -8.024  -0.018  0.00  0.00    +0.125 A 
ATOM      9  N   UNL     1       6.199  -6.774  -0.019  0.00  0.00    -0.227 NA
ENDROOT
BRANCH   8  10
ATOM     10  C   UNL     1       6.630  -9.212  -0.021  0.00  0.00    +0.262 C 
ATOM     11  N   UNL     1       6.076 -10.466   0.028  0.00  0.00    -0.306 N 
ATOM     12  H   UNL     1       5.047 -10.459   0.008  0.00  0.00    +0.149 HD
ATOM     13  O   UNL     1       7.848  -9.027  -0.065  0.00  0.00    -0.269 OA
BRANCH  11  14
ATOM     14  C   UNL     1       6.773 -11.719  -0.034  0.00  0.00    +0.140 C 
BRANCH  14  15
ATOM     15  C   UNL     1       6.416 -12.614   1.134  0.00  0.00    -0.030 A 
ATOM     16  C   UNL     1       7.409 -13.049   2.027  0.00  0.00    +0.008 A 
ATOM     17  C   UNL     1       7.077 -13.855   3.119  0.00  0.00    +0.038 A 
ATOM     18  C   UNL     1       5.753 -14.229   3.320  0.00  0.00    +0.123 A 
ATOM     19  F   UNL     1       5.437 -14.991   4.377  0.00  0.00    -0.205 F 
ATOM     20  C   UNL     1       4.756 -13.822   2.445  0.00  0.00    +0.038 A 
ATOM     21  C   UNL     1       5.086 -13.018   1.351  0.00  0.00    +0.008 A 
ENDBRANCH  14  15
ENDBRANCH  11  14
ENDBRANCH   8  10
BRANCH   1  22
ATOM     22  C   UNL     1       6.246  -4.306  -0.132  0.00  0.00    +0.087 C 
ATOM     23  C   UNL     1       7.778  -4.596  -0.113  0.00  0.00    +0.039 C 
ATOM     24  C   UNL     1       6.016  -3.613  -1.490  0.00  0.00    +0.039 C 
BRANCH  22  26
ATOM     25  C   UNL     1       5.213  -2.290   1.128  0.00  0.00    +0.301 C 
ATOM     26  N   UNL     1       6.025  -3.412   1.043  0.00  0.00    -0.295 N 
ATOM     27  H   UNL     1       6.551  -3.657   1.876  0.00  0.00    +0.150 HD
ATOM     28  O   UNL     1       4.459  -1.953   0.216  0.00  0.00    -0.265 OA
BRANCH  25  32
ATOM     29  C   UNL     1       6.748  -0.871   5.518  0.00  0.00    +0.111 C 
ATOM     30  C   UNL     1       5.924  -0.893   4.296  0.00  0.00    +0.215 A 
ATOM     31  O   UNL     1       6.210  -1.846   3.350  0.00  0.00    -0.417 OA
ATOM     32  C   UNL     1       5.282  -1.550   2.380  0.00  0.00    +0.304 A 
ATOM     33  N   UNL     1       4.504  -0.535   2.711  0.00  0.00    -0.102 NA
ATOM     34  N   UNL     1       4.922  -0.110   3.954  0.00  0.00    -0.112 NA
ENDBRANCH  25  32
ENDBRANCH  22  26
ENDBRANCH   1  22
TORSDOF 6
REMARK  Name = 
REMARK  10 active torsions:
REMARK  status: ('A' for Active; 'I' for Inactive)
REMARK    1  A    between atoms: C_1  and  C_2
REMARK    2  A    between atoms: C_5  and  C_7
REMARK    3  A    between atoms: N_9  and  C_10
REMARK    4  A    between atoms: C_10  and  C_11
REMARK    5  A    between atoms: C_10  and  C_12
REMARK    6  A    between atoms: C_10  and  C_13
REMARK    7  A    between atoms: C_15  and  C_22
REMARK    8  A    between atoms: N_19  and  C_20
REMARK    9  A    between atoms: N_24  and  C_25
REMARK   10  A    between atoms: C_25  and  C_26
REMARK                            x       y       z     vdW  Elec       q    Type
REMARK                         _______ _______ _______ _____ _____    ______ ____
ROOT
ATOM      1  K   UNL     1      -1.190  -1.702   0.148  0.00  0.00    +0.000 K 
ENDROOT
TORSDOF 0
