REMARK  Name = 
REMARK  7 active torsions:
REMARK  status: ('A' for Active; 'I' for Inactive)
REMARK    1  A    between atoms: N_5  and  C_6
REMARK    2  A    between atoms: C_6  and  O_7
REMARK    3  A    between atoms: O_7  and  C_8
REMARK    4  A    between atoms: C_8  and  C_9
REMARK    5  A    between atoms: C_8  and  C_11
REMARK    6  A    between atoms: C_9  and  O_10
REMARK    7  A    between atoms: C_11  and  O_12
REMARK                            x       y       z     vdW  Elec       q    Type
REMARK                         _______ _______ _______ _____ _____    ______ ____
ROOT
ATOM      1  C   UNL     1       2.287  -0.029  -0.048  0.00  0.00    +0.203 A 
ATOM      2  N   UNL     1       1.531   1.089   0.184  0.00  0.00    -0.291 N 
ATOM      3  C   UNL     1       0.217   0.715   0.180  0.00  0.00    +0.167 A 
ATOM      4  N   UNL     1      -0.857   1.505   0.337  0.00  0.00    -0.195 NA
ATOM      5  C   UNL     1      -1.999   0.815   0.162  0.00  0.00    +0.214 A 
ATOM      6  N   UNL     1      -3.188   1.516   0.277  0.00  0.00    -0.327 N 
ATOM      7  H   UNL     1      -3.907   0.826   0.462  0.00  0.00    +0.145 HD
ATOM      8  H   UNL     1      -3.077   2.252   0.954  0.00  0.00    +0.145 HD
ATOM      9  N   UNL     1      -2.122  -0.501  -0.099  0.00  0.00    -0.229 NA
ATOM     10  C   UNL     1      -1.015  -1.269  -0.216  0.00  0.00    +0.021 A 
ATOM     11  O   UNL     1      -1.072  -2.495  -0.540  0.00  0.00    -0.859 OA
ATOM     12  C   UNL     1       0.235  -0.642  -0.092  0.00  0.00    +0.119 A 
ATOM     13  N   UNL     1       1.539  -1.091  -0.284  0.00  0.00    -0.233 NA
ENDROOT
BRANCH   2  14
ATOM     14  C   UNL     1       1.972   2.464   0.297  0.00  0.00    +0.287 C 
BRANCH  14  15
ATOM     15  O   UNL     1       3.401   2.516   0.379  0.00  0.00    -0.351 OA
BRANCH  15  16
ATOM     16  C   UNL     1       3.911   3.864   0.235  0.00  0.00    +0.171 C 
BRANCH  16  17
ATOM     17  C   UNL     1       5.436   3.764   0.072  0.00  0.00    +0.189 C 
BRANCH  17  18
ATOM     18  O   UNL     1       5.754   3.074  -1.137  0.00  0.00    -0.392 OA
ATOM     19  H   UNL     1       5.414   2.169  -1.026  0.00  0.00    +0.210 HD
ENDBRANCH  17  18
ENDBRANCH  16  17
BRANCH  16  20
ATOM     20  C   UNL     1       3.559   4.725   1.452  0.00  0.00    +0.189 C 
BRANCH  20  21
ATOM     21  O   UNL     1       4.004   4.101   2.658  0.00  0.00    -0.392 OA
ATOM     22  H   UNL     1       3.730   3.165   2.617  0.00  0.00    +0.210 HD
ENDBRANCH  20  21
ENDBRANCH  16  20
ENDBRANCH  15  16
ENDBRANCH  14  15
ENDBRANCH   2  14
TORSDOF 7
REMARK  Name = 
REMARK  7 active torsions:
REMARK  status: ('A' for Active; 'I' for Inactive)
REMARK    1  A    between atoms: N_5  and  C_6
REMARK    2  A    between atoms: C_6  and  O_7
REMARK    3  A    between atoms: O_7  and  C_8
REMARK    4  A    between atoms: C_8  and  C_9
REMARK    5  A    between atoms: C_8  and  C_11
REMARK    6  A    between atoms: C_9  and  O_10
REMARK    7  A    between atoms: C_11  and  O_12
REMARK                            x       y       z     vdW  Elec       q    Type
REMARK                         _______ _______ _______ _____ _____    ______ ____
ROOT
ATOM      1 NA   UNL     1       0.636  -2.741  -1.807  0.00  0.00    +0.000 Na
ENDROOT
TORSDOF 0
