REMARK  Name = 
REMARK  7 active torsions:
REMARK  status: ('A' for Active; 'I' for Inactive)
REMARK    1  A    between atoms: N_5  and  C_6
REMARK    2  A    between atoms: C_6  and  O_7
REMARK    3  A    between atoms: O_7  and  C_8
REMARK    4  A    between atoms: C_8  and  C_9
REMARK    5  A    between atoms: C_8  and  C_11
REMARK    6  A    between atoms: C_9  and  O_10
REMARK    7  A    between atoms: C_11  and  O_12
REMARK                            x       y       z     vdW  Elec       q    Type
REMARK                         _______ _______ _______ _____ _____    ______ ____
ROOT
ATOM      1  C   UNL     1       2.209   0.032  -0.099  0.00  0.00    +0.203 A 
ATOM      2  N   UNL     1       1.494   1.173  -0.338  0.00  0.00    -0.291 N 
ATOM      3  C   UNL     1       0.176   0.830  -0.445  0.00  0.00    +0.167 A 
ATOM      4  N   UNL     1      -0.872   1.645  -0.657  0.00  0.00    -0.195 NA
ATOM      5  C   UNL     1      -2.038   0.975  -0.539  0.00  0.00    +0.214 A 
ATOM      6  N   UNL     1      -3.203   1.701  -0.729  0.00  0.00    -0.327 N 
ATOM      7  H   UNL     1      -3.925   1.021  -0.939  0.00  0.00    +0.145 HD
ATOM      8  H   UNL     1      -3.040   2.417  -1.422  0.00  0.00    +0.145 HD
ATOM      9  N   UNL     1      -2.205  -0.327  -0.261  0.00  0.00    -0.229 NA
ATOM     10  C   UNL     1      -1.125  -1.118  -0.082  0.00  0.00    +0.021 A 
ATOM     11  O   UNL     1      -1.226  -2.330   0.287  0.00  0.00    -0.859 OA
ATOM     12  C   UNL     1       0.147  -0.524  -0.169  0.00  0.00    +0.119 A 
ATOM     13  N   UNL     1       1.425  -1.008   0.091  0.00  0.00    -0.233 NA
ENDROOT
BRANCH   2  14
ATOM     14  C   UNL     1       1.961   2.547  -0.263  0.00  0.00    +0.287 C 
BRANCH  14  15
ATOM     15  O   UNL     1       3.348   2.553   0.086  0.00  0.00    -0.351 OA
BRANCH  15  16
ATOM     16  C   UNL     1       3.889   3.885   0.225  0.00  0.00    +0.171 C 
BRANCH  16  17
ATOM     17  C   UNL     1       5.413   3.753   0.286  0.00  0.00    +0.189 C 
BRANCH  17  18
ATOM     18  O   UNL     1       5.909   3.239  -0.953  0.00  0.00    -0.392 OA
ATOM     19  H   UNL     1       5.514   2.354  -1.057  0.00  0.00    +0.210 HD
ENDBRANCH  17  18
ENDBRANCH  16  17
BRANCH  16  20
ATOM     20  C   UNL     1       3.368   4.559   1.508  0.00  0.00    +0.189 C 
BRANCH  20  21
ATOM     21  O   UNL     1       3.626   3.744   2.646  0.00  0.00    -0.392 OA
ATOM     22  H   UNL     1       3.325   2.843   2.434  0.00  0.00    +0.210 HD
ENDBRANCH  20  21
ENDBRANCH  16  20
ENDBRANCH  15  16
ENDBRANCH  14  15
ENDBRANCH   2  14
TORSDOF 7
REMARK  Name = 
REMARK  7 active torsions:
REMARK  status: ('A' for Active; 'I' for Inactive)
REMARK    1  A    between atoms: N_5  and  C_6
REMARK    2  A    between atoms: C_6  and  O_7
REMARK    3  A    between atoms: O_7  and  C_8
REMARK    4  A    between atoms: C_8  and  C_9
REMARK    5  A    between atoms: C_8  and  C_11
REMARK    6  A    between atoms: C_9  and  O_10
REMARK    7  A    between atoms: C_11  and  O_12
REMARK                            x       y       z     vdW  Elec       q    Type
REMARK                         _______ _______ _______ _____ _____    ______ ____
ROOT
ATOM      1 NA   UNL     1       0.392  -2.519   1.686  0.00  0.00    +0.000 Na
ENDROOT
TORSDOF 0
