REMARK  Name = 
REMARK  11 active torsions:
REMARK  status: ('A' for Active; 'I' for Inactive)
REMARK    1  A    between atoms: C_1  and  C_2
REMARK    2  A    between atoms: C_5  and  C_38
REMARK    3  A    between atoms: N_6  and  C_7
REMARK    4  A    between atoms: N_16  and  C_17
REMARK    5  A    between atoms: C_17  and  C_18
REMARK    6  A    between atoms: C_18  and  C_19
REMARK    7  A    between atoms: C_19  and  C_21
REMARK    8  A    between atoms: C_19  and  N_27
REMARK    9  A    between atoms: C_28  and  C_30
REMARK   10  A    between atoms: C_38  and  C_39
REMARK   11  A    between atoms: C_38  and  C_40
REMARK                            x       y       z     vdW  Elec       q    Type
REMARK                         _______ _______ _______ _____ _____    ______ ____
ROOT
ATOM      1  C   UNL     1      -0.570  -1.988   2.271  0.00  0.00    +0.042 C 
ENDROOT
BRANCH   1   2
ATOM      2  C   UNL     1       0.285  -1.286   1.214  0.00  0.00    +0.087 C 
BRANCH   2   6
ATOM      3  C   UNL     1       3.718  -1.247   1.442  0.00  0.00    +0.093 C 
ATOM      4  C   UNL     1       2.977  -0.658   0.208  0.00  0.00    +0.044 C 
ATOM      5  C   UNL     1       1.939   0.424   0.613  0.00  0.00    +0.059 C 
ATOM      6  N   UNL     1       1.002  -0.073   1.636  0.00  0.00    -0.296 NA
ATOM      7  C   UNL     1       1.846  -0.170   2.835  0.00  0.00    +0.059 C 
ATOM      8  C   UNL     1       2.550   1.187   2.837  0.00  0.00    +0.020 C 
ATOM      9  C   UNL     1       2.600   1.591   1.364  0.00  0.00    +0.020 C 
ATOM     10  C   UNL     1       2.858  -1.311   2.718  0.00  0.00    +0.044 C 
BRANCH   3  13
ATOM     11  C   UNL     1       3.352  -4.346   2.447  0.00  0.00    +0.088 C 
ATOM     12  C   UNL     1       4.407  -3.742   1.601  0.00  0.00    +0.131 A 
ATOM     13  N   UNL     1       4.547  -2.427   1.182  0.00  0.00    -0.312 N 
ATOM     14  C   UNL     1       5.812  -2.382   0.604  0.00  0.00    +0.136 A 
ATOM     15  N   UNL     1       6.319  -3.595   0.584  0.00  0.00    -0.134 NA
ATOM     16  N   UNL     1       5.448  -4.437   1.193  0.00  0.00    -0.135 NA
BRANCH  14  17
ATOM     17  C   UNL     1       6.532  -1.151   0.134  0.00  0.00    +0.051 C 
ATOM     18  C   UNL     1       7.682  -1.511  -0.812  0.00  0.00    +0.015 C 
ATOM     19  C   UNL     1       7.098  -0.362   1.319  0.00  0.00    +0.015 C 
ENDBRANCH  14  17
ENDBRANCH   3  13
ENDBRANCH   2   6
ENDBRANCH   1   2
BRANCH   1  20
ATOM     20  C   UNL     1      -1.347  -3.238   1.770  0.00  0.00    +0.104 C 
BRANCH  20  21
ATOM     21  C   UNL     1      -0.586  -4.500   1.356  0.00  0.00    -0.027 A 
ATOM     22  C   UNL     1      -1.024  -5.745   1.848  0.00  0.00    +0.005 A 
ATOM     23  C   UNL     1      -0.400  -6.942   1.475  0.00  0.00    +0.000 A 
ATOM     24  C   UNL     1       0.693  -6.923   0.615  0.00  0.00    +0.000 A 
ATOM     25  C   UNL     1       1.127  -5.712   0.095  0.00  0.00    +0.000 A 
ATOM     26  C   UNL     1       0.463  -4.524   0.424  0.00  0.00    +0.005 A 
ENDBRANCH  20  21
BRANCH  20  27
ATOM     27  N   UNL     1      -2.296  -2.904   0.724  0.00  0.00    -0.308 N 
ATOM     28  H   UNL     1      -2.074  -3.173  -0.225  0.00  0.00    +0.149 HD
ATOM     29  C   UNL     1      -3.500  -2.294   1.006  0.00  0.00    +0.217 C 
ATOM     30  O   UNL     1      -3.807  -1.924   2.130  0.00  0.00    -0.275 OA
BRANCH  29  31
ATOM     31  C   UNL     1      -4.414  -2.153  -0.209  0.00  0.00    +0.075 C 
ATOM     32  C   UNL     1      -5.696  -1.373   0.125  0.00  0.00    +0.018 C 
ATOM     33  C   UNL     1      -6.678  -2.167   0.990  0.00  0.00    +0.076 C 
ATOM     34  C   UNL     1      -6.959  -3.544   0.416  0.00  0.00    +0.249 C 
ATOM     35  F   UNL     1      -7.690  -3.408  -0.722  0.00  0.00    -0.206 F 
ATOM     36  F   UNL     1      -7.724  -4.254   1.281  0.00  0.00    -0.206 F 
ATOM     37  C   UNL     1      -5.697  -4.326   0.095  0.00  0.00    +0.076 C 
ATOM     38  C   UNL     1      -4.765  -3.526  -0.813  0.00  0.00    +0.018 C 
ENDBRANCH  29  31
ENDBRANCH  20  27
ENDBRANCH   1  20
TORSDOF 8
