REMARK  Name = 
REMARK  11 active torsions:
REMARK  status: ('A' for Active; 'I' for Inactive)
REMARK    1  A    between atoms: C_1  and  C_2
REMARK    2  A    between atoms: C_5  and  C_38
REMARK    3  A    between atoms: N_6  and  C_7
REMARK    4  A    between atoms: N_16  and  C_17
REMARK    5  A    between atoms: C_17  and  C_18
REMARK    6  A    between atoms: C_18  and  C_19
REMARK    7  A    between atoms: C_19  and  C_21
REMARK    8  A    between atoms: C_19  and  N_27
REMARK    9  A    between atoms: C_28  and  C_30
REMARK   10  A    between atoms: C_38  and  C_39
REMARK   11  A    between atoms: C_38  and  C_40
REMARK                            x       y       z     vdW  Elec       q    Type
REMARK                         _______ _______ _______ _____ _____    ______ ____
ROOT
ATOM      1  C   UNL     1      -0.604  -1.979   2.146  0.00  0.00    +0.042 C 
ENDROOT
BRANCH   1   2
ATOM      2  C   UNL     1       0.253  -1.275   1.094  0.00  0.00    +0.087 C 
BRANCH   2   6
ATOM      3  C   UNL     1       3.692  -1.253   1.319  0.00  0.00    +0.093 C 
ATOM      4  C   UNL     1       2.949  -0.657   0.089  0.00  0.00    +0.044 C 
ATOM      5  C   UNL     1       1.916   0.428   0.497  0.00  0.00    +0.059 C 
ATOM      6  N   UNL     1       0.977  -0.069   1.520  0.00  0.00    -0.296 NA
ATOM      7  C   UNL     1       1.821  -0.173   2.716  0.00  0.00    +0.059 C 
ATOM      8  C   UNL     1       2.524   1.185   2.724  0.00  0.00    +0.020 C 
ATOM      9  C   UNL     1       2.582   1.590   1.250  0.00  0.00    +0.020 C 
ATOM     10  C   UNL     1       2.830  -1.313   2.596  0.00  0.00    +0.044 C 
BRANCH   3  13
ATOM     11  C   UNL     1       3.285  -4.352   2.309  0.00  0.00    +0.088 C 
ATOM     12  C   UNL     1       4.340  -3.759   1.454  0.00  0.00    +0.131 A 
ATOM     13  N   UNL     1       4.502  -2.443   1.048  0.00  0.00    -0.312 N 
ATOM     14  C   UNL     1       5.758  -2.418   0.450  0.00  0.00    +0.136 A 
ATOM     15  N   UNL     1       6.235  -3.644   0.404  0.00  0.00    -0.134 NA
ATOM     16  N   UNL     1       5.355  -4.474   1.017  0.00  0.00    -0.135 NA
BRANCH  14  17
ATOM     17  C   UNL     1       6.498  -1.205  -0.032  0.00  0.00    +0.051 C 
ATOM     18  C   UNL     1       7.641  -1.601  -0.976  0.00  0.00    +0.015 C 
ATOM     19  C   UNL     1       7.083  -0.411   1.139  0.00  0.00    +0.015 C 
ENDBRANCH  14  17
ENDBRANCH   3  13
ENDBRANCH   2   6
ENDBRANCH   1   2
BRANCH   1  20
ATOM     20  C   UNL     1      -1.391  -3.219   1.631  0.00  0.00    +0.104 C 
BRANCH  20  21
ATOM     21  C   UNL     1      -0.637  -4.480   1.215  0.00  0.00    -0.027 A 
ATOM     22  C   UNL     1      -1.068  -5.721   1.721  0.00  0.00    +0.005 A 
ATOM     23  C   UNL     1      -0.445  -6.919   1.350  0.00  0.00    +0.000 A 
ATOM     24  C   UNL     1       0.639  -6.903   0.481  0.00  0.00    +0.000 A 
ATOM     25  C   UNL     1       1.065  -5.696  -0.055  0.00  0.00    +0.000 A 
ATOM     26  C   UNL     1       0.403  -4.506   0.274  0.00  0.00    +0.005 A 
ENDBRANCH  20  21
BRANCH  20  27
ATOM     27  N   UNL     1      -2.339  -2.871   0.588  0.00  0.00    -0.308 N 
ATOM     28  H   UNL     1      -2.125  -3.143  -0.361  0.00  0.00    +0.149 HD
ATOM     29  C   UNL     1      -3.543  -2.270   0.872  0.00  0.00    +0.217 C 
ATOM     30  O   UNL     1      -3.839  -1.898   2.007  0.00  0.00    -0.275 OA
BRANCH  29  31
ATOM     31  C   UNL     1      -4.474  -2.134  -0.326  0.00  0.00    +0.075 C 
ATOM     32  C   UNL     1      -5.755  -1.362   0.037  0.00  0.00    +0.018 C 
ATOM     33  C   UNL     1      -6.720  -2.168   0.913  0.00  0.00    +0.076 C 
ATOM     34  C   UNL     1      -7.003  -3.547   0.343  0.00  0.00    +0.249 C 
ATOM     35  F   UNL     1      -7.753  -3.402  -0.788  0.00  0.00    -0.206 F 
ATOM     36  F   UNL     1      -7.751  -4.264   1.211  0.00  0.00    -0.206 F 
ATOM     37  C   UNL     1      -5.743  -4.316  -0.010  0.00  0.00    +0.076 C 
ATOM     38  C   UNL     1      -4.827  -3.504  -0.925  0.00  0.00    +0.018 C 
ENDBRANCH  29  31
ENDBRANCH  20  27
ENDBRANCH   1  20
TORSDOF 8
