REMARK  Name = 
REMARK  3 active torsions:
REMARK  status: ('A' for Active; 'I' for Inactive)
REMARK    1  A    between atoms: C_3  and  N_10
REMARK    2  A    between atoms: C_6  and  C_8
REMARK    3  A    between atoms: C_8  and  O_9
REMARK                            x       y       z     vdW  Elec       q    Type
REMARK                         _______ _______ _______ _____ _____    ______ ____
ROOT
ATOM      1  N   UNL     1      -0.168   1.505  -1.789  0.00  0.00    -0.273 N 
ATOM      2  C   UNL     1      -1.201   2.392  -2.113  0.00  0.00    +0.352 A 
ATOM      3  O   UNL     1      -1.931   2.856  -1.241  0.00  0.00    -0.244 OA
ATOM      4  N   UNL     1      -1.379   2.741  -3.435  0.00  0.00    -0.178 NA
ATOM      5  C   UNL     1      -0.551   2.314  -4.334  0.00  0.00    +0.123 A 
ATOM      6  N   UNL     1      -0.772   2.695  -5.628  0.00  0.00    -0.343 N 
ATOM      7  H   UNL     1      -1.416   3.476  -5.697  0.00  0.00    +0.144 HD
ATOM      8  H   UNL     1       0.036   2.781  -6.232  0.00  0.00    +0.144 HD
ATOM      9  C   UNL     1       0.611   1.468  -4.021  0.00  0.00    +0.061 A 
ATOM     10  C   UNL     1       0.741   1.113  -2.748  0.00  0.00    +0.096 A 
ENDROOT
BRANCH   1  14
ATOM     11  C   UNL     1      -0.774  -1.063   0.009  0.00  0.00    +0.038 C 
ATOM     12  C   UNL     1       0.741  -1.037   0.067  0.00  0.00    +0.146 C 
ATOM     13  O   UNL     1       1.167   0.316  -0.208  0.00  0.00    -0.351 OA
ATOM     14  C   UNL     1       0.005   1.156  -0.377  0.00  0.00    +0.224 C 
ATOM     15  C   UNL     1      -1.154   0.377   0.240  0.00  0.00    +0.057 C 
BRANCH  12  16
ATOM     16  C   UNL     1       1.369  -1.990  -0.955  0.00  0.00    +0.187 C 
BRANCH  16  17
ATOM     17  O   UNL     1       2.790  -1.891  -0.925  0.00  0.00    -0.392 OA
ATOM     18  H   UNL     1       2.996  -0.937  -0.930  0.00  0.00    +0.210 HD
ENDBRANCH  16  17
ENDBRANCH  12  16
ENDBRANCH   1  14
TORSDOF 3
