REMARK  Name = 
REMARK  3 active torsions:
REMARK  status: ('A' for Active; 'I' for Inactive)
REMARK    1  A    between atoms: C_3  and  N_10
REMARK    2  A    between atoms: C_6  and  C_8
REMARK    3  A    between atoms: C_8  and  O_9
REMARK                            x       y       z     vdW  Elec       q    Type
REMARK                         _______ _______ _______ _____ _____    ______ ____
ROOT
ATOM      1  N   UNL     1      -0.166   1.502  -1.787  0.00  0.00    -0.273 N 
ATOM      2  C   UNL     1      -1.198   2.395  -2.110  0.00  0.00    +0.352 A 
ATOM      3  O   UNL     1      -1.926   2.858  -1.234  0.00  0.00    -0.244 OA
ATOM      4  N   UNL     1      -1.377   2.742  -3.429  0.00  0.00    -0.178 NA
ATOM      5  C   UNL     1      -0.549   2.316  -4.330  0.00  0.00    +0.123 A 
ATOM      6  N   UNL     1      -0.768   2.696  -5.625  0.00  0.00    -0.343 N 
ATOM      7  H   UNL     1      -1.416   3.475  -5.696  0.00  0.00    +0.144 HD
ATOM      8  H   UNL     1       0.038   2.785  -6.230  0.00  0.00    +0.144 HD
ATOM      9  C   UNL     1       0.614   1.469  -4.020  0.00  0.00    +0.061 A 
ATOM     10  C   UNL     1       0.744   1.111  -2.745  0.00  0.00    +0.096 A 
ENDROOT
BRANCH   1  14
ATOM     11  C   UNL     1      -0.775  -1.064   0.009  0.00  0.00    +0.038 C 
ATOM     12  C   UNL     1       0.741  -1.038   0.069  0.00  0.00    +0.146 C 
ATOM     13  O   UNL     1       1.167   0.314  -0.206  0.00  0.00    -0.351 OA
ATOM     14  C   UNL     1       0.006   1.155  -0.374  0.00  0.00    +0.224 C 
ATOM     15  C   UNL     1      -1.153   0.375   0.242  0.00  0.00    +0.057 C 
BRANCH  12  16
ATOM     16  C   UNL     1       1.370  -1.992  -0.952  0.00  0.00    +0.187 C 
BRANCH  16  17
ATOM     17  O   UNL     1       2.791  -1.889  -0.923  0.00  0.00    -0.392 OA
ATOM     18  H   UNL     1       2.993  -0.934  -0.915  0.00  0.00    +0.210 HD
ENDBRANCH  16  17
ENDBRANCH  12  16
ENDBRANCH   1  14
TORSDOF 3
