REMARK  Name = 
REMARK  37 active torsions:
REMARK  status: ('A' for Active; 'I' for Inactive)
REMARK    1  A    between atoms: C_1  and  C_2
REMARK    2  A    between atoms: C_2  and  C_4
REMARK    3  A    between atoms: C_2  and  N_33
REMARK    4  A    between atoms: N_6  and  C_7
REMARK    5  A    between atoms: C_7  and  C_9
REMARK    6  A    between atoms: C_7  and  C_30
REMARK    7  A    between atoms: C_9  and  C_10
REMARK    8  A    between atoms: C_10  and  C_11
REMARK    9  A    between atoms: N_13  and  CA_14
REMARK   10  A    between atoms: CA_14  and  CB_16
REMARK   11  A    between atoms: CA_14  and  C_21
REMARK   12  A    between atoms: CB_16  and  CG_17
REMARK   13  A    between atoms: CG_17  and  CD_18
REMARK   14  A    between atoms: CD_18  and  CE_19
REMARK   15  A    between atoms: CE_19  and  NZ_20
REMARK   16  A    between atoms: N_23  and  CA_24
REMARK   17  A    between atoms: CA_24  and  CB_26
REMARK   18  A    between atoms: CA_24  and  C_27
REMARK   19  A    between atoms: C_27  and  OXT_29
REMARK   20  A    between atoms: C_34  and  C_36
REMARK   21  A    between atoms: C_36  and  C_37
REMARK   22  A    between atoms: C_36  and  O_38
REMARK   23  A    between atoms: O_38  and  C_39
REMARK   24  A    between atoms: C_41  and  O_56
REMARK   25  A    between atoms: C_43  and  C_54
REMARK   26  A    between atoms: C_46  and  O_53
REMARK   27  A    between atoms: C_47  and  N_49
REMARK   28  A    between atoms: C_50  and  O_52
REMARK   29  A    between atoms: C_54  and  O_55
REMARK   30  A    between atoms: O_56  and  C_57
REMARK   31  A    between atoms: C_59  and  C_72
REMARK   32  A    between atoms: C_61  and  O_71
REMARK   33  A    between atoms: C_63  and  O_70
REMARK   34  A    between atoms: C_65  and  C_68
REMARK   35  A    between atoms: C_68  and  O_69
REMARK   36  A    between atoms: C_72  and  C_73
REMARK   37  A    between atoms: C_73  and  C_75
REMARK                            x       y       z     vdW  Elec       q    Type
REMARK                         _______ _______ _______ _____ _____    ______ ____
ROOT
ATOM      1  N   UNK A   0      10.698   9.979   2.828  0.00  0.00    -0.302 N 
ATOM      2  H   UNK A   0       9.951  10.148   3.491  0.00  0.00    +0.150 HD
ATOM      3  C   UNK A   0      11.909   9.514   3.264  0.00  0.00    +0.242 C 
ATOM      4  O   UNK A   0      12.791   9.121   2.507  0.00  0.00    -0.273 OA
ENDROOT
BRANCH   1   6
ATOM      5  C   UNK A   0      11.342  10.738   0.522  0.00  0.00    +0.038 C 
ATOM      6  C   UNK A   0      10.325  10.048   1.408  0.00  0.00    +0.156 C 
BRANCH   6   7
ATOM      7  C   UNK A   0       9.983   8.679   0.817  0.00  0.00    +0.234 C 
ATOM      8  N   UNK A   0      10.996   7.748   0.885  0.00  0.00    -0.302 N 
ATOM      9  H   UNK A   0      11.916   8.066   1.202  0.00  0.00    +0.150 HD
ATOM     10  O   UNK A   0       8.879   8.456   0.333  0.00  0.00    -0.274 OA
BRANCH   8  11
ATOM     11  C   UNK A   0      10.918   6.407   0.311  0.00  0.00    +0.159 C 
BRANCH  11  12
ATOM     12  C   UNK A   0       9.566   5.725   0.659  0.00  0.00    +0.231 C 
ATOM     13  N   UNK A   0       9.154   5.867   1.960  0.00  0.00    -0.328 N 
ATOM     14  H   UNK A   0       8.203   5.570   2.133  0.00  0.00    +0.145 HD
ATOM     15  H   UNK A   0       9.489   6.666   2.478  0.00  0.00    +0.145 HD
ATOM     16  O   UNK A   0       8.939   4.996  -0.106  0.00  0.00    -0.274 OA
ENDBRANCH  11  12
BRANCH  11  17
ATOM     17  C   UNK A   0      11.206   6.326  -1.196  0.00  0.00    +0.041 C 
BRANCH  17  18
ATOM     18  C   UNK A   0      12.457   7.039  -1.721  0.00  0.00    +0.098 C 
BRANCH  18  19
ATOM     19  C   UNK A   0      13.796   6.604  -1.150  0.00  0.00    +0.214 C 
ATOM     20  N   LYS A   1      14.865   7.265  -1.753  0.00  0.00    -0.304 N 
ATOM     21  H   LYS A   1      14.695   7.655  -2.673  0.00  0.00    +0.149 HD
ATOM     22  O   UNK A   0      13.928   5.794  -0.243  0.00  0.00    -0.276 OA
BRANCH  20  23
ATOM     23  CA  LYS A   1      16.270   6.938  -1.431  0.00  0.00    +0.159 C 
BRANCH  23  24
ATOM     24  C   LYS A   1      17.183   8.194  -1.468  0.00  0.00    +0.234 C 
ATOM     25  N   ALA A   2      16.661   9.338  -2.029  0.00  0.00    -0.301 N 
ATOM     26  H   ALA A   2      15.655   9.420  -1.925  0.00  0.00    +0.150 HD
ATOM     27  O   LYS A   1      18.368   8.173  -1.125  0.00  0.00    -0.274 OA
BRANCH  25  28
ATOM     28  CA  ALA A   2      17.436  10.599  -2.039  0.00  0.00    +0.179 C 
ATOM     29  CB  ALA A   2      16.512  11.780  -2.320  0.00  0.00    +0.040 C 
BRANCH  28  30
ATOM     30  C   ALA A   2      18.605  10.610  -3.065  0.00  0.00    +0.325 C 
ATOM     31  O   ALA A   2      18.810  11.501  -3.873  0.00  0.00    -0.249 OA
BRANCH  30  32
ATOM     32  OXT ALA A   2      19.473   9.573  -2.941  0.00  0.00    -0.479 OA
ATOM     33  HXT ALA A   2      19.254   8.986  -2.165  0.00  0.00    +0.295 HD
ENDBRANCH  30  32
ENDBRANCH  28  30
ENDBRANCH  25  28
ENDBRANCH  23  24
BRANCH  23  34
ATOM     34  CB  LYS A   1      16.779   5.858  -2.408  0.00  0.00    +0.032 C 
BRANCH  34  35
ATOM     35  CG  LYS A   1      18.242   5.420  -2.247  0.00  0.00    +0.003 C 
BRANCH  35  36
ATOM     36  CD  LYS A   1      18.594   4.907  -0.849  0.00  0.00    +0.015 C 
BRANCH  36  37
ATOM     37  CE  LYS A   1      20.089   4.606  -0.743  0.00  0.00    +0.077 C 
BRANCH  37  38
ATOM     38  NZ  LYS A   1      20.415   4.102   0.585  0.00  0.00    -0.330 NA
ATOM     39  HZ1 LYS A   1      21.425   3.980   0.658  0.00  0.00    +0.118 HD
ATOM     40  HZ2 LYS A   1      20.168   4.802   1.285  0.00  0.00    +0.118 HD
ENDBRANCH  37  38
ENDBRANCH  36  37
ENDBRANCH  35  36
ENDBRANCH  34  35
ENDBRANCH  23  34
ENDBRANCH  20  23
ENDBRANCH  18  19
ENDBRANCH  17  18
ENDBRANCH  11  17
ENDBRANCH   8  11
ENDBRANCH   6   7
ENDBRANCH   1   6
BRANCH   3  41
ATOM     41  C   UNK A   0      12.097   9.525   4.793  0.00  0.00    +0.201 C 
ATOM     42  C   UNK A   0      11.639   8.174   5.332  0.00  0.00    +0.048 C 
BRANCH  41  43
ATOM     43  O   UNK A   0      13.439   9.766   5.224  0.00  0.00    -0.360 OA
BRANCH  43  44
ATOM     44  C   UNK A   0      14.008  11.038   4.851  0.00  0.00    +0.176 C 
ATOM     45  C   UNK A   0      15.503  11.089   5.276  0.00  0.00    +0.163 C 
ATOM     46  C   UNK A   0      15.621  11.229   6.819  0.00  0.00    +0.271 C 
ATOM     47  O   UNK A   0      14.829  12.288   7.346  0.00  0.00    -0.341 OA
ATOM     48  C   UNK A   0      13.436  12.223   7.023  0.00  0.00    +0.178 C 
ATOM     49  C   UNK A   0      13.242  12.220   5.483  0.00  0.00    +0.183 C 
BRANCH  45  50
ATOM     50  N   UNK A   0      16.225  12.171   4.569  0.00  0.00    -0.271 N 
ATOM     51  H   UNK A   0      15.908  13.118   4.742  0.00  0.00    +0.153 HD
ATOM     52  C   UNK A   0      17.468  11.964   4.046  0.00  0.00    +0.398 C 
ATOM     53  O   UNK A   0      18.074  10.909   4.034  0.00  0.00    -0.227 OA
BRANCH  52  54
ATOM     54  O   UNK A   0      17.961  13.087   3.501  0.00  0.00    -0.466 OA
ATOM     55  H   UNK A   0      17.315  13.813   3.498  0.00  0.00    +0.297 HD
ENDBRANCH  52  54
ENDBRANCH  45  50
BRANCH  46  56
ATOM     56  O   UNK A   0      16.954  11.506   7.216  0.00  0.00    -0.365 OA
ATOM     57  H   UNK A   0      17.131  12.403   6.887  0.00  0.00    +0.213 HD
ENDBRANCH  46  56
BRANCH  48  58
ATOM     58  C   UNK A   0      12.701  11.084   7.764  0.00  0.00    +0.190 C 
BRANCH  58  59
ATOM     59  O   UNK A   0      12.846  11.149   9.179  0.00  0.00    -0.392 OA
ATOM     60  H   UNK A   0      13.007  12.072   9.441  0.00  0.00    +0.210 HD
ENDBRANCH  58  59
ENDBRANCH  48  58
BRANCH  49  61
ATOM     61  O   UNK A   0      13.678  13.512   5.007  0.00  0.00    -0.342 OA
BRANCH  61  62
ATOM     62  C   UNK A   0      13.563  13.809   3.616  0.00  0.00    +0.257 C 
ATOM     63  O   UNK A   0      14.223  15.048   3.349  0.00  0.00    -0.343 OA
ATOM     64  C   UNK A   0      13.606  16.239   3.892  0.00  0.00    +0.177 C 
ATOM     65  C   UNK A   0      12.086  16.342   3.619  0.00  0.00    +0.174 C 
ATOM     66  C   UNK A   0      11.372  14.994   3.802  0.00  0.00    +0.154 C 
ATOM     67  C   UNK A   0      12.126  13.857   3.090  0.00  0.00    +0.083 C 
BRANCH  66  68
ATOM     68  O   UNK A   0      11.183  14.694   5.186  0.00  0.00    -0.389 OA
ATOM     69  H   UNK A   0      12.042  14.439   5.567  0.00  0.00    +0.210 HD
ENDBRANCH  66  68
BRANCH  65  70
ATOM     70  O   UNK A   0      11.881  16.800   2.271  0.00  0.00    -0.387 OA
ATOM     71  H   UNK A   0      10.921  16.912   2.139  0.00  0.00    +0.210 HD
ENDBRANCH  65  70
BRANCH  67  72
ATOM     72  C   UNK A   0      12.158  14.031   1.556  0.00  0.00    +0.085 C 
BRANCH  72  73
ATOM     73  C   UNK A   0      10.760  14.075   0.955  0.00  0.00    +0.131 C 
ATOM     74  C   UNK A   0      10.622  14.613  -0.442  0.00  0.00    +0.086 C 
ATOM     75  O   UNK A   0       9.781  13.642   1.554  0.00  0.00    -0.298 OA
ENDBRANCH  72  73
ENDBRANCH  67  72
BRANCH  64  76
ATOM     76  C   UNK A   0      13.941  16.437   5.383  0.00  0.00    +0.190 C 
BRANCH  76  77
ATOM     77  O   UNK A   0      15.348  16.382   5.607  0.00  0.00    -0.392 OA
ATOM     78  H   UNK A   0      15.738  17.180   5.210  0.00  0.00    +0.210 HD
ENDBRANCH  76  77
ENDBRANCH  64  76
ENDBRANCH  61  62
ENDBRANCH  49  61
ENDBRANCH  43  44
ENDBRANCH  41  43
ENDBRANCH   3  41
TORSDOF 33
