REMARK  Name = 
REMARK  37 active torsions:
REMARK  status: ('A' for Active; 'I' for Inactive)
REMARK    1  A    between atoms: C_1  and  C_2
REMARK    2  A    between atoms: C_2  and  C_4
REMARK    3  A    between atoms: C_2  and  N_33
REMARK    4  A    between atoms: N_6  and  C_7
REMARK    5  A    between atoms: C_7  and  C_9
REMARK    6  A    between atoms: C_7  and  C_30
REMARK    7  A    between atoms: C_9  and  C_10
REMARK    8  A    between atoms: C_10  and  C_11
REMARK    9  A    between atoms: N_13  and  CA_14
REMARK   10  A    between atoms: CA_14  and  CB_16
REMARK   11  A    between atoms: CA_14  and  C_21
REMARK   12  A    between atoms: CB_16  and  CG_17
REMARK   13  A    between atoms: CG_17  and  CD_18
REMARK   14  A    between atoms: CD_18  and  CE_19
REMARK   15  A    between atoms: CE_19  and  NZ_20
REMARK   16  A    between atoms: N_23  and  CA_24
REMARK   17  A    between atoms: CA_24  and  CB_26
REMARK   18  A    between atoms: CA_24  and  C_27
REMARK   19  A    between atoms: C_27  and  OXT_29
REMARK   20  A    between atoms: C_34  and  C_36
REMARK   21  A    between atoms: C_36  and  C_37
REMARK   22  A    between atoms: C_36  and  O_38
REMARK   23  A    between atoms: O_38  and  C_39
REMARK   24  A    between atoms: C_41  and  O_56
REMARK   25  A    between atoms: C_43  and  C_54
REMARK   26  A    between atoms: C_46  and  O_53
REMARK   27  A    between atoms: C_47  and  N_49
REMARK   28  A    between atoms: C_50  and  O_52
REMARK   29  A    between atoms: C_54  and  O_55
REMARK   30  A    between atoms: O_56  and  C_57
REMARK   31  A    between atoms: C_59  and  C_72
REMARK   32  A    between atoms: C_61  and  O_71
REMARK   33  A    between atoms: C_63  and  O_70
REMARK   34  A    between atoms: C_65  and  C_68
REMARK   35  A    between atoms: C_68  and  O_69
REMARK   36  A    between atoms: C_72  and  C_73
REMARK   37  A    between atoms: C_73  and  C_75
REMARK                            x       y       z     vdW  Elec       q    Type
REMARK                         _______ _______ _______ _____ _____    ______ ____
ROOT
ATOM      1  N   UNK A   0       7.199  -9.767   2.510  0.00  0.00    -0.302 N 
ATOM      2  H   UNK A   0       6.288 -10.201   2.526  0.00  0.00    +0.150 HD
ATOM      3  C   UNK A   0       8.057 -10.090   1.469  0.00  0.00    +0.242 C 
ATOM      4  O   UNK A   0       9.233  -9.732   1.442  0.00  0.00    -0.273 OA
ENDROOT
BRANCH   1   6
ATOM      5  C   UNK A   0       8.852  -8.393   3.877  0.00  0.00    +0.038 C 
ATOM      6  C   UNK A   0       7.526  -9.133   3.809  0.00  0.00    +0.156 C 
BRANCH   6   7
ATOM      7  C   UNK A   0       6.349  -8.209   4.258  0.00  0.00    +0.234 C 
ATOM      8  N   UNK A   0       5.677  -7.563   3.242  0.00  0.00    -0.302 N 
ATOM      9  H   UNK A   0       5.901  -7.844   2.286  0.00  0.00    +0.150 HD
ATOM     10  O   UNK A   0       6.103  -7.982   5.441  0.00  0.00    -0.274 OA
BRANCH   8  11
ATOM     11  C   UNK A   0       4.561  -6.641   3.478  0.00  0.00    +0.159 C 
BRANCH  11  12
ATOM     12  C   UNK A   0       5.014  -5.419   4.302  0.00  0.00    +0.231 C 
ATOM     13  N   UNK A   0       4.033  -4.860   5.079  0.00  0.00    -0.328 N 
ATOM     14  H   UNK A   0       4.328  -4.108   5.692  0.00  0.00    +0.145 HD
ATOM     15  H   UNK A   0       3.252  -5.419   5.407  0.00  0.00    +0.145 HD
ATOM     16  O   UNK A   0       6.098  -4.852   4.160  0.00  0.00    -0.274 OA
ENDBRANCH  11  12
BRANCH  11  17
ATOM     17  C   UNK A   0       3.903  -6.101   2.176  0.00  0.00    +0.041 C 
BRANCH  17  18
ATOM     18  C   UNK A   0       4.798  -5.152   1.360  0.00  0.00    +0.098 C 
BRANCH  18  19
ATOM     19  C   UNK A   0       6.072  -5.866   1.034  0.00  0.00    +0.214 C 
ATOM     20  N   LYS A   1       7.222  -5.118   1.218  0.00  0.00    -0.304 N 
ATOM     21  H   LYS A   1       7.135  -4.431   1.961  0.00  0.00    +0.149 HD
ATOM     22  O   UNK A   0       6.013  -7.044   0.679  0.00  0.00    -0.276 OA
BRANCH  20  23
ATOM     23  CA  LYS A   1       8.576  -5.703   1.122  0.00  0.00    +0.159 C 
BRANCH  23  24
ATOM     24  C   LYS A   1       9.671  -4.657   0.809  0.00  0.00    +0.234 C 
ATOM     25  N   ALA A   2       9.184  -3.511   0.236  0.00  0.00    -0.301 N 
ATOM     26  H   ALA A   2       8.178  -3.417   0.180  0.00  0.00    +0.150 HD
ATOM     27  O   LYS A   1      10.874  -4.851   0.899  0.00  0.00    -0.274 OA
BRANCH  25  28
ATOM     28  CA  ALA A   2      10.035  -2.452  -0.310  0.00  0.00    +0.179 C 
ATOM     29  CB  ALA A   2       9.214  -1.181  -0.445  0.00  0.00    +0.040 C 
BRANCH  28  30
ATOM     30  C   ALA A   2      10.633  -2.794  -1.688  0.00  0.00    +0.325 C 
ATOM     31  O   ALA A   2      10.086  -2.596  -2.767  0.00  0.00    -0.249 OA
BRANCH  30  32
ATOM     32  OXT ALA A   2      11.825  -3.430  -1.612  0.00  0.00    -0.479 OA
ATOM     33  HXT ALA A   2      12.005  -3.793  -0.713  0.00  0.00    +0.295 HD
ENDBRANCH  30  32
ENDBRANCH  28  30
ENDBRANCH  25  28
ENDBRANCH  23  24
BRANCH  23  34
ATOM     34  CB  LYS A   1       8.665  -6.888   0.168  0.00  0.00    +0.032 C 
BRANCH  34  35
ATOM     35  CG  LYS A   1       8.065  -6.668  -1.227  0.00  0.00    +0.003 C 
BRANCH  35  36
ATOM     36  CD  LYS A   1       8.839  -5.800  -2.200  0.00  0.00    +0.015 C 
BRANCH  36  37
ATOM     37  CE  LYS A   1      10.352  -5.979  -2.231  0.00  0.00    +0.077 C 
BRANCH  37  38
ATOM     38  NZ  LYS A   1      10.811  -7.316  -2.018  0.00  0.00    -0.330 NA
ATOM     39  HZ1 LYS A   1      11.683  -7.557  -2.488  0.00  0.00    +0.118 HD
ATOM     40  HZ2 LYS A   1      10.118  -8.017  -2.246  0.00  0.00    +0.118 HD
ENDBRANCH  37  38
ENDBRANCH  36  37
ENDBRANCH  35  36
ENDBRANCH  34  35
ENDBRANCH  23  34
ENDBRANCH  20  23
ENDBRANCH  18  19
ENDBRANCH  17  18
ENDBRANCH  11  17
ENDBRANCH   8  11
ENDBRANCH   6   7
ENDBRANCH   1   6
BRANCH   3  41
ATOM     41  C   UNK A   0       7.480 -10.959   0.275  0.00  0.00    +0.201 C 
ATOM     42  C   UNK A   0       6.042 -11.411   0.557  0.00  0.00    +0.048 C 
BRANCH  41  43
ATOM     43  O   UNK A   0       7.493 -10.483  -1.088  0.00  0.00    -0.360 OA
BRANCH  43  44
ATOM     44  C   UNK A   0       8.771 -10.228  -1.743  0.00  0.00    +0.176 C 
ATOM     45  C   UNK A   0       8.520  -9.670  -3.208  0.00  0.00    +0.163 C 
ATOM     46  C   UNK A   0       8.034 -10.764  -4.159  0.00  0.00    +0.271 C 
ATOM     47  O   UNK A   0       8.938 -11.865  -4.186  0.00  0.00    -0.341 OA
ATOM     48  C   UNK A   0       9.211 -12.455  -2.903  0.00  0.00    +0.178 C 
ATOM     49  C   UNK A   0       9.689 -11.458  -1.805  0.00  0.00    +0.183 C 
BRANCH  45  50
ATOM     50  N   UNK A   0       9.602  -8.833  -3.834  0.00  0.00    -0.271 N 
ATOM     51  H   UNK A   0       9.368  -7.860  -3.965  0.00  0.00    +0.153 HD
ATOM     52  C   UNK A   0      10.755  -9.252  -4.443  0.00  0.00    +0.398 C 
ATOM     53  O   UNK A   0      11.119 -10.390  -4.647  0.00  0.00    -0.227 OA
BRANCH  52  54
ATOM     54  O   UNK A   0      11.486  -8.206  -4.877  0.00  0.00    -0.466 OA
ATOM     55  H   UNK A   0      11.170  -7.331  -4.595  0.00  0.00    +0.297 HD
ENDBRANCH  52  54
ENDBRANCH  45  50
BRANCH  46  56
ATOM     56  O   UNK A   0       7.893 -10.223  -5.473  0.00  0.00    -0.365 OA
ATOM     57  H   UNK A   0       8.689  -9.686  -5.624  0.00  0.00    +0.213 HD
ENDBRANCH  46  56
BRANCH  48  58
ATOM     58  C   UNK A   0       8.013 -13.301  -2.453  0.00  0.00    +0.190 C 
BRANCH  58  59
ATOM     59  O   UNK A   0       7.639 -14.249  -3.451  0.00  0.00    -0.392 OA
ATOM     60  H   UNK A   0       8.367 -14.302  -4.099  0.00  0.00    +0.210 HD
ENDBRANCH  58  59
ENDBRANCH  48  58
BRANCH  49  61
ATOM     61  O   UNK A   0      11.049 -11.112  -2.098  0.00  0.00    -0.342 OA
BRANCH  61  62
ATOM     62  C   UNK A   0      11.791 -10.308  -1.191  0.00  0.00    +0.257 C 
ATOM     63  O   UNK A   0      13.037  -9.945  -1.797  0.00  0.00    -0.343 OA
ATOM     64  C   UNK A   0      14.033 -10.979  -1.904  0.00  0.00    +0.177 C 
ATOM     65  C   UNK A   0      14.231 -11.770  -0.593  0.00  0.00    +0.174 C 
ATOM     66  C   UNK A   0      12.912 -12.086   0.125  0.00  0.00    +0.154 C 
ATOM     67  C   UNK A   0      11.987 -10.871   0.216  0.00  0.00    +0.083 C 
BRANCH  65  68
ATOM     68  O   UNK A   0      15.063 -10.985   0.284  0.00  0.00    -0.387 OA
ATOM     69  H   UNK A   0      15.196 -11.505   1.096  0.00  0.00    +0.210 HD
ENDBRANCH  65  68
BRANCH  66  70
ATOM     70  O   UNK A   0      12.216 -13.169  -0.505  0.00  0.00    -0.389 OA
ATOM     71  H   UNK A   0      12.190 -12.995  -1.474  0.00  0.00    +0.210 HD
ENDBRANCH  66  70
BRANCH  67  72
ATOM     72  C   UNK A   0      12.473  -9.728   1.145  0.00  0.00    +0.085 C 
BRANCH  72  73
ATOM     73  C   UNK A   0      12.601 -10.119   2.603  0.00  0.00    +0.131 C 
ATOM     74  C   UNK A   0      13.124  -9.091   3.561  0.00  0.00    +0.086 C 
ATOM     75  O   UNK A   0      12.271 -11.238   3.019  0.00  0.00    -0.298 OA
ENDBRANCH  72  73
ENDBRANCH  67  72
BRANCH  64  76
ATOM     76  C   UNK A   0      13.857 -11.878  -3.145  0.00  0.00    +0.190 C 
BRANCH  76  77
ATOM     77  O   UNK A   0      12.674 -12.662  -3.114  0.00  0.00    -0.392 OA
ATOM     78  H   UNK A   0      11.971 -12.031  -3.414  0.00  0.00    +0.210 HD
ENDBRANCH  76  77
ENDBRANCH  64  76
ENDBRANCH  61  62
ENDBRANCH  49  61
ENDBRANCH  43  44
ENDBRANCH  41  43
ENDBRANCH   3  41
TORSDOF 33
