REMARK  Name = 
REMARK  10 active torsions:
REMARK  status: ('A' for Active; 'I' for Inactive)
REMARK    1  A    between atoms: C_3  and  N_4
REMARK    2  A    between atoms: N_4  and  C_5
REMARK    3  A    between atoms: N_12  and  C_15
REMARK    4  A    between atoms: C_18  and  C_22
REMARK    5  A    between atoms: C_22  and  O_23
REMARK    6  A    between atoms: C_25  and  N_33
REMARK    7  A    between atoms: C_28  and  C_31
REMARK    8  A    between atoms: C_31  and  O_32
REMARK    9  A    between atoms: O_41  and  S_42
REMARK   10  A    between atoms: S_42  and  O_45
REMARK                            x       y       z     vdW  Elec       q    Type
REMARK                         _______ _______ _______ _____ _____    ______ ____
ROOT
ATOM      1  C   UNL     1       2.250  -2.825   0.611  0.00  0.00    +0.152 A 
ATOM      2  N   UNL     1       2.829  -2.762   1.852  0.00  0.00    -0.198 NA
ATOM      3  C   UNL     1       3.460  -3.844   2.353  0.00  0.00    +0.216 A 
ATOM      4  N   UNL     1       3.935  -3.786   3.651  0.00  0.00    -0.327 N 
ATOM      5  H   UNL     1       3.951  -2.858   4.041  0.00  0.00    +0.145 HD
ATOM      6  H   UNL     1       4.732  -4.389   3.792  0.00  0.00    +0.145 HD
ATOM      7  N   UNL     1       3.730  -4.972   1.690  0.00  0.00    -0.195 NA
ATOM      8  C   UNL     1       3.125  -5.004   0.496  0.00  0.00    +0.168 A 
ATOM      9  N   UNL     1       3.300  -5.909  -0.513  0.00  0.00    -0.308 N 
ATOM     10  C   UNL     1       2.474  -5.538  -1.543  0.00  0.00    +0.202 A 
ATOM     11  N   UNL     1       1.879  -4.394  -1.314  0.00  0.00    -0.231 NA
ATOM     12  C   UNL     1       2.317  -4.033  -0.069  0.00  0.00    +0.148 A 
ENDROOT
BRANCH   9  13
ATOM     13  C   UNL     1       4.381  -6.880  -0.576  0.00  0.00    +0.113 C 
ATOM     14  C   UNL     1       4.132  -7.890  -1.659  0.00  0.00    -0.006 C 
ATOM     15  C   UNL     1       4.785  -7.566  -2.783  0.00  0.00    -0.023 C 
ATOM     16  C   UNL     1       5.659  -6.351  -2.594  0.00  0.00    +0.039 C 
ATOM     17  C   UNL     1       5.703  -6.245  -1.059  0.00  0.00    +0.039 C 
BRANCH  16  18
ATOM     18  C   UNL     1       7.041  -6.511  -3.221  0.00  0.00    +0.163 C 
BRANCH  18  19
ATOM     19  O   UNL     1       6.939  -6.493  -4.642  0.00  0.00    -0.394 OA
ATOM     20  H   UNL     1       6.422  -7.271  -4.912  0.00  0.00    +0.209 HD
ENDBRANCH  18  19
ENDBRANCH  16  18
ENDBRANCH   9  13
BRANCH   1  21
ATOM     21  N   UNL     1       1.822  -1.619   0.003  0.00  0.00    -0.324 N 
ATOM     22  H   UNL     1       2.332  -0.916   0.536  0.00  0.00    +0.148 HD
BRANCH  21  24
ATOM     23  C   UNL     1       0.455  -0.303  -1.763  0.00  0.00    +0.024 C 
ATOM     24  C   UNL     1       1.316  -1.495  -1.379  0.00  0.00    +0.072 C 
ATOM     25  C   UNL     1      -0.100  -1.688  -1.834  0.00  0.00    +0.024 C 
ENDBRANCH  21  24
ENDBRANCH   1  21
TORSDOF 5
REMARK  Name = 
REMARK  10 active torsions:
REMARK  status: ('A' for Active; 'I' for Inactive)
REMARK    1  A    between atoms: C_3  and  N_4
REMARK    2  A    between atoms: N_4  and  C_5
REMARK    3  A    between atoms: N_12  and  C_15
REMARK    4  A    between atoms: C_18  and  C_22
REMARK    5  A    between atoms: C_22  and  O_23
REMARK    6  A    between atoms: C_25  and  N_33
REMARK    7  A    between atoms: C_28  and  C_31
REMARK    8  A    between atoms: C_31  and  O_32
REMARK    9  A    between atoms: O_41  and  S_42
REMARK   10  A    between atoms: S_42  and  O_45
REMARK                            x       y       z     vdW  Elec       q    Type
REMARK                         _______ _______ _______ _____ _____    ______ ____
ROOT
ATOM      1  N   UNL     1      -2.840   1.033   2.540  0.00  0.00    -0.272 N 
ATOM      2  C   UNL     1      -3.864   0.153   2.909  0.00  0.00    +0.352 A 
ATOM      3  O   UNL     1      -4.143  -0.838   2.238  0.00  0.00    -0.244 OA
ATOM      4  N   UNL     1      -4.585   0.437   4.038  0.00  0.00    -0.178 NA
ATOM      5  C   UNL     1      -4.412   1.574   4.631  0.00  0.00    +0.123 A 
ATOM      6  N   UNL     1      -5.199   1.826   5.711  0.00  0.00    -0.343 N 
ATOM      7  H   UNL     1      -5.610   0.977   6.083  0.00  0.00    +0.144 HD
ATOM      8  H   UNL     1      -4.815   2.441   6.420  0.00  0.00    +0.144 HD
ATOM      9  C   UNL     1      -3.419   2.576   4.210  0.00  0.00    +0.061 A 
ATOM     10  C   UNL     1      -2.651   2.224   3.196  0.00  0.00    +0.096 A 
ENDROOT
BRANCH   1  15
ATOM     11  C   UNL     1      -1.623  -0.594   1.083  0.00  0.00    +0.126 C 
ATOM     12  S   UNL     1      -0.096  -0.480   2.008  0.00  0.00    -0.123 S 
ATOM     13  C   UNL     1       0.152   1.195   1.422  0.00  0.00    +0.203 C 
ATOM     14  O   UNL     1      -1.112   1.769   1.068  0.00  0.00    -0.340 OA
ATOM     15  C   UNL     1      -2.187   0.806   1.265  0.00  0.00    +0.235 C 
BRANCH  13  16
ATOM     16  C   UNL     1       0.999   2.009   2.402  0.00  0.00    +0.198 C 
BRANCH  16  17
ATOM     17  O   UNL     1       1.280   3.318   1.900  0.00  0.00    -0.392 OA
ATOM     18  H   UNL     1       1.831   3.225   1.102  0.00  0.00    +0.210 HD
ENDBRANCH  16  17
ENDBRANCH  13  16
ENDBRANCH   1  15
TORSDOF 3
REMARK  Name = 
REMARK  10 active torsions:
REMARK  status: ('A' for Active; 'I' for Inactive)
REMARK    1  A    between atoms: C_3  and  N_4
REMARK    2  A    between atoms: N_4  and  C_5
REMARK    3  A    between atoms: N_12  and  C_15
REMARK    4  A    between atoms: C_18  and  C_22
REMARK    5  A    between atoms: C_22  and  O_23
REMARK    6  A    between atoms: C_25  and  N_33
REMARK    7  A    between atoms: C_28  and  C_31
REMARK    8  A    between atoms: C_31  and  O_32
REMARK    9  A    between atoms: O_41  and  S_42
REMARK   10  A    between atoms: S_42  and  O_45
REMARK                            x       y       z     vdW  Elec       q    Type
REMARK                         _______ _______ _______ _____ _____    ______ ____
ROOT
ATOM      1  S   UNL     1       4.101   0.528  -1.682  0.00  0.00    +0.205 S 
ATOM      2  O   UNL     1       5.281   1.375  -1.678  0.00  0.00    -0.118 OA
ATOM      3  O   UNL     1       3.248   0.395  -2.830  0.00  0.00    -0.118 OA
ENDROOT
BRANCH   1   4
ATOM      4  O   UNL     1       3.167   0.974  -0.457  0.00  0.00    -0.231 OA
ATOM      5  H   UNL     1       2.294   0.590  -0.610  0.00  0.00    +0.247 HD
ENDBRANCH   1   4
BRANCH   1   6
ATOM      6  O   UNL     1       4.527  -0.959  -1.240  0.00  0.00    -0.231 OA
ATOM      7  H   UNL     1       3.810  -1.589  -1.425  0.00  0.00    +0.247 HD
ENDBRANCH   1   6
TORSDOF 2
