REMARK  Name = 
REMARK  15 active torsions:
REMARK  status: ('A' for Active; 'I' for Inactive)
REMARK    1  A    between atoms: C_1  and  C_2
REMARK    2  A    between atoms: N_4  and  C_10
REMARK    3  A    between atoms: C_13  and  N_20
REMARK    4  A    between atoms: C_15  and  C_18
REMARK    5  A    between atoms: C_18  and  O_19
REMARK    6  A    between atoms: C_25  and  N_26
REMARK    7  A    between atoms: N_26  and  C_27
REMARK    8  A    between atoms: N_34  and  C_37
REMARK    9  A    between atoms: C_40  and  C_44
REMARK   10  A    between atoms: C_44  and  O_45
REMARK   11  A    between atoms: C_47  and  N_55
REMARK   12  A    between atoms: C_50  and  C_53
REMARK   13  A    between atoms: C_53  and  O_54
REMARK   14  A    between atoms: O_63  and  S_64
REMARK   15  A    between atoms: S_64  and  O_67
REMARK                            x       y       z     vdW  Elec       q    Type
REMARK                         _______ _______ _______ _____ _____    ______ ____
ROOT
ATOM      1  C   UNL     1       5.985   2.699  -0.604  0.00  0.00    +0.226 C 
ATOM      2  O   UNL     1       6.342   3.034  -1.952  0.00  0.00    -0.349 OA
ATOM      3  C   UNL     1       7.303   4.116  -1.868  0.00  0.00    +0.177 C 
ATOM      4  C   UNL     1       7.504   4.435  -0.375  0.00  0.00    +0.226 C 
ATOM      5  C   UNL     1       7.114   3.139   0.299  0.00  0.00    +0.091 C 
ENDROOT
BRANCH   1  14
ATOM      6  C   UNL     1       2.532  -0.498   0.394  0.00  0.00    +0.051 C 
ATOM      7  C   UNL     1       3.927  -0.245   0.025  0.00  0.00    +0.030 A 
ATOM      8  C   UNL     1       4.761  -1.349  -0.458  0.00  0.00    +0.257 A 
ATOM      9  O   UNL     1       4.358  -2.501  -0.501  0.00  0.00    -0.267 OA
ATOM     10  N   UNL     1       6.011  -0.983  -0.853  0.00  0.00    -0.275 N 
ATOM     11  H   UNL     1       6.587  -1.721  -1.220  0.00  0.00    +0.173 HD
ATOM     12  C   UNL     1       6.488   0.298  -0.942  0.00  0.00    +0.331 A 
ATOM     13  O   UNL     1       7.594   0.513  -1.440  0.00  0.00    -0.246 OA
ATOM     14  N   UNL     1       5.633   1.296  -0.501  0.00  0.00    -0.274 N 
ATOM     15  C   UNL     1       4.399   0.996   0.019  0.00  0.00    +0.101 A 
ENDBRANCH   1  14
BRANCH   4  16
ATOM     16  N   UNL     1       6.525   5.457   0.058  0.00  0.00    +0.082 NA
ATOM     17  N   UNL     1       6.941   6.626   0.138  0.00  0.00    -0.014 NA
ATOM     18  N   UNL     1       7.306   7.701   0.209  0.00  0.00    -0.328 NA
ENDBRANCH   4  16
BRANCH   3  19
ATOM     19  C   UNL     1       8.597   3.691  -2.573  0.00  0.00    +0.189 C 
BRANCH  19  20
ATOM     20  O   UNL     1       9.239   2.608  -1.912  0.00  0.00    -0.392 OA
ATOM     21  H   UNL     1       8.631   1.833  -1.956  0.00  0.00    +0.210 HD
ENDBRANCH  19  20
ENDBRANCH   3  19
TORSDOF 4
REMARK  Name = 
REMARK  15 active torsions:
REMARK  status: ('A' for Active; 'I' for Inactive)
REMARK    1  A    between atoms: C_1  and  C_2
REMARK    2  A    between atoms: N_4  and  C_10
REMARK    3  A    between atoms: C_13  and  N_20
REMARK    4  A    between atoms: C_15  and  C_18
REMARK    5  A    between atoms: C_18  and  O_19
REMARK    6  A    between atoms: C_25  and  N_26
REMARK    7  A    between atoms: N_26  and  C_27
REMARK    8  A    between atoms: N_34  and  C_37
REMARK    9  A    between atoms: C_40  and  C_44
REMARK   10  A    between atoms: C_44  and  O_45
REMARK   11  A    between atoms: C_47  and  N_55
REMARK   12  A    between atoms: C_50  and  C_53
REMARK   13  A    between atoms: C_53  and  O_54
REMARK   14  A    between atoms: O_63  and  S_64
REMARK   15  A    between atoms: S_64  and  O_67
REMARK                            x       y       z     vdW  Elec       q    Type
REMARK                         _______ _______ _______ _____ _____    ______ ____
ROOT
ATOM      1  C   UNL     1       1.495  -3.154   4.041  0.00  0.00    +0.152 A 
ATOM      2  N   UNL     1       2.008  -2.927   5.274  0.00  0.00    -0.198 NA
ATOM      3  C   UNL     1       2.063  -3.947   6.146  0.00  0.00    +0.216 A 
ATOM      4  N   UNL     1       2.641  -3.679   7.374  0.00  0.00    -0.327 N 
ATOM      5  H   UNL     1       3.317  -2.936   7.255  0.00  0.00    +0.145 HD
ATOM      6  H   UNL     1       2.983  -4.549   7.757  0.00  0.00    +0.145 HD
ATOM      7  N   UNL     1       1.703  -5.221   5.924  0.00  0.00    -0.195 NA
ATOM      8  C   UNL     1       1.303  -5.412   4.660  0.00  0.00    +0.168 A 
ATOM      9  N   UNL     1       0.891  -6.561   4.047  0.00  0.00    -0.308 N 
ATOM     10  C   UNL     1       0.691  -6.280   2.721  0.00  0.00    +0.202 A 
ATOM     11  N   UNL     1       0.850  -5.013   2.460  0.00  0.00    -0.231 NA
ATOM     12  C   UNL     1       1.194  -4.461   3.670  0.00  0.00    +0.148 A 
ENDROOT
BRANCH   9  13
ATOM     13  C   UNL     1       0.599  -7.804   4.729  0.00  0.00    +0.113 C 
ATOM     14  C   UNL     1      -0.677  -7.660   5.519  0.00  0.00    -0.006 C 
ATOM     15  C   UNL     1      -1.726  -8.167   4.859  0.00  0.00    -0.023 C 
ATOM     16  C   UNL     1      -1.293  -8.770   3.555  0.00  0.00    +0.039 C 
ATOM     17  C   UNL     1       0.221  -8.954   3.788  0.00  0.00    +0.039 C 
BRANCH  16  18
ATOM     18  C   UNL     1      -1.978 -10.075   3.187  0.00  0.00    +0.163 C 
BRANCH  18  19
ATOM     19  O   UNL     1      -1.398 -10.607   2.001  0.00  0.00    -0.394 OA
ATOM     20  H   UNL     1      -1.570  -9.978   1.278  0.00  0.00    +0.209 HD
ENDBRANCH  18  19
ENDBRANCH  16  18
ENDBRANCH   9  13
BRANCH   1  21
ATOM     21  N   UNL     1       1.362  -2.078   3.154  0.00  0.00    -0.324 N 
ATOM     22  H   UNL     1       2.332  -1.815   2.977  0.00  0.00    +0.148 HD
BRANCH  21  24
ATOM     23  C   UNL     1      -0.197  -1.199   1.432  0.00  0.00    +0.024 C 
ATOM     24  C   UNL     1       0.593  -2.334   1.933  0.00  0.00    +0.072 C 
ATOM     25  C   UNL     1      -0.901  -2.474   1.727  0.00  0.00    +0.024 C 
ENDBRANCH  21  24
ENDBRANCH   1  21
TORSDOF 5
REMARK  Name = 
REMARK  15 active torsions:
REMARK  status: ('A' for Active; 'I' for Inactive)
REMARK    1  A    between atoms: C_1  and  C_2
REMARK    2  A    between atoms: N_4  and  C_10
REMARK    3  A    between atoms: C_13  and  N_20
REMARK    4  A    between atoms: C_15  and  C_18
REMARK    5  A    between atoms: C_18  and  O_19
REMARK    6  A    between atoms: C_25  and  N_26
REMARK    7  A    between atoms: N_26  and  C_27
REMARK    8  A    between atoms: N_34  and  C_37
REMARK    9  A    between atoms: C_40  and  C_44
REMARK   10  A    between atoms: C_44  and  O_45
REMARK   11  A    between atoms: C_47  and  N_55
REMARK   12  A    between atoms: C_50  and  C_53
REMARK   13  A    between atoms: C_53  and  O_54
REMARK   14  A    between atoms: O_63  and  S_64
REMARK   15  A    between atoms: S_64  and  O_67
REMARK                            x       y       z     vdW  Elec       q    Type
REMARK                         _______ _______ _______ _____ _____    ______ ____
ROOT
ATOM      1  N   UNL     1      -2.577   1.030   1.957  0.00  0.00    -0.272 N 
ATOM      2  C   UNL     1      -3.423   0.016   2.434  0.00  0.00    +0.352 A 
ATOM      3  O   UNL     1      -4.048  -0.694   1.647  0.00  0.00    -0.244 OA
ATOM      4  N   UNL     1      -3.556  -0.154   3.800  0.00  0.00    -0.178 NA
ATOM      5  C   UNL     1      -2.984   0.673   4.620  0.00  0.00    +0.123 A 
ATOM      6  N   UNL     1      -3.177   0.526   5.966  0.00  0.00    -0.343 N 
ATOM      7  H   UNL     1      -3.542  -0.379   6.240  0.00  0.00    +0.144 HD
ATOM      8  H   UNL     1      -2.468   0.894   6.588  0.00  0.00    +0.144 HD
ATOM      9  C   UNL     1      -2.148   1.789   4.167  0.00  0.00    +0.061 A 
ATOM     10  C   UNL     1      -2.020   1.917   2.854  0.00  0.00    +0.096 A 
ENDROOT
BRANCH   1  15
ATOM     11  C   UNL     1      -2.241   0.289  -0.533  0.00  0.00    +0.126 C 
ATOM     12  S   UNL     1      -0.674   0.815  -1.282  0.00  0.00    -0.123 S 
ATOM     13  C   UNL     1      -0.536   2.277  -0.232  0.00  0.00    +0.203 C 
ATOM     14  O   UNL     1      -1.851   2.563   0.258  0.00  0.00    -0.340 OA
ATOM     15  C   UNL     1      -2.605   1.357   0.519  0.00  0.00    +0.235 C 
BRANCH  13  16
ATOM     16  C   UNL     1       0.543   2.287   0.893  0.00  0.00    +0.198 C 
BRANCH  16  17
ATOM     17  O   UNL     1       0.600   3.576   1.527  0.00  0.00    -0.392 OA
ATOM     18  H   UNL     1       1.387   3.590   2.100  0.00  0.00    +0.210 HD
ENDBRANCH  16  17
ENDBRANCH  13  16
ENDBRANCH   1  15
TORSDOF 3
REMARK  Name = 
REMARK  15 active torsions:
REMARK  status: ('A' for Active; 'I' for Inactive)
REMARK    1  A    between atoms: C_1  and  C_2
REMARK    2  A    between atoms: N_4  and  C_10
REMARK    3  A    between atoms: C_13  and  N_20
REMARK    4  A    between atoms: C_15  and  C_18
REMARK    5  A    between atoms: C_18  and  O_19
REMARK    6  A    between atoms: C_25  and  N_26
REMARK    7  A    between atoms: N_26  and  C_27
REMARK    8  A    between atoms: N_34  and  C_37
REMARK    9  A    between atoms: C_40  and  C_44
REMARK   10  A    between atoms: C_44  and  O_45
REMARK   11  A    between atoms: C_47  and  N_55
REMARK   12  A    between atoms: C_50  and  C_53
REMARK   13  A    between atoms: C_53  and  O_54
REMARK   14  A    between atoms: O_63  and  S_64
REMARK   15  A    between atoms: S_64  and  O_67
REMARK                            x       y       z     vdW  Elec       q    Type
REMARK                         _______ _______ _______ _____ _____    ______ ____
ROOT
ATOM      1  S   UNL     1       2.332   0.380  -3.118  0.00  0.00    +0.205 S 
ATOM      2  O   UNL     1       2.049  -0.967  -2.721  0.00  0.00    -0.118 OA
ATOM      3  O   UNL     1       2.401   1.486  -2.186  0.00  0.00    -0.118 OA
ENDROOT
BRANCH   1   4
ATOM      4  O   UNL     1       1.245   0.813  -4.211  0.00  0.00    -0.231 OA
ATOM      5  H   UNL     1       0.371   0.812  -3.766  0.00  0.00    +0.247 HD
ENDBRANCH   1   4
BRANCH   1   6
ATOM      6  O   UNL     1       3.716   0.408  -3.916  0.00  0.00    -0.231 OA
ATOM      7  H   UNL     1       4.249   1.140  -3.537  0.00  0.00    +0.247 HD
ENDBRANCH   1   6
TORSDOF 2
