REMARK  Name = 
REMARK  189 active torsions:
REMARK  status: ('A' for Active; 'I' for Inactive)
REMARK    1  A    between atoms: CD1_1  and  CG1_2
REMARK    2  A    between atoms: CG1_2  and  CB_3
REMARK    3  A    between atoms: CB_3  and  CG2_5
REMARK    4  A    between atoms: CB_3  and  CA_6
REMARK    5  A    between atoms: CA_6  and  C_8
REMARK    6  A    between atoms: CA_6  and  N_284
REMARK    7  A    between atoms: N_10  and  CA_11
REMARK    8  A    between atoms: CA_11  and  CB_13
REMARK    9  A    between atoms: CA_11  and  C_18
REMARK   10  A    between atoms: CB_13  and  CG_14
REMARK   11  A    between atoms: CG_14  and  CD_15
REMARK   12  A    between atoms: CD_15  and  OE2_17
REMARK   13  A    between atoms: N_20  and  CA_21
REMARK   14  A    between atoms: CA_21  and  CB_23
REMARK   15  A    between atoms: CA_21  and  C_28
REMARK   16  A    between atoms: CB_23  and  CG_24
REMARK   17  A    between atoms: CG_24  and  CD_25
REMARK   18  A    between atoms: CD_25  and  OE2_27
REMARK   19  A    between atoms: N_30  and  CA_31
REMARK   20  A    between atoms: CA_31  and  CB_33
REMARK   21  A    between atoms: CA_31  and  C_35
REMARK   22  A    between atoms: CB_33  and  OG_34
REMARK   23  A    between atoms: N_37  and  CA_38
REMARK   24  A    between atoms: CA_38  and  CB_40
REMARK   25  A    between atoms: CA_38  and  C_45
REMARK   26  A    between atoms: CB_40  and  CG_41
REMARK   27  A    between atoms: CG_41  and  CD_42
REMARK   28  A    between atoms: N_47  and  CA_48
REMARK   29  A    between atoms: CA_48  and  CB_50
REMARK   30  A    between atoms: CA_48  and  C_54
REMARK   31  A    between atoms: CB_50  and  CG_51
REMARK   32  A    between atoms: N_56  and  CA_57
REMARK   33  A    between atoms: CA_57  and  CB_59
REMARK   34  A    between atoms: CA_57  and  C_64
REMARK   35  A    between atoms: CB_59  and  CG_60
REMARK   36  A    between atoms: CG_60  and  CD_61
REMARK   37  A    between atoms: N_66  and  CA_67
REMARK   38  A    between atoms: CA_67  and  CB_69
REMARK   39  A    between atoms: CA_67  and  C_74
REMARK   40  A    between atoms: CB_69  and  CG_70
REMARK   41  A    between atoms: CG_70  and  CD_71
REMARK   42  A    between atoms: N_76  and  CA_77
REMARK   43  A    between atoms: CA_77  and  CB_79
REMARK   44  A    between atoms: CA_77  and  C_84
REMARK   45  A    between atoms: CB_79  and  CG_80
REMARK   46  A    between atoms: CG_80  and  CD_81
REMARK   47  A    between atoms: CD_81  and  OE2_83
REMARK   48  A    between atoms: N_86  and  CA_87
REMARK   49  A    between atoms: CA_87  and  CB_89
REMARK   50  A    between atoms: CA_87  and  C_94
REMARK   51  A    between atoms: CB_89  and  CG_90
REMARK   52  A    between atoms: CG_90  and  CD_91
REMARK   53  A    between atoms: CD_91  and  CE_92
REMARK   54  A    between atoms: CE_92  and  NZ_93
REMARK   55  A    between atoms: N_96  and  CA_97
REMARK   56  A    between atoms: CA_97  and  CB_99
REMARK   57  A    between atoms: CA_97  and  C_103
REMARK   58  A    between atoms: CB_99  and  CG_100
REMARK   59  A    between atoms: N_105  and  CA_106
REMARK   60  A    between atoms: CA_106  and  CB_108
REMARK   61  A    between atoms: CA_106  and  C_113
REMARK   62  A    between atoms: CB_108  and  CG_109
REMARK   63  A    between atoms: CG_109  and  CD_110
REMARK   64  A    between atoms: CD_110  and  OE2_112
REMARK   65  A    between atoms: N_115  and  CA_116
REMARK   66  A    between atoms: CA_116  and  CB_118
REMARK   67  A    between atoms: CA_116  and  C_123
REMARK   68  A    between atoms: CB_118  and  CG_119
REMARK   69  A    between atoms: CG_119  and  CD_120
REMARK   70  A    between atoms: N_125  and  CA_126
REMARK   71  A    between atoms: CA_126  and  CB_128
REMARK   72  A    between atoms: CA_126  and  C_133
REMARK   73  A    between atoms: CB_128  and  CG_129
REMARK   74  A    between atoms: CG_129  and  CD_130
REMARK   75  A    between atoms: CD_130  and  OE2_132
REMARK   76  A    between atoms: N_135  and  CA_136
REMARK   77  A    between atoms: CA_136  and  CB_138
REMARK   78  A    between atoms: CA_136  and  C_142
REMARK   79  A    between atoms: CB_138  and  CG_139
REMARK   80  A    between atoms: CG_139  and  CD1_140
REMARK   81  A    between atoms: CG_139  and  CD2_141
REMARK   82  A    between atoms: N_144  and  CA_145
REMARK   83  A    between atoms: CA_145  and  CB_147
REMARK   84  A    between atoms: CA_145  and  C_151
REMARK   85  A    between atoms: CB_147  and  CG_148
REMARK   86  A    between atoms: CG_148  and  CD1_149
REMARK   87  A    between atoms: CG_148  and  CD2_150
REMARK   88  A    between atoms: N_153  and  CA_154
REMARK   89  A    between atoms: CA_154  and  CB_156
REMARK   90  A    between atoms: CA_154  and  C_161
REMARK   91  A    between atoms: CB_156  and  CG_157
REMARK   92  A    between atoms: CG_157  and  CD_158
REMARK   93  A    between atoms: CD_158  and  OE2_160
REMARK   94  A    between atoms: N_163  and  CA_164
REMARK   95  A    between atoms: CA_164  and  CB_166
REMARK   96  A    between atoms: CA_164  and  C_170
REMARK   97  A    between atoms: CB_166  and  CG_167
REMARK   98  A    between atoms: CG_167  and  CD1_168
REMARK   99  A    between atoms: CG_167  and  CD2_169
REMARK  100  A    between atoms: N_172  and  CA_173
REMARK  101  A    between atoms: CA_173  and  CB_175
REMARK  102  A    between atoms: CA_173  and  C_179
REMARK  103  A    between atoms: CB_175  and  CG_176
REMARK  104  A    between atoms: CG_176  and  OD2_178
REMARK  105  A    between atoms: N_181  and  CA_182
REMARK  106  A    between atoms: CA_182  and  CB_184
REMARK  107  A    between atoms: CA_182  and  C_189
REMARK  108  A    between atoms: CB_184  and  CG_185
REMARK  109  A    between atoms: CG_185  and  CD_186
REMARK  110  A    between atoms: CD_186  and  CE_187
REMARK  111  A    between atoms: CE_187  and  NZ_188
REMARK  112  A    between atoms: N_191  and  CA_192
REMARK  113  A    between atoms: CA_192  and  CB_194
REMARK  114  A    between atoms: CA_192  and  C_204
REMARK  115  A    between atoms: CB_194  and  CG_195
REMARK  116  A    between atoms: N_206  and  CA_207
REMARK  117  A    between atoms: CA_207  and  CB_209
REMARK  118  A    between atoms: CA_207  and  C_210
REMARK  119  A    between atoms: N_212  and  CA_213
REMARK  120  A    between atoms: CA_213  and  CB_215
REMARK  121  A    between atoms: CA_213  and  C_217
REMARK  122  A    between atoms: CB_215  and  OG_216
REMARK  123  A    between atoms: N_219  and  CA_220
REMARK  124  A    between atoms: CA_220  and  CB_222
REMARK  125  A    between atoms: CA_220  and  C_226
REMARK  126  A    between atoms: CB_222  and  CG_223
REMARK  127  A    between atoms: CG_223  and  CD1_224
REMARK  128  A    between atoms: CG_223  and  CD2_225
REMARK  129  A    between atoms: N_228  and  CA_229
REMARK  130  A    between atoms: CA_229  and  CB_231
REMARK  131  A    between atoms: CA_229  and  C_241
REMARK  132  A    between atoms: CB_231  and  CG_232
REMARK  133  A    between atoms: N_243  and  CA_244
REMARK  134  A    between atoms: CA_244  and  CB_246
REMARK  135  A    between atoms: CA_244  and  C_250
REMARK  136  A    between atoms: CB_246  and  CG_247
REMARK  137  A    between atoms: N_252  and  CA_253
REMARK  138  A    between atoms: CA_253  and  CB_255
REMARK  139  A    between atoms: CA_253  and  C_265
REMARK  140  A    between atoms: CB_255  and  CG_256
REMARK  141  A    between atoms: N_267  and  CA_268
REMARK  142  A    between atoms: CA_268  and  CB_270
REMARK  143  A    between atoms: CA_268  and  C_277
REMARK  144  A    between atoms: CB_270  and  CG_271
REMARK  145  A    between atoms: N_279  and  CA_280
REMARK  146  A    between atoms: CA_280  and  C_281
REMARK  147  A    between atoms: C_281  and  OXT_283
REMARK  148  A    between atoms: C_285  and  CA_287
REMARK  149  A    between atoms: CA_287  and  CB_289
REMARK  150  A    between atoms: CA_287  and  N_293
REMARK  151  A    between atoms: CB_289  and  CG_290
REMARK  152  A    between atoms: CG_290  and  CD1_291
REMARK  153  A    between atoms: CG_290  and  CD2_292
REMARK  154  A    between atoms: C_294  and  CA_296
REMARK  155  A    between atoms: CA_296  and  CB_298
REMARK  156  A    between atoms: CA_296  and  N_300
REMARK  157  A    between atoms: CB_298  and  O_299
REMARK  158  A    between atoms: C_301  and  CA_303
REMARK  159  A    between atoms: CA_303  and  CB_305
REMARK  160  A    between atoms: CA_303  and  N_311
REMARK  161  A    between atoms: CB_305  and  CG_306
REMARK  162  A    between atoms: C_312  and  CA_314
REMARK  163  A    between atoms: CA_314  and  CB_316
REMARK  164  A    between atoms: CA_314  and  N_321
REMARK  165  A    between atoms: CB_316  and  CG2_318
REMARK  166  A    between atoms: CB_316  and  CG1_319
REMARK  167  A    between atoms: CG1_319  and  CD1_320
REMARK  168  A    between atoms: C_322  and  CA_324
REMARK  169  A    between atoms: CA_324  and  CB_326
REMARK  170  A    between atoms: CA_324  and  N_330
REMARK  171  A    between atoms: CB_326  and  CG_327
REMARK  172  A    between atoms: CG_327  and  CD1_328
REMARK  173  A    between atoms: CG_327  and  CD2_329
REMARK  174  A    between atoms: C_331  and  CA_333
REMARK  175  A    between atoms: CA_333  and  CB_335
REMARK  176  A    between atoms: CA_333  and  N_337
REMARK  177  A    between atoms: CB_335  and  O_336
REMARK  178  A    between atoms: C_338  and  CA_340
REMARK  179  A    between atoms: CA_340  and  CB_342
REMARK  180  A    between atoms: CA_340  and  N_346
REMARK  181  A    between atoms: CB_342  and  CG2_344
REMARK  182  A    between atoms: CB_342  and  OG1_345
REMARK  183  A    between atoms: C_347  and  C_349
REMARK  184  A    between atoms: C_349  and  C_351
REMARK  185  A    between atoms: C_349  and  N_359
REMARK  186  A    between atoms: C_351  and  C_352
REMARK  187  A    between atoms: C_355  and  O_358
REMARK  188  A    between atoms: N_359  and  N_360
REMARK  189  A    between atoms: C_361  and  C_363
REMARK                            x       y       z     vdW  Elec       q    Type
REMARK                         _______ _______ _______ _____ _____    ______ ____
ROOT
ATOM      1  CA  ASN A  11     -11.993  28.599  11.395  0.00  0.00    +0.168 C 
ENDROOT
BRANCH   1   3
ATOM      2  C   LYS A  10      -9.799  27.345  11.490  0.00  0.00    +0.234 C 
ATOM      3  N   ASN A  11     -10.755  28.170  12.052  0.00  0.00    -0.302 N 
ATOM      4  H   ASN A  11     -10.800  28.211  13.065  0.00  0.00    +0.150 HD
ATOM      5  O   LYS A  10      -9.944  26.829  10.382  0.00  0.00    -0.274 OA
BRANCH   2   6
ATOM      6  CA  LYS A  10      -8.530  27.149  12.351  0.00  0.00    +0.159 C 
BRANCH   6   8
ATOM      7  C   GLU A   9      -6.724  25.355  12.199  0.00  0.00    +0.234 C 
ATOM      8  N   LYS A  10      -7.592  26.260  11.629  0.00  0.00    -0.302 N 
ATOM      9  H   LYS A  10      -7.703  26.269  10.594  0.00  0.00    +0.150 HD
ATOM     10  O   GLU A   9      -6.571  25.263  13.419  0.00  0.00    -0.274 OA
BRANCH   7  11
ATOM     11  CA  GLU A   9      -5.994  24.395  11.204  0.00  0.00    +0.159 C 
BRANCH  11  13
ATOM     12  C   GLN A   8      -6.582  23.887   8.869  0.00  0.00    +0.234 C 
ATOM     13  N   GLU A   9      -6.245  24.807   9.829  0.00  0.00    -0.302 N 
ATOM     14  H   GLU A   9      -5.875  25.699   9.514  0.00  0.00    +0.150 HD
ATOM     15  O   GLN A   8      -6.809  22.713   9.164  0.00  0.00    -0.274 OA
BRANCH  12  16
ATOM     16  CA  GLN A   8      -6.694  24.420   7.416  0.00  0.00    +0.159 C 
BRANCH  16  18
ATOM     17  C   GLN A   7      -7.250  26.710   6.582  0.00  0.00    +0.234 C 
ATOM     18  N   GLN A   8      -6.459  25.863   7.319  0.00  0.00    -0.302 N 
ATOM     19  H   GLN A   8      -5.563  26.213   7.654  0.00  0.00    +0.150 HD
ATOM     20  O   GLN A   7      -8.187  26.297   5.897  0.00  0.00    -0.274 OA
BRANCH  17  21
ATOM     21  CA  GLN A   7      -6.869  28.224   6.614  0.00  0.00    +0.159 C 
BRANCH  21  23
ATOM     22  C   ASN A   6      -5.841  28.399   8.942  0.00  0.00    +0.234 C 
ATOM     23  N   GLN A   7      -5.779  28.554   7.566  0.00  0.00    -0.302 N 
ATOM     24  H   GLN A   7      -5.036  29.108   7.170  0.00  0.00    +0.150 HD
ATOM     25  O   ASN A   6      -6.849  27.971   9.501  0.00  0.00    -0.274 OA
BRANCH  22  26
ATOM     26  CA  ASN A   6      -4.532  28.740   9.761  0.00  0.00    +0.168 C 
BRANCH  26  28
ATOM     27  C   GLN A   5      -3.311  27.711  11.762  0.00  0.00    +0.234 C 
ATOM     28  N   ASN A   6      -4.471  27.965  11.043  0.00  0.00    -0.302 N 
ATOM     29  H   ASN A   6      -5.374  27.710  11.435  0.00  0.00    +0.150 HD
ATOM     30  O   GLN A   5      -2.188  28.006  11.346  0.00  0.00    -0.274 OA
BRANCH  27  31
ATOM     31  CA  GLN A   5      -3.417  26.941  13.111  0.00  0.00    +0.159 C 
BRANCH  31  33
ATOM     32  C   SER A   4      -1.812  25.753  14.659  0.00  0.00    +0.236 C 
ATOM     33  N   GLN A   5      -2.059  26.614  13.602  0.00  0.00    -0.302 N 
ATOM     34  H   GLN A   5      -1.408  26.534  12.827  0.00  0.00    +0.150 HD
ATOM     35  O   SER A   4      -2.687  25.442  15.475  0.00  0.00    -0.274 OA
BRANCH  32  36
ATOM     36  CA  SER A   4      -0.331  25.299  14.857  0.00  0.00    +0.184 C 
BRANCH  36  38
ATOM     37  C   GLU A   3       1.184  24.082  13.212  0.00  0.00    +0.234 C 
ATOM     38  N   SER A   4       0.521  25.240  13.638  0.00  0.00    -0.301 N 
ATOM     39  H   SER A   4       0.484  26.027  13.006  0.00  0.00    +0.150 HD
ATOM     40  O   GLU A   3       1.292  23.093  13.938  0.00  0.00    -0.274 OA
BRANCH  37  41
ATOM     41  CA  GLU A   3       1.861  24.149  11.784  0.00  0.00    +0.159 C 
BRANCH  41  43
ATOM     42  C   GLU A   2       3.054  22.614  10.111  0.00  0.00    +0.234 C 
ATOM     43  N   GLU A   3       2.666  22.950  11.411  0.00  0.00    -0.302 N 
ATOM     44  H   GLU A   3       3.006  22.388  12.199  0.00  0.00    +0.150 HD
ATOM     45  O   GLU A   2       2.672  23.240   9.118  0.00  0.00    -0.274 OA
BRANCH  42  46
ATOM     46  CA  GLU A   2       3.993  21.385   9.973  0.00  0.00    +0.159 C 
BRANCH  46  48
ATOM     47  C   THR A   1       4.305  21.029   7.467  0.00  0.00    +0.234 C 
ATOM     48  N   GLU A   2       3.759  20.667   8.695  0.00  0.00    -0.302 N 
ATOM     49  H   GLU A   2       2.919  20.087   8.627  0.00  0.00    +0.150 HD
ATOM     50  O   THR A   1       5.026  22.009   7.306  0.00  0.00    -0.274 OA
BRANCH  47  51
ATOM     51  CA  THR A   1       3.893  20.125   6.268  0.00  0.00    +0.162 C 
BRANCH  51  52
ATOM     52  N   THR A   1       2.680  20.681   5.662  0.00  0.00    -0.302 N 
ATOM     53  H   THR A   1       2.719  21.434   4.987  0.00  0.00    +0.150 HD
ATOM     54  C   THR A   1       1.496  20.361   6.253  0.00  0.00    +0.234 C 
ATOM     55  O   THR A   1       1.550  19.686   7.286  0.00  0.00    -0.274 OA
BRANCH  54  56
ATOM     56  CA  THR A   1       0.171  20.983   5.723  0.00  0.00    +0.159 C 
BRANCH  56  57
ATOM     57  N   THR A   1       0.147  21.854   4.560  0.00  0.00    -0.302 N 
ATOM     58  H   THR A   1      -0.416  22.691   4.726  0.00  0.00    +0.150 HD
ATOM     59  C   THR A   1       0.069  21.407   3.269  0.00  0.00    +0.236 C 
ATOM     60  O   THR A   1       0.176  20.220   2.967  0.00  0.00    -0.274 OA
BRANCH  59  61
ATOM     61  CA  THR A   1      -0.149  22.504   2.200  0.00  0.00    +0.184 C 
BRANCH  61  62
ATOM     62  N   THR A   1      -1.242  22.139   1.300  0.00  0.00    -0.301 N 
ATOM     63  H   THR A   1      -1.720  21.258   1.460  0.00  0.00    +0.150 HD
ATOM     64  C   THR A   1      -1.297  22.702   0.046  0.00  0.00    +0.234 C 
ATOM     65  O   THR A   1      -0.533  23.608  -0.285  0.00  0.00    -0.274 OA
BRANCH  64  66
ATOM     66  CA  THR A   1      -2.289  22.085  -0.952  0.00  0.00    +0.165 C 
BRANCH  66  67
ATOM     67  N   THR A   1      -3.298  21.233  -0.315  0.00  0.00    -0.302 N 
ATOM     68  H   THR A   1      -4.111  21.716   0.032  0.00  0.00    +0.150 HD
ATOM     69  C   THR A   1      -3.167  19.879  -0.121  0.00  0.00    +0.234 C 
ATOM     70  O   THR A   1      -2.087  19.321  -0.319  0.00  0.00    -0.274 OA
BRANCH  69  71
ATOM     71  CA  THR A   1      -4.425  19.072   0.348  0.00  0.00    +0.162 C 
BRANCH  71  72
ATOM     72  N   THR A   1      -4.113  18.199   1.492  0.00  0.00    -0.302 N 
ATOM     73  H   THR A   1      -3.228  18.322   1.973  0.00  0.00    +0.150 HD
ATOM     74  C   THR A   1      -4.927  17.120   1.791  0.00  0.00    +0.234 C 
ATOM     75  O   THR A   1      -5.902  16.815   1.101  0.00  0.00    -0.274 OA
BRANCH  74  76
ATOM     76  CA  THR A   1      -4.514  16.266   3.008  0.00  0.00    +0.159 C 
BRANCH  76  77
ATOM     77  N   THR A   1      -5.684  15.476   3.417  0.00  0.00    -0.302 N 
ATOM     78  H   THR A   1      -6.071  14.895   2.683  0.00  0.00    +0.150 HD
ATOM     79  C   THR A   1      -6.595  15.987   4.333  0.00  0.00    +0.236 C 
ATOM     80  O   THR A   1      -6.428  17.079   4.879  0.00  0.00    -0.274 OA
BRANCH  79  81
ATOM     81  CA  THR A   1      -7.809  15.066   4.660  0.00  0.00    +0.184 C 
BRANCH  81  82
ATOM     82  N   THR A   1      -8.516  15.526   5.879  0.00  0.00    -0.300 N 
ATOM     83  H   THR A   1      -9.381  16.035   5.770  0.00  0.00    +0.150 HD
ATOM     84  C   THR A   1      -7.936  15.326   7.123  0.00  0.00    +0.237 C 
ATOM     85  O   THR A   1      -6.879  14.702   7.209  0.00  0.00    -0.274 OA
BRANCH  84  86
ATOM     86  CA  THR A   1      -8.621  15.943   8.387  0.00  0.00    +0.187 C 
BRANCH  86  87
ATOM     87  N   THR A   1      -7.797  16.982   9.050  0.00  0.00    -0.301 N 
ATOM     88  H   THR A   1      -8.161  17.928   9.052  0.00  0.00    +0.150 HD
ATOM     89  C   UNK A   0      -6.903  16.626  10.056  0.00  0.00    +0.233 C 
ATOM     90  O   UNK A   0      -6.614  15.449  10.265  0.00  0.00    -0.274 OA
BRANCH  89  91
ATOM     91  C   UNK A   0      -6.362  17.799  10.929  0.00  0.00    +0.162 C 
BRANCH  91  92
ATOM     92  N   UNK A   0      -6.158  17.330  12.328  0.00  0.00    -0.228 NA
ATOM     93  H   UNK A   0      -5.366  16.670  12.331  0.00  0.00    +0.145 HD
BRANCH  92  94
ATOM     94  N   UNK A   0      -5.826  18.395  13.210  0.00  0.00    -0.250 N 
ATOM     95  H   UNK A   0      -6.594  18.943  13.588  0.00  0.00    +0.169 HD
ATOM     96  C   UNK A   0      -4.628  18.348  13.918  0.00  0.00    +0.223 C 
ATOM     97  C   UNK A   0      -4.473  19.465  14.916  0.00  0.00    +0.110 C 
ATOM     98  O   UNK A   0      -3.762  17.494  13.759  0.00  0.00    -0.275 OA
ENDBRANCH  92  94
ENDBRANCH  91  92
BRANCH  91  99
ATOM     99  C   UNK A   0      -5.141  18.495  10.303  0.00  0.00    +0.064 C 
BRANCH  99 100
ATOM    100  C   UNK A   0      -3.775  17.848  10.433  0.00  0.00    -0.045 A 
ATOM    101  C   UNK A   0      -2.662  18.688  10.431  0.00  0.00    +0.007 A 
ATOM    102  C   UNK A   0      -1.357  18.175  10.536  0.00  0.00    +0.045 A 
ATOM    103  C   UNK A   0      -1.143  16.819  10.623  0.00  0.00    +0.117 A 
ATOM    104  C   UNK A   0      -2.225  15.962  10.651  0.00  0.00    +0.045 A 
ATOM    105  C   UNK A   0      -3.527  16.473  10.538  0.00  0.00    +0.007 A 
BRANCH 103 106
ATOM    106  O   UNK A   0       0.147  16.391  10.663  0.00  0.00    -0.507 OA
ATOM    107  H   UNK A   0       0.143  15.454  10.912  0.00  0.00    +0.292 HD
ENDBRANCH 103 106
ENDBRANCH  99 100
ENDBRANCH  91  99
ENDBRANCH  89  91
ENDBRANCH  86  87
BRANCH  86 108
ATOM    108  CB  THR A   1     -10.064  16.447   8.160  0.00  0.00    +0.141 C 
ATOM    109  CG2 THR A   1     -10.825  16.612   9.477  0.00  0.00    +0.040 C 
BRANCH 108 110
ATOM    110  OG1 THR A   1     -10.084  17.715   7.490  0.00  0.00    -0.390 OA
ATOM    111  HG1 THR A   1      -9.253  17.837   6.997  0.00  0.00    +0.210 HD
ENDBRANCH 108 110
ENDBRANCH  86 108
ENDBRANCH  84  86
ENDBRANCH  81  82
BRANCH  81 112
ATOM    112  CB  THR A   1      -8.752  14.920   3.453  0.00  0.00    +0.187 C 
BRANCH 112 113
ATOM    113  O   THR A   1      -9.330  16.156   3.048  0.00  0.00    -0.393 OA
ATOM    114  H   THR A   1     -10.036  16.396   3.668  0.00  0.00    +0.209 HD
ENDBRANCH 112 113
ENDBRANCH  81 112
ENDBRANCH  79  81
ENDBRANCH  76  77
BRANCH  76 115
ATOM    115  CB  THR A   1      -3.338  15.365   2.594  0.00  0.00    +0.034 C 
BRANCH 115 116
ATOM    116  CG  THR A   1      -2.843  14.381   3.672  0.00  0.00    -0.015 C 
ATOM    117  CD2 THR A   1      -2.476  15.080   4.978  0.00  0.00    +0.007 C 
ATOM    118  CD1 THR A   1      -1.625  13.607   3.154  0.00  0.00    +0.007 C 
ENDBRANCH 115 116
ENDBRANCH  76 115
ENDBRANCH  74  76
ENDBRANCH  71  72
BRANCH  71 119
ATOM    119  CB  THR A   1      -5.744  19.860   0.590  0.00  0.00    +0.015 C 
ATOM    120  CG2 THR A   1      -5.675  20.790   1.808  0.00  0.00    +0.010 C 
BRANCH 119 121
ATOM    121  CG1 THR A   1      -6.280  20.474  -0.721  0.00  0.00    +0.002 C 
ATOM    122  CD1 THR A   1      -7.571  21.253  -0.551  0.00  0.00    +0.004 C 
ENDBRANCH 119 121
ENDBRANCH  71 119
ENDBRANCH  69  71
ENDBRANCH  66  67
BRANCH  66 123
ATOM    123  CB  THR A   1      -2.946  23.241  -1.753  0.00  0.00    +0.086 C 
BRANCH 123 124
ATOM    124  CG  THR A   1      -3.614  22.799  -3.013  0.00  0.00    +0.038 A 
ATOM    125  ND1 THR A   1      -2.970  22.079  -3.991  0.00  0.00    -0.348 N 
ATOM    126  HD1 THR A   1      -2.005  21.776  -3.985  0.00  0.00    +0.166 HD
ATOM    127  CE1 THR A   1      -3.876  21.816  -4.977  0.00  0.00    +0.196 A 
ATOM    128  NE2 THR A   1      -5.032  22.385  -4.730  0.00  0.00    -0.244 NA
ATOM    129  CD2 THR A   1      -4.877  23.017  -3.524  0.00  0.00    +0.133 A 
ENDBRANCH 123 124
ENDBRANCH  66 123
ENDBRANCH  64  66
ENDBRANCH  61  62
BRANCH  61 130
ATOM    130  CB  THR A   1      -0.328  23.933   2.743  0.00  0.00    +0.187 C 
BRANCH 130 131
ATOM    131  O   THR A   1      -1.538  24.063   3.492  0.00  0.00    -0.393 OA
ATOM    132  H   THR A   1      -2.275  23.949   2.860  0.00  0.00    +0.209 HD
ENDBRANCH 130 131
ENDBRANCH  61 130
ENDBRANCH  59  61
ENDBRANCH  56  57
BRANCH  56 133
ATOM    133  CB  THR A   1      -1.003  19.968   5.742  0.00  0.00    +0.034 C 
BRANCH 133 134
ATOM    134  CG  THR A   1      -1.135  19.239   7.085  0.00  0.00    -0.015 C 
ATOM    135  CD2 THR A   1      -2.243  18.192   7.061  0.00  0.00    +0.007 C 
ATOM    136  CD1 THR A   1      -1.244  20.339   8.139  0.00  0.00    +0.007 C 
ENDBRANCH 133 134
ENDBRANCH  56 133
ENDBRANCH  54  56
ENDBRANCH  51  52
BRANCH  51 137
ATOM    137  CB  THR A   1       5.035  19.975   5.247  0.00  0.00    +0.015 C 
ATOM    138  CG2 THR A   1       6.197  19.200   5.888  0.00  0.00    +0.010 C 
BRANCH 137 140
ATOM    139  CD1 THR A   1       4.024  17.899   4.055  0.00  0.00    +0.004 C 
ATOM    140  CG1 THR A   1       4.580  19.313   3.927  0.00  0.00    +0.002 C 
ENDBRANCH 137 140
ENDBRANCH  51 137
ENDBRANCH  47  51
ENDBRANCH  46  48
BRANCH  46 141
ATOM    141  CB  GLU A   2       5.475  21.784  10.141  0.00  0.00    +0.043 C 
BRANCH 141 142
ATOM    142  CG  GLU A   2       5.857  22.472  11.442  0.00  0.00    +0.123 C 
BRANCH 142 143
ATOM    143  CD  GLU A   2       5.632  21.573  12.617  0.00  0.00    +0.305 C 
ATOM    144  OE1 GLU A   2       4.544  21.477  13.166  0.00  0.00    -0.251 OA
BRANCH 143 145
ATOM    145  OE2 GLU A   2       6.706  20.836  12.956  0.00  0.00    -0.481 OA
ATOM    146  HE2 GLU A   2       7.494  20.992  12.401  0.00  0.00    +0.295 HD
ENDBRANCH 143 145
ENDBRANCH 142 143
ENDBRANCH 141 142
ENDBRANCH  46 141
ENDBRANCH  42  46
ENDBRANCH  41  43
BRANCH  41 147
ATOM    147  CB  GLU A   3       0.832  24.511  10.704  0.00  0.00    +0.043 C 
BRANCH 147 148
ATOM    148  CG  GLU A   3      -0.018  23.306  10.270  0.00  0.00    +0.123 C 
BRANCH 148 149
ATOM    149  CD  GLU A   3      -0.911  23.658   9.113  0.00  0.00    +0.305 C 
ATOM    150  OE1 GLU A   3      -2.131  23.622   9.123  0.00  0.00    -0.251 OA
BRANCH 149 151
ATOM    151  OE2 GLU A   3      -0.214  23.978   7.996  0.00  0.00    -0.481 OA
ATOM    152  HE2 GLU A   3       0.753  23.858   8.130  0.00  0.00    +0.295 HD
ENDBRANCH 149 151
ENDBRANCH 148 149
ENDBRANCH 147 148
ENDBRANCH  41 147
ENDBRANCH  37  41
ENDBRANCH  36  38
BRANCH  36 153
ATOM    153  CB  SER A   4       0.220  26.242  15.937  0.00  0.00    +0.187 C 
BRANCH 153 154
ATOM    154  OG  SER A   4       1.587  25.994  16.245  0.00  0.00    -0.393 OA
ATOM    155  H   SER A   4       1.814  25.106  15.911  0.00  0.00    +0.209 HD
ENDBRANCH 153 154
ENDBRANCH  36 153
ENDBRANCH  32  36
ENDBRANCH  31  33
BRANCH  31 156
ATOM    156  CB  GLN A   5      -4.310  27.565  14.145  0.00  0.00    +0.041 C 
BRANCH 156 157
ATOM    157  CG  GLN A   5      -3.717  28.881  14.573  0.00  0.00    +0.098 C 
BRANCH 157 158
ATOM    158  CD  GLN A   5      -4.511  29.478  15.688  0.00  0.00    +0.211 C 
ATOM    159  NE2 GLN A   5      -4.295  28.900  16.905  0.00  0.00    -0.329 N 
ATOM    160 HE21 GLN A   5      -4.827  29.225  17.696  0.00  0.00    +0.145 HD
ATOM    161 HE22 GLN A   5      -3.745  28.055  17.003  0.00  0.00    +0.145 HD
ATOM    162  OE1 GLN A   5      -5.294  30.398  15.512  0.00  0.00    -0.276 OA
ENDBRANCH 157 158
ENDBRANCH 156 157
ENDBRANCH  31 156
ENDBRANCH  27  31
ENDBRANCH  26  28
BRANCH  26 163
ATOM    163  CB  ASN A   6      -3.280  28.605   8.882  0.00  0.00    +0.127 C 
BRANCH 163 164
ATOM    164  CG  ASN A   6      -3.151  27.196   8.350  0.00  0.00    +0.213 C 
ATOM    165  ND2 ASN A   6      -2.011  26.944   7.657  0.00  0.00    -0.329 N 
ATOM    166 HD21 ASN A   6      -1.885  25.975   7.371  0.00  0.00    +0.145 HD
ATOM    167 HD22 ASN A   6      -1.161  27.444   7.883  0.00  0.00    +0.145 HD
ATOM    168  OD1 ASN A   6      -4.041  26.356   8.428  0.00  0.00    -0.276 OA
ENDBRANCH 163 164
ENDBRANCH  26 163
ENDBRANCH  22  26
ENDBRANCH  21  23
BRANCH  21 169
ATOM    169  CB  GLN A   7      -6.418  28.687   5.200  0.00  0.00    +0.041 C 
BRANCH 169 170
ATOM    170  CG  GLN A   7      -7.416  28.485   4.057  0.00  0.00    +0.098 C 
BRANCH 170 171
ATOM    171  CD  GLN A   7      -8.718  29.215   4.290  0.00  0.00    +0.211 C 
ATOM    172  NE2 GLN A   7      -9.811  28.623   3.733  0.00  0.00    -0.329 N 
ATOM    173 HE21 GLN A   7     -10.709  29.030   3.959  0.00  0.00    +0.145 HD
ATOM    174 HE22 GLN A   7      -9.801  27.634   3.515  0.00  0.00    +0.145 HD
ATOM    175  OE1 GLN A   7      -8.797  30.286   4.880  0.00  0.00    -0.276 OA
ENDBRANCH 170 171
ENDBRANCH 169 170
ENDBRANCH  21 169
ENDBRANCH  17  21
ENDBRANCH  16  18
BRANCH  16 176
ATOM    176  CB  GLN A   8      -5.746  23.691   6.452  0.00  0.00    +0.041 C 
BRANCH 176 177
ATOM    177  CG  GLN A   8      -5.936  22.177   6.447  0.00  0.00    +0.098 C 
BRANCH 177 178
ATOM    178  CD  GLN A   8      -5.052  21.451   5.463  0.00  0.00    +0.211 C 
ATOM    179  NE2 GLN A   8      -5.160  20.094   5.557  0.00  0.00    -0.329 N 
ATOM    180 HE21 GLN A   8      -4.625  19.502   4.938  0.00  0.00    +0.145 HD
ATOM    181 HE22 GLN A   8      -5.792  19.622   6.193  0.00  0.00    +0.145 HD
ATOM    182  OE1 GLN A   8      -4.307  21.984   4.648  0.00  0.00    -0.276 OA
ENDBRANCH 177 178
ENDBRANCH 176 177
ENDBRANCH  16 176
ENDBRANCH  12  16
ENDBRANCH  11  13
BRANCH  11 183
ATOM    183  CB  GLU A   9      -4.487  24.225  11.369  0.00  0.00    +0.043 C 
BRANCH 183 184
ATOM    184  CG  GLU A   9      -4.037  23.656  12.717  0.00  0.00    +0.123 C 
BRANCH 184 185
ATOM    185  CD  GLU A   9      -2.542  23.699  12.790  0.00  0.00    +0.305 C 
ATOM    186  OE1 GLU A   9      -1.817  24.372  12.074  0.00  0.00    -0.251 OA
BRANCH 185 187
ATOM    187  OE2 GLU A   9      -2.047  23.071  13.875  0.00  0.00    -0.481 OA
ATOM    188  HE2 GLU A   9      -2.704  23.007  14.599  0.00  0.00    +0.295 HD
ENDBRANCH 185 187
ENDBRANCH 184 185
ENDBRANCH 183 184
ENDBRANCH  11 183
ENDBRANCH   7  11
ENDBRANCH   6   8
BRANCH   6 189
ATOM    189  CB  LYS A  10      -7.869  28.504  12.658  0.00  0.00    +0.032 C 
BRANCH 189 190
ATOM    190  CG  LYS A  10      -8.623  29.452  13.590  0.00  0.00    +0.003 C 
BRANCH 190 191
ATOM    191  CD  LYS A  10      -9.103  28.868  14.916  0.00  0.00    +0.015 C 
BRANCH 191 192
ATOM    192  CE  LYS A  10      -7.921  28.671  15.845  0.00  0.00    +0.077 C 
BRANCH 192 193
ATOM    193  NZ  LYS A  10      -8.329  28.122  17.127  0.00  0.00    -0.330 NA
ATOM    194  HZ1 LYS A  10      -7.497  28.051  17.711  0.00  0.00    +0.118 HD
ATOM    195  HZ2 LYS A  10      -8.934  28.799  17.592  0.00  0.00    +0.118 HD
ENDBRANCH 192 193
ENDBRANCH 191 192
ENDBRANCH 190 191
ENDBRANCH 189 190
ENDBRANCH   6 189
ENDBRANCH   2   6
ENDBRANCH   1   3
BRANCH   1 196
ATOM    196  C   ASN A  11     -12.512  30.035  11.837  0.00  0.00    +0.234 C 
ATOM    197  N   GLU A  12     -11.574  30.962  12.271  0.00  0.00    -0.302 N 
ATOM    198  H   GLU A  12     -10.610  30.796  12.010  0.00  0.00    +0.150 HD
ATOM    199  O   ASN A  11     -13.694  30.354  11.696  0.00  0.00    -0.274 OA
BRANCH 197 200
ATOM    200  CA  GLU A  12     -11.871  32.332  12.817  0.00  0.00    +0.159 C 
BRANCH 200 201
ATOM    201  C   GLU A  12     -10.522  33.094  13.179  0.00  0.00    +0.234 C 
ATOM    202  N   GLN A  13     -10.610  34.429  13.563  0.00  0.00    -0.302 N 
ATOM    203  H   GLN A  13     -11.482  34.936  13.449  0.00  0.00    +0.150 HD
ATOM    204  O   GLU A  12      -9.435  32.521  13.091  0.00  0.00    -0.274 OA
BRANCH 202 205
ATOM    205  CA  GLN A  13      -9.487  35.282  14.081  0.00  0.00    +0.159 C 
BRANCH 205 206
ATOM    206  C   GLN A  13     -10.009  36.687  14.615  0.00  0.00    +0.234 C 
ATOM    207  N   GLU A  14      -9.080  37.578  15.160  0.00  0.00    -0.302 N 
ATOM    208  H   GLU A  14      -8.092  37.344  15.157  0.00  0.00    +0.150 HD
ATOM    209  O   GLN A  13     -11.204  36.969  14.500  0.00  0.00    -0.274 OA
BRANCH 207 210
ATOM    210  CA  GLU A  14      -9.405  38.964  15.651  0.00  0.00    +0.159 C 
BRANCH 210 211
ATOM    211  C   GLU A  14      -8.114  39.813  16.094  0.00  0.00    +0.234 C 
ATOM    212  N   LEU A  15      -8.331  41.162  16.402  0.00  0.00    -0.302 N 
ATOM    213  H   LEU A  15      -9.137  41.607  15.982  0.00  0.00    +0.150 HD
ATOM    214  O   GLU A  14      -7.011  39.282  16.211  0.00  0.00    -0.274 OA
BRANCH 212 215
ATOM    215  CA  LEU A  15      -7.332  42.126  16.974  0.00  0.00    +0.159 C 
BRANCH 215 216
ATOM    216  C   LEU A  15      -8.002  43.174  17.992  0.00  0.00    +0.234 C 
ATOM    217  N   LEU A  16      -8.474  42.698  19.215  0.00  0.00    -0.302 N 
ATOM    218  H   LEU A  16      -8.142  41.783  19.494  0.00  0.00    +0.150 HD
ATOM    219  O   LEU A  15      -8.151  44.361  17.699  0.00  0.00    -0.274 OA
BRANCH 217 220
ATOM    220  CA  LEU A  16      -8.893  43.637  20.327  0.00  0.00    +0.159 C 
BRANCH 220 221
ATOM    221  C   LEU A  16      -7.739  44.136  21.273  0.00  0.00    +0.234 C 
ATOM    222  N   GLU A  17      -8.141  44.877  22.386  0.00  0.00    -0.302 N 
ATOM    223  H   GLU A  17      -9.095  45.211  22.466  0.00  0.00    +0.150 HD
ATOM    224  O   LEU A  16      -6.566  43.818  21.086  0.00  0.00    -0.274 OA
BRANCH 222 225
ATOM    225  CA  GLU A  17      -7.254  45.226  23.522  0.00  0.00    +0.159 C 
BRANCH 225 226
ATOM    226  C   GLU A  17      -8.081  45.361  24.860  0.00  0.00    +0.234 C 
ATOM    227  N   LEU A  18      -7.371  45.145  26.039  0.00  0.00    -0.302 N 
ATOM    228  H   LEU A  18      -6.474  44.675  25.982  0.00  0.00    +0.150 HD
ATOM    229  O   GLU A  17      -9.261  45.708  24.855  0.00  0.00    -0.274 OA
BRANCH 227 230
ATOM    230  CA  LEU A  18      -7.943  45.305  27.404  0.00  0.00    +0.159 C 
BRANCH 230 231
ATOM    231  C   LEU A  18      -6.784  45.553  28.436  0.00  0.00    +0.234 C 
ATOM    232  N   ASP A  19      -6.445  46.864  28.732  0.00  0.00    -0.302 N 
ATOM    233  H   ASP A  19      -6.971  47.629  28.317  0.00  0.00    +0.150 HD
ATOM    234  O   LEU A  18      -6.131  44.612  28.891  0.00  0.00    -0.274 OA
BRANCH 232 235
ATOM    235  CA  ASP A  19      -5.350  47.258  29.675  0.00  0.00    +0.169 C 
BRANCH 235 236
ATOM    236  C   ASP A  19      -5.179  48.823  29.784  0.00  0.00    +0.234 C 
ATOM    237  N   LYS A  20      -4.221  49.304  30.675  0.00  0.00    -0.302 N 
ATOM    238  H   LYS A  20      -3.679  48.670  31.252  0.00  0.00    +0.150 HD
ATOM    239  O   ASP A  19      -5.892  49.570  29.113  0.00  0.00    -0.274 OA
BRANCH 237 240
ATOM    240  CA  LYS A  20      -3.926  50.755  30.921  0.00  0.00    +0.159 C 
BRANCH 240 241
ATOM    241  C   LYS A  20      -2.471  50.961  31.486  0.00  0.00    +0.234 C 
ATOM    242  N   TRP A  21      -2.066  52.274  31.699  0.00  0.00    -0.302 N 
ATOM    243  H   TRP A  21      -2.662  53.044  31.409  0.00  0.00    +0.150 HD
ATOM    244  O   LYS A  20      -1.765  49.988  31.761  0.00  0.00    -0.274 OA
BRANCH 242 245
ATOM    245  CA  TRP A  21      -0.764  52.692  32.299  0.00  0.00    +0.163 C 
BRANCH 245 246
ATOM    246  C   TRP A  21      -0.714  54.249  32.589  0.00  0.00    +0.234 C 
ATOM    247  N   ALA A  22       0.446  54.762  33.165  0.00  0.00    -0.303 N 
ATOM    248  H   ALA A  22       1.237  54.154  33.343  0.00  0.00    +0.149 HD
ATOM    249  O   TRP A  21      -1.690  54.966  32.358  0.00  0.00    -0.274 OA
BRANCH 247 250
ATOM    250  CA  ALA A  22       0.667  56.205  33.481  0.00  0.00    +0.156 C 
ATOM    251  CB  ALA A  22       0.106  56.528  34.862  0.00  0.00    +0.038 C 
BRANCH 250 252
ATOM    252  C   ALA A  22       2.195  56.578  33.439  0.00  0.00    +0.234 C 
ATOM    253  N   SER A  23       2.558  57.910  33.604  0.00  0.00    -0.301 N 
ATOM    254  H   SER A  23       1.853  58.600  33.850  0.00  0.00    +0.150 HD
ATOM    255  O   ALA A  22       3.049  55.706  33.256  0.00  0.00    -0.274 OA
BRANCH 253 256
ATOM    256  CA  SER A  23       3.977  58.420  33.613  0.00  0.00    +0.184 C 
BRANCH 256 257
ATOM    257  C   SER A  23       4.077  59.938  34.043  0.00  0.00    +0.236 C 
ATOM    258  N   LEU A  24       5.354  60.467  34.219  0.00  0.00    -0.302 N 
ATOM    259  H   LEU A  24       6.166  59.867  34.110  0.00  0.00    +0.150 HD
ATOM    260  O   SER A  23       3.054  60.606  34.203  0.00  0.00    -0.274 OA
BRANCH 258 261
ATOM    261  CA  LEU A  24       5.681  61.891  34.580  0.00  0.00    +0.159 C 
BRANCH 261 262
ATOM    262  C   LEU A  24       7.242  62.095  34.645  0.00  0.00    +0.234 C 
ATOM    263  N   TRP A  25       7.736  63.372  34.413  0.00  0.00    -0.302 N 
ATOM    264  H   TRP A  25       7.112  64.115  34.116  0.00  0.00    +0.150 HD
ATOM    265  O   LEU A  24       7.973  61.152  34.960  0.00  0.00    -0.274 OA
BRANCH 263 266
ATOM    266  CA  TRP A  25       9.161  63.791  34.602  0.00  0.00    +0.163 C 
BRANCH 266 267
ATOM    267  C   TRP A  25       9.349  65.349  34.394  0.00  0.00    +0.234 C 
ATOM    268  N   ASN A  26      10.637  65.858  34.489  0.00  0.00    -0.302 N 
ATOM    269  H   ASN A  26      11.409  65.251  34.753  0.00  0.00    +0.150 HD
ATOM    270  O   TRP A  25       8.380  66.086  34.195  0.00  0.00    -0.274 OA
BRANCH 268 271
ATOM    271  CA  ASN A  26      11.027  67.283  34.301  0.00  0.00    +0.168 C 
BRANCH 271 272
ATOM    272  C   ASN A  26      12.548  67.411  33.922  0.00  0.00    +0.234 C 
ATOM    273  N   TRP A  27      13.033  68.690  33.687  0.00  0.00    -0.302 N 
ATOM    274  H   TRP A  27      12.400  69.481  33.615  0.00  0.00    +0.150 HD
ATOM    275  O   ASN A  26      13.261  66.412  33.822  0.00  0.00    -0.274 OA
BRANCH 273 276
ATOM    276  CA  TRP A  27      14.447  69.001  33.313  0.00  0.00    +0.163 C 
BRANCH 276 277
ATOM    277  C   TRP A  27      14.617  70.546  33.091  0.00  0.00    +0.234 C 
ATOM    278  N   PHE A  28      15.890  70.997  32.781  0.00  0.00    -0.302 N 
ATOM    279  H   PHE A  28      16.658  70.341  32.685  0.00  0.00    +0.150 HD
ATOM    280  O   TRP A  27      13.651  71.307  33.192  0.00  0.00    -0.274 OA
BRANCH 278 281
ATOM    281  CA  PHE A  28      16.189  72.367  32.305  0.00  0.00    +0.163 C 
BRANCH 281 282
ATOM    282  C   PHE A  28      17.667  72.465  31.806  0.00  0.00    +0.234 C 
ATOM    283  N   GLY A  29      18.066  73.684  31.294  0.00  0.00    -0.303 N 
ATOM    284  H   GLY A  29      17.417  74.462  31.215  0.00  0.00    +0.149 HD
ATOM    285  O   PHE A  28      18.431  71.499  31.835  0.00  0.00    -0.274 OA
BRANCH 283 286
ATOM    286  CA  GLY A  29      19.441  73.944  30.880  0.00  0.00    +0.224 C 
BRANCH 286 287
ATOM    287  C   GLY A  29      19.610  75.390  30.424  0.00  0.00    +0.322 C 
ATOM    288  O   GLY A  29      18.705  76.215  30.429  0.00  0.00    -0.249 OA
BRANCH 287 289
ATOM    289  OXT GLY A  29      20.863  75.695  30.013  0.00  0.00    -0.480 OA
ATOM    290  HXT GLY A  29      21.504  74.959  30.056  0.00  0.00    +0.295 HD
ENDBRANCH 287 289
ENDBRANCH 286 287
ENDBRANCH 283 286
ENDBRANCH 281 282
BRANCH 281 291
ATOM    291  CB  PHE A  28      15.873  73.455  33.343  0.00  0.00    +0.067 C 
BRANCH 291 292
ATOM    292  CG  PHE A  28      16.630  73.326  34.644  0.00  0.00    -0.045 A 
ATOM    293  CD2 PHE A  28      16.078  72.603  35.710  0.00  0.00    +0.004 A 
ATOM    294  CE2 PHE A  28      16.740  72.534  36.935  0.00  0.00    +0.000 A 
ATOM    295  CZ  PHE A  28      17.964  73.179  37.103  0.00  0.00    +0.000 A 
ATOM    296  CE1 PHE A  28      18.537  73.872  36.039  0.00  0.00    +0.000 A 
ATOM    297  CD1 PHE A  28      17.875  73.944  34.814  0.00  0.00    +0.004 A 
ENDBRANCH 291 292
ENDBRANCH 281 291
ENDBRANCH 278 281
ENDBRANCH 276 277
BRANCH 276 298
ATOM    298  CB  TRP A  27      14.922  68.260  32.043  0.00  0.00    +0.069 C 
BRANCH 298 299
ATOM    299  CG  TRP A  27      14.205  68.753  30.820  0.00  0.00    -0.020 A 
ATOM    300  CD2 TRP A  27      14.744  69.584  29.785  0.00  0.00    +0.003 A 
ATOM    301  CE2 TRP A  27      13.681  69.961  28.965  0.00  0.00    +0.047 A 
ATOM    302  CZ2 TRP A  27      13.830  70.830  27.881  0.00  0.00    +0.026 A 
ATOM    303  CH2 TRP A  27      15.108  71.334  27.625  0.00  0.00    +0.002 A 
ATOM    304  CZ3 TRP A  27      16.193  70.976  28.420  0.00  0.00    +0.001 A 
ATOM    305  NE1 TRP A  27      12.552  69.348  29.454  0.00  0.00    -0.360 N 
ATOM    306  HE1 TRP A  27      11.622  69.477  29.079  0.00  0.00    +0.165 HD
ATOM    307  CE3 TRP A  27      16.026  70.099  29.498  0.00  0.00    +0.010 A 
ATOM    308  CD1 TRP A  27      12.861  68.589  30.545  0.00  0.00    +0.087 A 
ENDBRANCH 298 299
ENDBRANCH 276 298
ENDBRANCH 273 276
ENDBRANCH 271 272
BRANCH 271 309
ATOM    309  CB  ASN A  26      10.727  68.142  35.531  0.00  0.00    +0.127 C 
BRANCH 309 310
ATOM    310  CG  ASN A  26      11.639  67.790  36.686  0.00  0.00    +0.213 C 
ATOM    311  ND2 ASN A  26      11.873  68.805  37.565  0.00  0.00    -0.329 N 
ATOM    312 HD21 ASN A  26      12.434  68.574  38.376  0.00  0.00    +0.145 HD
ATOM    313 HD22 ASN A  26      11.272  69.615  37.626  0.00  0.00    +0.145 HD
ATOM    314  OD1 ASN A  26      12.135  66.685  36.868  0.00  0.00    -0.276 OA
ENDBRANCH 309 310
ENDBRANCH 271 309
ENDBRANCH 268 271
ENDBRANCH 266 267
BRANCH 266 315
ATOM    315  CB  TRP A  25      10.135  62.986  33.725  0.00  0.00    +0.069 C 
BRANCH 315 316
ATOM    316  CG  TRP A  25       9.934  63.186  32.253  0.00  0.00    -0.020 A 
ATOM    317  CD2 TRP A  25       9.177  62.358  31.363  0.00  0.00    +0.003 A 
ATOM    318  CE2 TRP A  25       9.318  62.882  30.077  0.00  0.00    +0.047 A 
ATOM    319  CZ2 TRP A  25       8.740  62.289  28.948  0.00  0.00    +0.026 A 
ATOM    320  CH2 TRP A  25       7.987  61.127  29.143  0.00  0.00    +0.002 A 
ATOM    321  CZ3 TRP A  25       7.811  60.588  30.414  0.00  0.00    +0.001 A 
ATOM    322  NE1 TRP A  25      10.112  64.000  30.185  0.00  0.00    -0.360 N 
ATOM    323  HE1 TRP A  25      10.404  64.576  29.408  0.00  0.00    +0.165 HD
ATOM    324  CE3 TRP A  25       8.405  61.189  31.526  0.00  0.00    +0.010 A 
ATOM    325  CD1 TRP A  25      10.484  64.194  31.486  0.00  0.00    +0.087 A 
ENDBRANCH 315 316
ENDBRANCH 266 315
ENDBRANCH 263 266
ENDBRANCH 261 262
BRANCH 261 326
ATOM    326  CB  LEU A  24       5.098  62.248  35.966  0.00  0.00    +0.034 C 
BRANCH 326 327
ATOM    327  CG  LEU A  24       5.396  63.670  36.488  0.00  0.00    -0.015 C 
ATOM    328  CD2 LEU A  24       4.870  63.826  37.917  0.00  0.00    +0.007 C 
ATOM    329  CD1 LEU A  24       4.820  64.776  35.600  0.00  0.00    +0.007 C 
ENDBRANCH 326 327
ENDBRANCH 261 326
ENDBRANCH 258 261
ENDBRANCH 256 257
BRANCH 256 330
ATOM    330  CB  SER A  23       4.645  58.282  32.230  0.00  0.00    +0.187 C 
BRANCH 330 331
ATOM    331  OG  SER A  23       4.871  56.940  31.808  0.00  0.00    -0.393 OA
ATOM    332  H   SER A  23       4.314  56.338  32.348  0.00  0.00    +0.209 HD
ENDBRANCH 330 331
ENDBRANCH 256 330
ENDBRANCH 253 256
ENDBRANCH 250 252
ENDBRANCH 247 250
ENDBRANCH 245 246
BRANCH 245 333
ATOM    333  CB  TRP A  21       0.439  52.231  31.462  0.00  0.00    +0.069 C 
BRANCH 333 334
ATOM    334  CG  TRP A  21       0.499  52.817  30.085  0.00  0.00    -0.020 A 
ATOM    335  CD2 TRP A  21       0.033  52.220  28.868  0.00  0.00    +0.003 A 
ATOM    336  CE2 TRP A  21       0.366  53.084  27.826  0.00  0.00    +0.047 A 
ATOM    337  CZ2 TRP A  21       0.093  52.794  26.484  0.00  0.00    +0.026 A 
ATOM    338  CH2 TRP A  21      -0.556  51.589  26.198  0.00  0.00    +0.002 A 
ATOM    339  CZ3 TRP A  21      -0.915  50.710  27.214  0.00  0.00    +0.001 A 
ATOM    340  NE1 TRP A  21       0.989  54.174  28.385  0.00  0.00    -0.360 N 
ATOM    341  HE1 TRP A  21       1.358  54.955  27.861  0.00  0.00    +0.165 HD
ATOM    342  CE3 TRP A  21      -0.618  51.009  28.548  0.00  0.00    +0.010 A 
ATOM    343  CD1 TRP A  21       1.067  54.029  29.743  0.00  0.00    +0.087 A 
ENDBRANCH 333 334
ENDBRANCH 245 333
ENDBRANCH 242 245
ENDBRANCH 240 241
BRANCH 240 344
ATOM    344  CB  LYS A  20      -4.864  51.359  31.979  0.00  0.00    +0.032 C 
BRANCH 344 345
ATOM    345  CG  LYS A  20      -6.339  51.275  31.631  0.00  0.00    +0.003 C 
BRANCH 345 346
ATOM    346  CD  LYS A  20      -7.194  51.954  32.697  0.00  0.00    +0.015 C 
BRANCH 346 347
ATOM    347  CE  LYS A  20      -8.663  51.833  32.311  0.00  0.00    +0.077 C 
BRANCH 347 348
ATOM    348  NZ  LYS A  20      -9.510  52.442  33.325  0.00  0.00    -0.330 NA
ATOM    349  HZ1 LYS A  20     -10.486  52.304  33.066  0.00  0.00    +0.118 HD
ATOM    350  HZ2 LYS A  20      -9.379  51.964  34.215  0.00  0.00    +0.118 HD
ENDBRANCH 347 348
ENDBRANCH 346 347
ENDBRANCH 345 346
ENDBRANCH 344 345
ENDBRANCH 240 344
ENDBRANCH 237 240
ENDBRANCH 235 236
BRANCH 235 351
ATOM    351  CB  ASP A  19      -3.999  46.616  29.341  0.00  0.00    +0.152 C 
BRANCH 351 352
ATOM    352  CG  ASP A  19      -3.479  47.101  28.014  0.00  0.00    +0.307 C 
ATOM    353  OD1 ASP A  19      -4.164  47.542  27.100  0.00  0.00    -0.251 OA
BRANCH 352 354
ATOM    354  OD2 ASP A  19      -2.141  46.972  27.895  0.00  0.00    -0.481 OA
ATOM    355  HD2 ASP A  19      -1.689  46.590  28.673  0.00  0.00    +0.295 HD
ENDBRANCH 352 354
ENDBRANCH 351 352
ENDBRANCH 235 351
ENDBRANCH 232 235
ENDBRANCH 230 231
BRANCH 230 356
ATOM    356  CB  LEU A  18      -8.727  44.019  27.804  0.00  0.00    +0.034 C 
BRANCH 356 357
ATOM    357  CG  LEU A  18      -9.351  44.031  29.224  0.00  0.00    -0.015 C 
ATOM    358  CD2 LEU A  18      -9.958  42.663  29.569  0.00  0.00    +0.007 C 
ATOM    359  CD1 LEU A  18     -10.420  45.110  29.409  0.00  0.00    +0.007 C 
ENDBRANCH 356 357
ENDBRANCH 230 356
ENDBRANCH 227 230
ENDBRANCH 225 226
BRANCH 225 360
ATOM    360  CB  GLU A  17      -6.521  46.534  23.197  0.00  0.00    +0.043 C 
BRANCH 360 361
ATOM    361  CG  GLU A  17      -5.555  46.996  24.288  0.00  0.00    +0.123 C 
BRANCH 361 362
ATOM    362  CD  GLU A  17      -4.893  48.304  23.924  0.00  0.00    +0.305 C 
ATOM    363  OE1 GLU A  17      -4.709  48.694  22.781  0.00  0.00    -0.251 OA
BRANCH 362 364
ATOM    364  OE2 GLU A  17      -4.514  49.022  25.002  0.00  0.00    -0.481 OA
ATOM    365  HE2 GLU A  17      -4.593  48.533  25.859  0.00  0.00    +0.295 HD
ENDBRANCH 362 364
ENDBRANCH 361 362
ENDBRANCH 360 361
ENDBRANCH 225 360
ENDBRANCH 222 225
ENDBRANCH 220 221
BRANCH 220 366
ATOM    366  CB  LEU A  16     -10.039  43.032  21.185  0.00  0.00    +0.034 C 
BRANCH 366 367
ATOM    367  CG  LEU A  16      -9.760  41.666  21.856  0.00  0.00    -0.015 C 
ATOM    368  CD2 LEU A  16     -11.040  41.128  22.508  0.00  0.00    +0.007 C 
ATOM    369  CD1 LEU A  16      -8.680  41.680  22.942  0.00  0.00    +0.007 C 
ENDBRANCH 366 367
ENDBRANCH 220 366
ENDBRANCH 217 220
ENDBRANCH 215 216
BRANCH 215 370
ATOM    370  CB  LEU A  15      -6.669  42.871  15.778  0.00  0.00    +0.034 C 
BRANCH 370 371
ATOM    371  CG  LEU A  15      -5.543  43.883  16.103  0.00  0.00    -0.015 C 
ATOM    372  CD2 LEU A  15      -5.102  44.612  14.825  0.00  0.00    +0.007 C 
ATOM    373  CD1 LEU A  15      -4.325  43.249  16.773  0.00  0.00    +0.007 C 
ENDBRANCH 370 371
ENDBRANCH 215 370
ENDBRANCH 212 215
ENDBRANCH 210 211
BRANCH 210 374
ATOM    374  CB  GLU A  14     -10.410  38.877  16.823  0.00  0.00    +0.043 C 
BRANCH 374 375
ATOM    375  CG  GLU A  14     -10.855  40.236  17.349  0.00  0.00    +0.123 C 
BRANCH 375 376
ATOM    376  CD  GLU A  14     -11.901  40.185  18.434  0.00  0.00    +0.305 C 
ATOM    377  OE1 GLU A  14     -12.628  39.250  18.655  0.00  0.00    -0.251 OA
BRANCH 376 378
ATOM    378  OE2 GLU A  14     -11.913  41.330  19.140  0.00  0.00    -0.481 OA
ATOM    379  HE2 GLU A  14     -11.237  41.972  18.843  0.00  0.00    +0.295 HD
ENDBRANCH 376 378
ENDBRANCH 375 376
ENDBRANCH 374 375
ENDBRANCH 210 374
ENDBRANCH 207 210
ENDBRANCH 205 206
BRANCH 205 380
ATOM    380  CB  GLN A  13      -8.449  35.503  12.982  0.00  0.00    +0.041 C 
BRANCH 380 381
ATOM    381  CG  GLN A  13      -9.074  36.207  11.779  0.00  0.00    +0.098 C 
BRANCH 381 382
ATOM    382  CD  GLN A  13      -8.064  36.377  10.682  0.00  0.00    +0.211 C 
ATOM    383  NE2 GLN A  13      -8.001  35.350   9.794  0.00  0.00    -0.329 N 
ATOM    384 HE21 GLN A  13      -7.338  35.428   9.035  0.00  0.00    +0.145 HD
ATOM    385 HE22 GLN A  13      -8.541  34.501   9.889  0.00  0.00    +0.145 HD
ATOM    386  OE1 GLN A  13      -7.325  37.349  10.594  0.00  0.00    -0.276 OA
ENDBRANCH 381 382
ENDBRANCH 380 381
ENDBRANCH 205 380
ENDBRANCH 202 205
ENDBRANCH 200 201
BRANCH 200 387
ATOM    387  CB  GLU A  12     -12.804  32.220  14.045  0.00  0.00    +0.043 C 
BRANCH 387 388
ATOM    388  CG  GLU A  12     -13.289  33.555  14.607  0.00  0.00    +0.123 C 
BRANCH 388 389
ATOM    389  CD  GLU A  12     -14.218  33.423  15.783  0.00  0.00    +0.305 C 
ATOM    390  OE1 GLU A  12     -13.974  33.903  16.880  0.00  0.00    -0.251 OA
BRANCH 389 391
ATOM    391  OE2 GLU A  12     -15.368  32.777  15.516  0.00  0.00    -0.481 OA
ATOM    392  HE2 GLU A  12     -15.449  32.453  14.600  0.00  0.00    +0.295 HD
ENDBRANCH 389 391
ENDBRANCH 388 389
ENDBRANCH 387 388
ENDBRANCH 200 387
ENDBRANCH 197 200
ENDBRANCH   1 196
BRANCH   1 393
ATOM    393  CB  ASN A  11     -13.087  27.536  11.598  0.00  0.00    +0.127 C 
BRANCH 393 394
ATOM    394  CG  ASN A  11     -13.464  27.410  13.061  0.00  0.00    +0.213 C 
ATOM    395  ND2 ASN A  11     -14.410  26.467  13.340  0.00  0.00    -0.329 N 
ATOM    396 HD21 ASN A  11     -14.628  26.331  14.320  0.00  0.00    +0.145 HD
ATOM    397 HD22 ASN A  11     -14.560  25.679  12.724  0.00  0.00    +0.145 HD
ATOM    398  OD1 ASN A  11     -12.959  28.073  13.961  0.00  0.00    -0.276 OA
ENDBRANCH 393 394
ENDBRANCH   1 393
TORSDOF 170
