REMARK  Name = 
REMARK  10 active torsions:
REMARK  status: ('A' for Active; 'I' for Inactive)
REMARK    1  A    between atoms: C_3  and  N_4
REMARK    2  A    between atoms: N_4  and  C_5
REMARK    3  A    between atoms: N_12  and  C_15
REMARK    4  A    between atoms: C_18  and  C_22
REMARK    5  A    between atoms: C_22  and  O_23
REMARK    6  A    between atoms: C_25  and  N_33
REMARK    7  A    between atoms: C_28  and  C_31
REMARK    8  A    between atoms: C_31  and  O_32
REMARK    9  A    between atoms: O_41  and  S_42
REMARK   10  A    between atoms: S_42  and  O_45
REMARK                            x       y       z     vdW  Elec       q    Type
REMARK                         _______ _______ _______ _____ _____    ______ ____
ROOT
ATOM      1  C   UNL     1       2.690  -2.339   0.484  0.00  0.00    +0.152 A 
ATOM      2  N   UNL     1       2.457  -2.634   1.800  0.00  0.00    -0.198 NA
ATOM      3  C   UNL     1       3.306  -3.424   2.500  0.00  0.00    +0.216 A 
ATOM      4  N   UNL     1       2.978  -3.723   3.796  0.00  0.00    -0.327 N 
ATOM      5  H   UNL     1       2.271  -3.107   4.170  0.00  0.00    +0.145 HD
ATOM      6  H   UNL     1       3.801  -3.886   4.355  0.00  0.00    +0.145 HD
ATOM      7  N   UNL     1       4.486  -3.867   2.050  0.00  0.00    -0.195 NA
ATOM      8  C   UNL     1       4.671  -3.580   0.761  0.00  0.00    +0.168 A 
ATOM      9  N   UNL     1       5.820  -3.766   0.029  0.00  0.00    -0.308 N 
ATOM     10  C   UNL     1       5.519  -3.424  -1.266  0.00  0.00    +0.202 A 
ATOM     11  N   UNL     1       4.321  -2.897  -1.374  0.00  0.00    -0.231 NA
ATOM     12  C   UNL     1       3.820  -2.913  -0.099  0.00  0.00    +0.148 A 
ENDROOT
BRANCH   9  13
ATOM     13  C   UNL     1       7.134  -4.063   0.586  0.00  0.00    +0.113 C 
ATOM     14  C   UNL     1       8.227  -3.847  -0.430  0.00  0.00    -0.006 C 
ATOM     15  C   UNL     1       8.789  -2.638  -0.299  0.00  0.00    -0.023 C 
ATOM     16  C   UNL     1       8.256  -1.911   0.902  0.00  0.00    +0.039 C 
ATOM     17  C   UNL     1       7.581  -3.059   1.673  0.00  0.00    +0.039 C 
BRANCH  16  18
ATOM     18  C   UNL     1       9.350  -1.216   1.708  0.00  0.00    +0.163 C 
BRANCH  18  19
ATOM     19  O   UNL     1       8.836  -0.693   2.926  0.00  0.00    -0.394 OA
ATOM     20  H   UNL     1       8.180  -0.011   2.698  0.00  0.00    +0.209 HD
ENDBRANCH  18  19
ENDBRANCH  16  18
ENDBRANCH   9  13
BRANCH   1  21
ATOM     21  N   UNL     1       1.814  -1.387  -0.092  0.00  0.00    -0.324 N 
ATOM     22  H   UNL     1       0.992  -1.495   0.511  0.00  0.00    +0.148 HD
BRANCH  21  24
ATOM     23  C   UNL     1       1.040   0.131  -2.085  0.00  0.00    +0.024 C 
ATOM     24  C   UNL     1       1.558  -1.193  -1.531  0.00  0.00    +0.072 C 
ATOM     25  C   UNL     1       0.141  -1.047  -2.034  0.00  0.00    +0.024 C 
ENDBRANCH  21  24
ENDBRANCH   1  21
TORSDOF 5
REMARK  Name = 
REMARK  10 active torsions:
REMARK  status: ('A' for Active; 'I' for Inactive)
REMARK    1  A    between atoms: C_3  and  N_4
REMARK    2  A    between atoms: N_4  and  C_5
REMARK    3  A    between atoms: N_12  and  C_15
REMARK    4  A    between atoms: C_18  and  C_22
REMARK    5  A    between atoms: C_22  and  O_23
REMARK    6  A    between atoms: C_25  and  N_33
REMARK    7  A    between atoms: C_28  and  C_31
REMARK    8  A    between atoms: C_31  and  O_32
REMARK    9  A    between atoms: O_41  and  S_42
REMARK   10  A    between atoms: S_42  and  O_45
REMARK                            x       y       z     vdW  Elec       q    Type
REMARK                         _______ _______ _______ _____ _____    ______ ____
ROOT
ATOM      1  N   UNL     1      -2.963   0.850   2.441  0.00  0.00    -0.272 N 
ATOM      2  C   UNL     1      -4.010   0.094   2.986  0.00  0.00    +0.352 A 
ATOM      3  O   UNL     1      -4.387  -0.953   2.468  0.00  0.00    -0.244 OA
ATOM      4  N   UNL     1      -4.636   0.566   4.109  0.00  0.00    -0.178 NA
ATOM      5  C   UNL     1      -4.371   1.757   4.535  0.00  0.00    +0.123 A 
ATOM      6  N   UNL     1      -5.063   2.208   5.617  0.00  0.00    -0.343 N 
ATOM      7  H   UNL     1      -5.500   1.454   6.138  0.00  0.00    +0.144 HD
ATOM      8  H   UNL     1      -4.624   2.915   6.191  0.00  0.00    +0.144 HD
ATOM      9  C   UNL     1      -3.369   2.640   3.922  0.00  0.00    +0.061 A 
ATOM     10  C   UNL     1      -2.698   2.121   2.905  0.00  0.00    +0.096 A 
ENDROOT
BRANCH   1  15
ATOM     11  C   UNL     1      -1.952  -1.068   1.118  0.00  0.00    +0.126 C 
ATOM     12  S   UNL     1      -0.406  -1.040   2.014  0.00  0.00    -0.123 S 
ATOM     13  C   UNL     1      -0.024   0.616   1.409  0.00  0.00    +0.203 C 
ATOM     14  O   UNL     1      -1.211   1.232   0.889  0.00  0.00    -0.340 OA
ATOM     15  C   UNL     1      -2.371   0.405   1.182  0.00  0.00    +0.235 C 
BRANCH  13  16
ATOM     16  C   UNL     1       0.742   1.451   2.444  0.00  0.00    +0.198 C 
BRANCH  16  17
ATOM     17  O   UNL     1       1.138   2.722   1.919  0.00  0.00    -0.392 OA
ATOM     18  H   UNL     1       0.414   3.054   1.362  0.00  0.00    +0.210 HD
ENDBRANCH  16  17
ENDBRANCH  13  16
ENDBRANCH   1  15
TORSDOF 3
REMARK  Name = 
REMARK  10 active torsions:
REMARK  status: ('A' for Active; 'I' for Inactive)
REMARK    1  A    between atoms: C_3  and  N_4
REMARK    2  A    between atoms: N_4  and  C_5
REMARK    3  A    between atoms: N_12  and  C_15
REMARK    4  A    between atoms: C_18  and  C_22
REMARK    5  A    between atoms: C_22  and  O_23
REMARK    6  A    between atoms: C_25  and  N_33
REMARK    7  A    between atoms: C_28  and  C_31
REMARK    8  A    between atoms: C_31  and  O_32
REMARK    9  A    between atoms: O_41  and  S_42
REMARK   10  A    between atoms: S_42  and  O_45
REMARK                            x       y       z     vdW  Elec       q    Type
REMARK                         _______ _______ _______ _____ _____    ______ ____
ROOT
ATOM      1  S   UNL     1       4.237   1.418  -1.228  0.00  0.00    +0.205 S 
ATOM      2  O   UNL     1       4.767   0.105  -1.479  0.00  0.00    -0.118 OA
ATOM      3  O   UNL     1       5.064   2.543  -0.871  0.00  0.00    -0.118 OA
ENDROOT
BRANCH   1   4
ATOM      4  O   UNL     1       3.101   1.263  -0.108  0.00  0.00    -0.231 OA
ATOM      5  H   UNL     1       2.856   0.307  -0.058  0.00  0.00    +0.247 HD
ENDBRANCH   1   4
BRANCH   1   6
ATOM      6  O   UNL     1       3.364   1.867  -2.501  0.00  0.00    -0.231 OA
ATOM      7  H   UNL     1       2.887   2.686  -2.265  0.00  0.00    +0.247 HD
ENDBRANCH   1   6
TORSDOF 2
