REMARK  Name = 
REMARK  15 active torsions:
REMARK  status: ('A' for Active; 'I' for Inactive)
REMARK    1  A    between atoms: C_1  and  C_2
REMARK    2  A    between atoms: N_4  and  C_10
REMARK    3  A    between atoms: C_13  and  N_20
REMARK    4  A    between atoms: C_15  and  C_18
REMARK    5  A    between atoms: C_18  and  O_19
REMARK    6  A    between atoms: C_25  and  N_26
REMARK    7  A    between atoms: N_26  and  C_27
REMARK    8  A    between atoms: N_34  and  C_37
REMARK    9  A    between atoms: C_40  and  C_44
REMARK   10  A    between atoms: C_44  and  O_45
REMARK   11  A    between atoms: C_47  and  N_55
REMARK   12  A    between atoms: C_50  and  C_53
REMARK   13  A    between atoms: C_53  and  O_54
REMARK   14  A    between atoms: O_63  and  S_64
REMARK   15  A    between atoms: S_64  and  O_67
REMARK                            x       y       z     vdW  Elec       q    Type
REMARK                         _______ _______ _______ _____ _____    ______ ____
ROOT
ATOM      1  C   UNL     1       5.827   2.817  -1.331  0.00  0.00    +0.226 C 
ATOM      2  O   UNL     1       6.321   2.578   0.025  0.00  0.00    -0.349 OA
ATOM      3  C   UNL     1       6.543   3.919   0.585  0.00  0.00    +0.177 C 
ATOM      4  C   UNL     1       5.684   4.882  -0.266  0.00  0.00    +0.226 C 
ATOM      5  C   UNL     1       4.798   3.907  -1.010  0.00  0.00    +0.091 C 
ENDROOT
BRANCH   1  14
ATOM      6  C   UNL     1       2.000   0.393  -3.160  0.00  0.00    +0.051 C 
ATOM      7  C   UNL     1       3.478   0.470  -3.009  0.00  0.00    +0.030 A 
ATOM      8  C   UNL     1       4.216  -0.806  -2.904  0.00  0.00    +0.257 A 
ATOM      9  O   UNL     1       3.671  -1.892  -3.071  0.00  0.00    -0.267 OA
ATOM     10  N   UNL     1       5.520  -0.681  -2.506  0.00  0.00    -0.275 N 
ATOM     11  H   UNL     1       5.996  -1.554  -2.315  0.00  0.00    +0.173 HD
ATOM     12  C   UNL     1       6.173   0.470  -2.093  0.00  0.00    +0.331 A 
ATOM     13  O   UNL     1       7.320   0.407  -1.666  0.00  0.00    -0.246 OA
ATOM     14  N   UNL     1       5.347   1.606  -2.037  0.00  0.00    -0.274 N 
ATOM     15  C   UNL     1       4.085   1.601  -2.626  0.00  0.00    +0.101 A 
ENDBRANCH   1  14
BRANCH   4  16
ATOM     16  N   UNL     1       6.456   5.552  -1.332  0.00  0.00    +0.082 NA
ATOM     17  N   UNL     1       7.300   6.387  -0.981  0.00  0.00    -0.014 NA
ATOM     18  N   UNL     1       8.084   7.141  -0.661  0.00  0.00    -0.328 NA
ENDBRANCH   4  16
BRANCH   3  19
ATOM     19  C   UNL     1       6.194   4.053   2.083  0.00  0.00    +0.189 C 
BRANCH  19  20
ATOM     20  O   UNL     1       4.818   3.799   2.344  0.00  0.00    -0.392 OA
ATOM     21  H   UNL     1       4.726   2.830   2.438  0.00  0.00    +0.210 HD
ENDBRANCH  19  20
ENDBRANCH   3  19
TORSDOF 4
REMARK  Name = 
REMARK  15 active torsions:
REMARK  status: ('A' for Active; 'I' for Inactive)
REMARK    1  A    between atoms: C_1  and  C_2
REMARK    2  A    between atoms: N_4  and  C_10
REMARK    3  A    between atoms: C_13  and  N_20
REMARK    4  A    between atoms: C_15  and  C_18
REMARK    5  A    between atoms: C_18  and  O_19
REMARK    6  A    between atoms: C_25  and  N_26
REMARK    7  A    between atoms: N_26  and  C_27
REMARK    8  A    between atoms: N_34  and  C_37
REMARK    9  A    between atoms: C_40  and  C_44
REMARK   10  A    between atoms: C_44  and  O_45
REMARK   11  A    between atoms: C_47  and  N_55
REMARK   12  A    between atoms: C_50  and  C_53
REMARK   13  A    between atoms: C_53  and  O_54
REMARK   14  A    between atoms: O_63  and  S_64
REMARK   15  A    between atoms: S_64  and  O_67
REMARK                            x       y       z     vdW  Elec       q    Type
REMARK                         _______ _______ _______ _____ _____    ______ ____
ROOT
ATOM      1  C   UNL     1       1.354  -1.808   4.336  0.00  0.00    +0.152 A 
ATOM      2  N   UNL     1       0.679  -0.790   4.915  0.00  0.00    -0.198 NA
ATOM      3  C   UNL     1       0.532  -0.765   6.245  0.00  0.00    +0.216 A 
ATOM      4  N   UNL     1      -0.146   0.318   6.776  0.00  0.00    -0.327 N 
ATOM      5  H   UNL     1      -0.048   1.097   6.136  0.00  0.00    +0.145 HD
ATOM      6  H   UNL     1       0.166   0.472   7.725  0.00  0.00    +0.145 HD
ATOM      7  N   UNL     1       1.074  -1.629   7.110  0.00  0.00    -0.195 NA
ATOM      8  C   UNL     1       1.879  -2.509   6.497  0.00  0.00    +0.168 A 
ATOM      9  N   UNL     1       2.779  -3.380   7.036  0.00  0.00    -0.308 N 
ATOM     10  C   UNL     1       3.437  -3.993   5.992  0.00  0.00    +0.202 A 
ATOM     11  N   UNL     1       2.973  -3.625   4.824  0.00  0.00    -0.231 NA
ATOM     12  C   UNL     1       2.068  -2.656   5.149  0.00  0.00    +0.148 A 
ENDROOT
BRANCH   9  13
ATOM     13  C   UNL     1       3.111  -3.458   8.446  0.00  0.00    +0.113 C 
ATOM     14  C   UNL     1       4.484  -4.048   8.613  0.00  0.00    -0.006 C 
ATOM     15  C   UNL     1       5.409  -3.082   8.665  0.00  0.00    -0.023 C 
ATOM     16  C   UNL     1       4.774  -1.715   8.730  0.00  0.00    +0.039 C 
ATOM     17  C   UNL     1       3.333  -2.084   9.103  0.00  0.00    +0.039 C 
BRANCH  16  18
ATOM     18  C   UNL     1       5.410  -0.815   9.780  0.00  0.00    +0.163 C 
BRANCH  18  19
ATOM     19  O   UNL     1       6.708  -0.410   9.363  0.00  0.00    -0.394 OA
ATOM     20  H   UNL     1       7.237  -1.216   9.230  0.00  0.00    +0.209 HD
ENDBRANCH  18  19
ENDBRANCH  16  18
ENDBRANCH   9  13
BRANCH   1  21
ATOM     21  N   UNL     1       1.449  -2.039   2.958  0.00  0.00    -0.324 N 
ATOM     22  H   UNL     1       1.896  -2.958   2.837  0.00  0.00    +0.148 HD
BRANCH  21  24
ATOM     23  C   UNL     1      -0.731  -0.797   2.477  0.00  0.00    +0.024 C 
ATOM     24  C   UNL     1       0.332  -1.767   2.083  0.00  0.00    +0.072 C 
ATOM     25  C   UNL     1      -1.071  -2.216   2.164  0.00  0.00    +0.024 C 
ENDBRANCH  21  24
ENDBRANCH   1  21
TORSDOF 5
REMARK  Name = 
REMARK  15 active torsions:
REMARK  status: ('A' for Active; 'I' for Inactive)
REMARK    1  A    between atoms: C_1  and  C_2
REMARK    2  A    between atoms: N_4  and  C_10
REMARK    3  A    between atoms: C_13  and  N_20
REMARK    4  A    between atoms: C_15  and  C_18
REMARK    5  A    between atoms: C_18  and  O_19
REMARK    6  A    between atoms: C_25  and  N_26
REMARK    7  A    between atoms: N_26  and  C_27
REMARK    8  A    between atoms: N_34  and  C_37
REMARK    9  A    between atoms: C_40  and  C_44
REMARK   10  A    between atoms: C_44  and  O_45
REMARK   11  A    between atoms: C_47  and  N_55
REMARK   12  A    between atoms: C_50  and  C_53
REMARK   13  A    between atoms: C_53  and  O_54
REMARK   14  A    between atoms: O_63  and  S_64
REMARK   15  A    between atoms: S_64  and  O_67
REMARK                            x       y       z     vdW  Elec       q    Type
REMARK                         _______ _______ _______ _____ _____    ______ ____
ROOT
ATOM      1  N   UNL     1      -3.166   0.665   1.555  0.00  0.00    -0.272 N 
ATOM      2  C   UNL     1      -3.844  -0.482   2.011  0.00  0.00    +0.352 A 
ATOM      3  O   UNL     1      -3.879  -1.520   1.357  0.00  0.00    -0.244 OA
ATOM      4  N   UNL     1      -4.531  -0.422   3.208  0.00  0.00    -0.178 NA
ATOM      5  C   UNL     1      -4.686   0.712   3.813  0.00  0.00    +0.123 A 
ATOM      6  N   UNL     1      -5.488   0.757   4.919  0.00  0.00    -0.343 N 
ATOM      7  H   UNL     1      -5.653  -0.137   5.367  0.00  0.00    +0.144 HD
ATOM      8  H   UNL     1      -5.446   1.556   5.536  0.00  0.00    +0.144 HD
ATOM      9  C   UNL     1      -4.048   1.950   3.351  0.00  0.00    +0.061 A 
ATOM     10  C   UNL     1      -3.295   1.847   2.263  0.00  0.00    +0.096 A 
ENDROOT
BRANCH   1  15
ATOM     11  C   UNL     1      -2.168  -0.411  -0.663  0.00  0.00    +0.126 C 
ATOM     12  S   UNL     1      -0.378  -0.335  -0.784  0.00  0.00    -0.123 S 
ATOM     13  C   UNL     1      -0.261   1.353  -0.146  0.00  0.00    +0.203 C 
ATOM     14  O   UNL     1      -1.573   1.831   0.173  0.00  0.00    -0.340 OA
ATOM     15  C   UNL     1      -2.601   0.793   0.183  0.00  0.00    +0.235 C 
BRANCH  13  16
ATOM     16  C   UNL     1       0.841   1.842   0.881  0.00  0.00    +0.198 C 
BRANCH  16  17
ATOM     17  O   UNL     1       0.674   1.599   2.276  0.00  0.00    -0.392 OA
ATOM     18  H   UNL     1       1.319   0.926   2.569  0.00  0.00    +0.210 HD
ENDBRANCH  16  17
ENDBRANCH  13  16
ENDBRANCH   1  15
TORSDOF 3
REMARK  Name = 
REMARK  15 active torsions:
REMARK  status: ('A' for Active; 'I' for Inactive)
REMARK    1  A    between atoms: C_1  and  C_2
REMARK    2  A    between atoms: N_4  and  C_10
REMARK    3  A    between atoms: C_13  and  N_20
REMARK    4  A    between atoms: C_15  and  C_18
REMARK    5  A    between atoms: C_18  and  O_19
REMARK    6  A    between atoms: C_25  and  N_26
REMARK    7  A    between atoms: N_26  and  C_27
REMARK    8  A    between atoms: N_34  and  C_37
REMARK    9  A    between atoms: C_40  and  C_44
REMARK   10  A    between atoms: C_44  and  O_45
REMARK   11  A    between atoms: C_47  and  N_55
REMARK   12  A    between atoms: C_50  and  C_53
REMARK   13  A    between atoms: C_53  and  O_54
REMARK   14  A    between atoms: O_63  and  S_64
REMARK   15  A    between atoms: S_64  and  O_67
REMARK                            x       y       z     vdW  Elec       q    Type
REMARK                         _______ _______ _______ _____ _____    ______ ____
ROOT
ATOM      1  S   UNL     1       4.164  -0.368   1.142  0.00  0.00    +0.205 S 
ATOM      2  O   UNL     1       4.963  -1.438   0.643  0.00  0.00    -0.118 OA
ATOM      3  O   UNL     1       4.365   0.300   2.398  0.00  0.00    -0.118 OA
ENDROOT
BRANCH   1   4
ATOM      4  O   UNL     1       2.641  -0.816   1.090  0.00  0.00    -0.231 OA
ATOM      5  H   UNL     1       2.409  -1.132   1.988  0.00  0.00    +0.247 HD
ENDBRANCH   1   4
BRANCH   1   6
ATOM      6  O   UNL     1       4.102   0.737   0.029  0.00  0.00    -0.231 OA
ATOM      7  H   UNL     1       4.567   0.327  -0.710  0.00  0.00    +0.247 HD
ENDBRANCH   1   6
TORSDOF 2
