REMARK  Name = 
REMARK  189 active torsions:
REMARK  status: ('A' for Active; 'I' for Inactive)
REMARK    1  A    between atoms: CD1_1  and  CG1_2
REMARK    2  A    between atoms: CG1_2  and  CB_3
REMARK    3  A    between atoms: CB_3  and  CG2_5
REMARK    4  A    between atoms: CB_3  and  CA_6
REMARK    5  A    between atoms: CA_6  and  C_8
REMARK    6  A    between atoms: CA_6  and  N_284
REMARK    7  A    between atoms: N_10  and  CA_11
REMARK    8  A    between atoms: CA_11  and  CB_13
REMARK    9  A    between atoms: CA_11  and  C_18
REMARK   10  A    between atoms: CB_13  and  CG_14
REMARK   11  A    between atoms: CG_14  and  CD_15
REMARK   12  A    between atoms: CD_15  and  OE2_17
REMARK   13  A    between atoms: N_20  and  CA_21
REMARK   14  A    between atoms: CA_21  and  CB_23
REMARK   15  A    between atoms: CA_21  and  C_28
REMARK   16  A    between atoms: CB_23  and  CG_24
REMARK   17  A    between atoms: CG_24  and  CD_25
REMARK   18  A    between atoms: CD_25  and  OE2_27
REMARK   19  A    between atoms: N_30  and  CA_31
REMARK   20  A    between atoms: CA_31  and  CB_33
REMARK   21  A    between atoms: CA_31  and  C_35
REMARK   22  A    between atoms: CB_33  and  OG_34
REMARK   23  A    between atoms: N_37  and  CA_38
REMARK   24  A    between atoms: CA_38  and  CB_40
REMARK   25  A    between atoms: CA_38  and  C_45
REMARK   26  A    between atoms: CB_40  and  CG_41
REMARK   27  A    between atoms: CG_41  and  CD_42
REMARK   28  A    between atoms: N_47  and  CA_48
REMARK   29  A    between atoms: CA_48  and  CB_50
REMARK   30  A    between atoms: CA_48  and  C_54
REMARK   31  A    between atoms: CB_50  and  CG_51
REMARK   32  A    between atoms: N_56  and  CA_57
REMARK   33  A    between atoms: CA_57  and  CB_59
REMARK   34  A    between atoms: CA_57  and  C_64
REMARK   35  A    between atoms: CB_59  and  CG_60
REMARK   36  A    between atoms: CG_60  and  CD_61
REMARK   37  A    between atoms: N_66  and  CA_67
REMARK   38  A    between atoms: CA_67  and  CB_69
REMARK   39  A    between atoms: CA_67  and  C_74
REMARK   40  A    between atoms: CB_69  and  CG_70
REMARK   41  A    between atoms: CG_70  and  CD_71
REMARK   42  A    between atoms: N_76  and  CA_77
REMARK   43  A    between atoms: CA_77  and  CB_79
REMARK   44  A    between atoms: CA_77  and  C_84
REMARK   45  A    between atoms: CB_79  and  CG_80
REMARK   46  A    between atoms: CG_80  and  CD_81
REMARK   47  A    between atoms: CD_81  and  OE2_83
REMARK   48  A    between atoms: N_86  and  CA_87
REMARK   49  A    between atoms: CA_87  and  CB_89
REMARK   50  A    between atoms: CA_87  and  C_94
REMARK   51  A    between atoms: CB_89  and  CG_90
REMARK   52  A    between atoms: CG_90  and  CD_91
REMARK   53  A    between atoms: CD_91  and  CE_92
REMARK   54  A    between atoms: CE_92  and  NZ_93
REMARK   55  A    between atoms: N_96  and  CA_97
REMARK   56  A    between atoms: CA_97  and  CB_99
REMARK   57  A    between atoms: CA_97  and  C_103
REMARK   58  A    between atoms: CB_99  and  CG_100
REMARK   59  A    between atoms: N_105  and  CA_106
REMARK   60  A    between atoms: CA_106  and  CB_108
REMARK   61  A    between atoms: CA_106  and  C_113
REMARK   62  A    between atoms: CB_108  and  CG_109
REMARK   63  A    between atoms: CG_109  and  CD_110
REMARK   64  A    between atoms: CD_110  and  OE2_112
REMARK   65  A    between atoms: N_115  and  CA_116
REMARK   66  A    between atoms: CA_116  and  CB_118
REMARK   67  A    between atoms: CA_116  and  C_123
REMARK   68  A    between atoms: CB_118  and  CG_119
REMARK   69  A    between atoms: CG_119  and  CD_120
REMARK   70  A    between atoms: N_125  and  CA_126
REMARK   71  A    between atoms: CA_126  and  CB_128
REMARK   72  A    between atoms: CA_126  and  C_133
REMARK   73  A    between atoms: CB_128  and  CG_129
REMARK   74  A    between atoms: CG_129  and  CD_130
REMARK   75  A    between atoms: CD_130  and  OE2_132
REMARK   76  A    between atoms: N_135  and  CA_136
REMARK   77  A    between atoms: CA_136  and  CB_138
REMARK   78  A    between atoms: CA_136  and  C_142
REMARK   79  A    between atoms: CB_138  and  CG_139
REMARK   80  A    between atoms: CG_139  and  CD1_140
REMARK   81  A    between atoms: CG_139  and  CD2_141
REMARK   82  A    between atoms: N_144  and  CA_145
REMARK   83  A    between atoms: CA_145  and  CB_147
REMARK   84  A    between atoms: CA_145  and  C_151
REMARK   85  A    between atoms: CB_147  and  CG_148
REMARK   86  A    between atoms: CG_148  and  CD1_149
REMARK   87  A    between atoms: CG_148  and  CD2_150
REMARK   88  A    between atoms: N_153  and  CA_154
REMARK   89  A    between atoms: CA_154  and  CB_156
REMARK   90  A    between atoms: CA_154  and  C_161
REMARK   91  A    between atoms: CB_156  and  CG_157
REMARK   92  A    between atoms: CG_157  and  CD_158
REMARK   93  A    between atoms: CD_158  and  OE2_160
REMARK   94  A    between atoms: N_163  and  CA_164
REMARK   95  A    between atoms: CA_164  and  CB_166
REMARK   96  A    between atoms: CA_164  and  C_170
REMARK   97  A    between atoms: CB_166  and  CG_167
REMARK   98  A    between atoms: CG_167  and  CD1_168
REMARK   99  A    between atoms: CG_167  and  CD2_169
REMARK  100  A    between atoms: N_172  and  CA_173
REMARK  101  A    between atoms: CA_173  and  CB_175
REMARK  102  A    between atoms: CA_173  and  C_179
REMARK  103  A    between atoms: CB_175  and  CG_176
REMARK  104  A    between atoms: CG_176  and  OD2_178
REMARK  105  A    between atoms: N_181  and  CA_182
REMARK  106  A    between atoms: CA_182  and  CB_184
REMARK  107  A    between atoms: CA_182  and  C_189
REMARK  108  A    between atoms: CB_184  and  CG_185
REMARK  109  A    between atoms: CG_185  and  CD_186
REMARK  110  A    between atoms: CD_186  and  CE_187
REMARK  111  A    between atoms: CE_187  and  NZ_188
REMARK  112  A    between atoms: N_191  and  CA_192
REMARK  113  A    between atoms: CA_192  and  CB_194
REMARK  114  A    between atoms: CA_192  and  C_204
REMARK  115  A    between atoms: CB_194  and  CG_195
REMARK  116  A    between atoms: N_206  and  CA_207
REMARK  117  A    between atoms: CA_207  and  CB_209
REMARK  118  A    between atoms: CA_207  and  C_210
REMARK  119  A    between atoms: N_212  and  CA_213
REMARK  120  A    between atoms: CA_213  and  CB_215
REMARK  121  A    between atoms: CA_213  and  C_217
REMARK  122  A    between atoms: CB_215  and  OG_216
REMARK  123  A    between atoms: N_219  and  CA_220
REMARK  124  A    between atoms: CA_220  and  CB_222
REMARK  125  A    between atoms: CA_220  and  C_226
REMARK  126  A    between atoms: CB_222  and  CG_223
REMARK  127  A    between atoms: CG_223  and  CD1_224
REMARK  128  A    between atoms: CG_223  and  CD2_225
REMARK  129  A    between atoms: N_228  and  CA_229
REMARK  130  A    between atoms: CA_229  and  CB_231
REMARK  131  A    between atoms: CA_229  and  C_241
REMARK  132  A    between atoms: CB_231  and  CG_232
REMARK  133  A    between atoms: N_243  and  CA_244
REMARK  134  A    between atoms: CA_244  and  CB_246
REMARK  135  A    between atoms: CA_244  and  C_250
REMARK  136  A    between atoms: CB_246  and  CG_247
REMARK  137  A    between atoms: N_252  and  CA_253
REMARK  138  A    between atoms: CA_253  and  CB_255
REMARK  139  A    between atoms: CA_253  and  C_265
REMARK  140  A    between atoms: CB_255  and  CG_256
REMARK  141  A    between atoms: N_267  and  CA_268
REMARK  142  A    between atoms: CA_268  and  CB_270
REMARK  143  A    between atoms: CA_268  and  C_277
REMARK  144  A    between atoms: CB_270  and  CG_271
REMARK  145  A    between atoms: N_279  and  CA_280
REMARK  146  A    between atoms: CA_280  and  C_281
REMARK  147  A    between atoms: C_281  and  OXT_283
REMARK  148  A    between atoms: C_285  and  CA_287
REMARK  149  A    between atoms: CA_287  and  CB_289
REMARK  150  A    between atoms: CA_287  and  N_293
REMARK  151  A    between atoms: CB_289  and  CG_290
REMARK  152  A    between atoms: CG_290  and  CD1_291
REMARK  153  A    between atoms: CG_290  and  CD2_292
REMARK  154  A    between atoms: C_294  and  CA_296
REMARK  155  A    between atoms: CA_296  and  CB_298
REMARK  156  A    between atoms: CA_296  and  N_300
REMARK  157  A    between atoms: CB_298  and  O_299
REMARK  158  A    between atoms: C_301  and  CA_303
REMARK  159  A    between atoms: CA_303  and  CB_305
REMARK  160  A    between atoms: CA_303  and  N_311
REMARK  161  A    between atoms: CB_305  and  CG_306
REMARK  162  A    between atoms: C_312  and  CA_314
REMARK  163  A    between atoms: CA_314  and  CB_316
REMARK  164  A    between atoms: CA_314  and  N_321
REMARK  165  A    between atoms: CB_316  and  CG2_318
REMARK  166  A    between atoms: CB_316  and  CG1_319
REMARK  167  A    between atoms: CG1_319  and  CD1_320
REMARK  168  A    between atoms: C_322  and  CA_324
REMARK  169  A    between atoms: CA_324  and  CB_326
REMARK  170  A    between atoms: CA_324  and  N_330
REMARK  171  A    between atoms: CB_326  and  CG_327
REMARK  172  A    between atoms: CG_327  and  CD1_328
REMARK  173  A    between atoms: CG_327  and  CD2_329
REMARK  174  A    between atoms: C_331  and  CA_333
REMARK  175  A    between atoms: CA_333  and  CB_335
REMARK  176  A    between atoms: CA_333  and  N_337
REMARK  177  A    between atoms: CB_335  and  O_336
REMARK  178  A    between atoms: C_338  and  CA_340
REMARK  179  A    between atoms: CA_340  and  CB_342
REMARK  180  A    between atoms: CA_340  and  N_346
REMARK  181  A    between atoms: CB_342  and  CG2_344
REMARK  182  A    between atoms: CB_342  and  OG1_345
REMARK  183  A    between atoms: C_347  and  C_349
REMARK  184  A    between atoms: C_349  and  C_351
REMARK  185  A    between atoms: C_349  and  N_359
REMARK  186  A    between atoms: C_351  and  C_352
REMARK  187  A    between atoms: C_355  and  O_358
REMARK  188  A    between atoms: N_359  and  N_360
REMARK  189  A    between atoms: C_361  and  C_363
REMARK                            x       y       z     vdW  Elec       q    Type
REMARK                         _______ _______ _______ _____ _____    ______ ____
ROOT
ATOM      1  CA  ASN A  11     -21.078  -8.644 -15.356  0.00  0.00    +0.168 C 
ENDROOT
BRANCH   1   2
ATOM      2  C   ASN A  11     -22.081  -9.536 -16.156  0.00  0.00    +0.234 C 
ATOM      3  N   GLU A  12     -21.852 -10.928 -16.224  0.00  0.00    -0.302 N 
ATOM      4  H   GLU A  12     -21.228 -11.305 -15.519  0.00  0.00    +0.150 HD
ATOM      5  O   ASN A  11     -22.966  -8.956 -16.786  0.00  0.00    -0.274 OA
BRANCH   3   6
ATOM      6  CA  GLU A  12     -22.736 -11.957 -16.946  0.00  0.00    +0.159 C 
BRANCH   6   7
ATOM      7  C   GLU A  12     -22.100 -13.378 -17.493  0.00  0.00    +0.234 C 
ATOM      8  N   GLN A  13     -21.166 -14.160 -16.847  0.00  0.00    -0.302 N 
ATOM      9  H   GLN A  13     -20.743 -13.793 -15.999  0.00  0.00    +0.150 HD
ATOM     10  O   GLU A  12     -22.498 -13.827 -18.575  0.00  0.00    -0.274 OA
BRANCH   8  11
ATOM     11  CA  GLN A  13     -20.326 -15.400 -17.467  0.00  0.00    +0.159 C 
BRANCH  11  12
ATOM     12  C   GLN A  13     -18.855 -15.532 -16.633  0.00  0.00    +0.234 C 
ATOM     13  N   GLU A  14     -17.738 -16.049 -17.300  0.00  0.00    -0.302 N 
ATOM     14  H   GLU A  14     -17.890 -16.420 -18.222  0.00  0.00    +0.150 HD
ATOM     15  O   GLN A  13     -18.786 -15.156 -15.456  0.00  0.00    -0.274 OA
BRANCH  13  16
ATOM     16  CA  GLU A  14     -16.269 -15.827 -16.970  0.00  0.00    +0.159 C 
BRANCH  16  17
ATOM     17  C   GLU A  14     -15.435 -16.994 -17.588  0.00  0.00    +0.234 C 
ATOM     18  N   LEU A  15     -15.080 -16.853 -18.926  0.00  0.00    -0.302 N 
ATOM     19  H   LEU A  15     -15.022 -15.901 -19.263  0.00  0.00    +0.150 HD
ATOM     20  O   GLU A  14     -15.161 -18.000 -16.933  0.00  0.00    -0.274 OA
BRANCH  18  21
ATOM     21  CA  LEU A  15     -14.256 -17.883 -19.628  0.00  0.00    +0.159 C 
BRANCH  21  22
ATOM     22  C   LEU A  15     -13.718 -17.444 -21.047  0.00  0.00    +0.234 C 
ATOM     23  N   LEU A  16     -14.200 -16.270 -21.590  0.00  0.00    -0.302 N 
ATOM     24  H   LEU A  16     -14.868 -15.695 -21.098  0.00  0.00    +0.150 HD
ATOM     25  O   LEU A  15     -12.924 -18.146 -21.675  0.00  0.00    -0.274 OA
BRANCH  23  26
ATOM     26  CA  LEU A  16     -13.988 -15.845 -22.994  0.00  0.00    +0.159 C 
BRANCH  26  27
ATOM     27  C   LEU A  16     -14.577 -14.403 -23.182  0.00  0.00    +0.234 C 
ATOM     28  N   GLU A  17     -14.408 -13.798 -24.420  0.00  0.00    -0.302 N 
ATOM     29  H   GLU A  17     -13.890 -14.279 -25.148  0.00  0.00    +0.150 HD
ATOM     30  O   LEU A  16     -15.178 -13.863 -22.251  0.00  0.00    -0.274 OA
BRANCH  28  31
ATOM     31  CA  GLU A  17     -14.982 -12.474 -24.798  0.00  0.00    +0.159 C 
BRANCH  31  32
ATOM     32  C   GLU A  17     -14.707 -12.167 -26.321  0.00  0.00    +0.234 C 
ATOM     33  N   LEU A  18     -15.603 -11.310 -26.953  0.00  0.00    -0.302 N 
ATOM     34  H   LEU A  18     -16.497 -11.134 -26.508  0.00  0.00    +0.150 HD
ATOM     35  O   GLU A  17     -13.715 -12.614 -26.896  0.00  0.00    -0.274 OA
BRANCH  33  36
ATOM     36  CA  LEU A  18     -15.467 -10.852 -28.365  0.00  0.00    +0.159 C 
BRANCH  36  37
ATOM     37  C   LEU A  18     -16.270  -9.516 -28.563  0.00  0.00    +0.234 C 
ATOM     38  N   ASP A  19     -15.585  -8.319 -28.420  0.00  0.00    -0.302 N 
ATOM     39  H   ASP A  19     -14.587  -8.330 -28.226  0.00  0.00    +0.150 HD
ATOM     40  O   LEU A  18     -17.491  -9.531 -28.737  0.00  0.00    -0.274 OA
BRANCH  38  41
ATOM     41  CA  ASP A  19     -16.211  -6.963 -28.537  0.00  0.00    +0.169 C 
BRANCH  41  42
ATOM     42  C   ASP A  19     -15.186  -5.796 -28.254  0.00  0.00    +0.234 C 
ATOM     43  N   LYS A  20     -15.657  -4.490 -28.391  0.00  0.00    -0.302 N 
ATOM     44  H   LYS A  20     -16.585  -4.308 -28.756  0.00  0.00    +0.150 HD
ATOM     45  O   ASP A  19     -14.026  -6.053 -27.934  0.00  0.00    -0.274 OA
BRANCH  43  46
ATOM     46  CA  LYS A  20     -14.850  -3.254 -28.124  0.00  0.00    +0.159 C 
BRANCH  46  47
ATOM     47  C   LYS A  20     -15.776  -2.034 -27.741  0.00  0.00    +0.234 C 
ATOM     48  N   TRP A  21     -15.138  -0.823 -27.496  0.00  0.00    -0.302 N 
ATOM     49  H   TRP A  21     -14.126  -0.794 -27.410  0.00  0.00    +0.150 HD
ATOM     50  O   LYS A  20     -17.003  -2.159 -27.721  0.00  0.00    -0.274 OA
BRANCH  48  51
ATOM     51  CA  TRP A  21     -15.813   0.480 -27.195  0.00  0.00    +0.163 C 
BRANCH  51  52
ATOM     52  C   TRP A  21     -14.766   1.666 -27.127  0.00  0.00    +0.234 C 
ATOM     53  N   ALA A  22     -15.256   2.961 -26.947  0.00  0.00    -0.303 N 
ATOM     54  H   ALA A  22     -16.247   3.104 -26.778  0.00  0.00    +0.149 HD
ATOM     55  O   TRP A  21     -13.558   1.434 -27.223  0.00  0.00    -0.274 OA
BRANCH  53  56
ATOM     56  CA  ALA A  22     -14.401   4.174 -26.737  0.00  0.00    +0.156 C 
ATOM     57  CB  ALA A  22     -13.531   4.440 -27.960  0.00  0.00    +0.038 C 
BRANCH  56  58
ATOM     58  C   ALA A  22     -15.266   5.460 -26.421  0.00  0.00    +0.234 C 
ATOM     59  N   SER A  23     -14.613   6.654 -26.130  0.00  0.00    -0.301 N 
ATOM     60  H   SER A  23     -13.604   6.714 -26.236  0.00  0.00    +0.150 HD
ATOM     61  O   ALA A  22     -16.499   5.395 -26.407  0.00  0.00    -0.274 OA
BRANCH  59  62
ATOM     62  CA  SER A  23     -15.296   7.979 -25.873  0.00  0.00    +0.184 C 
BRANCH  62  63
ATOM     63  C   SER A  23     -14.279   9.187 -25.785  0.00  0.00    +0.236 C 
ATOM     64  N   LEU A  24     -14.818  10.470 -25.694  0.00  0.00    -0.302 N 
ATOM     65  H   LEU A  24     -15.823  10.603 -25.780  0.00  0.00    +0.150 HD
ATOM     66  O   SER A  23     -13.065   8.980 -25.781  0.00  0.00    -0.274 OA
BRANCH  64  67
ATOM     67  CA  LEU A  24     -14.045  11.751 -25.531  0.00  0.00    +0.159 C 
BRANCH  67  68
ATOM     68  C   LEU A  24     -15.043  12.962 -25.388  0.00  0.00    +0.234 C 
ATOM     69  N   TRP A  25     -14.567  14.106 -24.763  0.00  0.00    -0.302 N 
ATOM     70  H   TRP A  25     -13.662  14.099 -24.303  0.00  0.00    +0.150 HD
ATOM     71  O   LEU A  24     -16.177  12.885 -25.864  0.00  0.00    -0.274 OA
BRANCH  69  72
ATOM     72  CA  TRP A  25     -15.313  15.396 -24.613  0.00  0.00    +0.163 C 
BRANCH  72  73
ATOM     73  C   TRP A  25     -14.453  16.446 -23.812  0.00  0.00    +0.234 C 
ATOM     74  N   ASN A  26     -14.975  17.723 -23.656  0.00  0.00    -0.302 N 
ATOM     75  H   ASN A  26     -15.832  17.986 -24.136  0.00  0.00    +0.150 HD
ATOM     76  O   TRP A  25     -13.346  16.131 -23.366  0.00  0.00    -0.274 OA
BRANCH  74  77
ATOM     77  CA  ASN A  26     -14.313  18.846 -22.930  0.00  0.00    +0.168 C 
BRANCH  77  78
ATOM     78  C   ASN A  26     -15.172  20.166 -22.991  0.00  0.00    +0.234 C 
ATOM     79  N   TRP A  27     -14.669  21.279 -22.323  0.00  0.00    -0.302 N 
ATOM     80  H   TRP A  27     -13.867  21.196 -21.706  0.00  0.00    +0.150 HD
ATOM     81  O   ASN A  26     -16.247  20.189 -23.592  0.00  0.00    -0.274 OA
BRANCH  79  82
ATOM     82  CA  TRP A  27     -15.324  22.623 -22.294  0.00  0.00    +0.163 C 
BRANCH  82  83
ATOM     83  C   TRP A  27     -14.521  23.625 -21.395  0.00  0.00    +0.234 C 
ATOM     84  N   PHE A  28     -15.021  24.915 -21.306  0.00  0.00    -0.302 N 
ATOM     85  H   PHE A  28     -15.825  25.199 -21.858  0.00  0.00    +0.150 HD
ATOM     86  O   TRP A  27     -13.485  23.278 -20.826  0.00  0.00    -0.274 OA
BRANCH  84  87
ATOM     87  CA  PHE A  28     -14.461  25.981 -20.443  0.00  0.00    +0.163 C 
BRANCH  87  88
ATOM     88  C   PHE A  28     -15.394  27.237 -20.497  0.00  0.00    +0.234 C 
ATOM     89  N   GLY A  29     -15.039  28.299 -19.690  0.00  0.00    -0.303 N 
ATOM     90  H   GLY A  29     -14.241  28.237 -19.063  0.00  0.00    +0.149 HD
ATOM     91  O   PHE A  28     -16.397  27.278 -21.213  0.00  0.00    -0.274 OA
BRANCH  89  92
ATOM     92  CA  GLY A  29     -15.752  29.572 -19.708  0.00  0.00    +0.224 C 
BRANCH  92  93
ATOM     93  C   GLY A  29     -15.109  30.563 -18.741  0.00  0.00    +0.322 C 
ATOM     94  O   GLY A  29     -14.110  30.313 -18.078  0.00  0.00    -0.249 OA
BRANCH  93  95
ATOM     95  OXT GLY A  29     -15.733  31.761 -18.682  0.00  0.00    -0.480 OA
ATOM     96  HXT GLY A  29     -16.517  31.851 -19.258  0.00  0.00    +0.295 HD
ENDBRANCH  93  95
ENDBRANCH  92  93
ENDBRANCH  89  92
ENDBRANCH  87  88
BRANCH  87  97
ATOM     97  CB  PHE A  28     -13.004  26.357 -20.805  0.00  0.00    +0.067 C 
BRANCH  97  98
ATOM     98  CG  PHE A  28     -12.909  26.885 -22.220  0.00  0.00    -0.045 A 
ATOM     99  CD2 PHE A  28     -12.890  25.993 -23.300  0.00  0.00    +0.004 A 
ATOM    100  CE2 PHE A  28     -13.091  26.454 -24.597  0.00  0.00    +0.000 A 
ATOM    101  CZ  PHE A  28     -13.268  27.815 -24.829  0.00  0.00    +0.000 A 
ATOM    102  CE1 PHE A  28     -13.197  28.720 -23.771  0.00  0.00    +0.000 A 
ATOM    103  CD1 PHE A  28     -13.009  28.259 -22.470  0.00  0.00    +0.004 A 
ENDBRANCH  97  98
ENDBRANCH  87  97
ENDBRANCH  84  87
ENDBRANCH  82  83
BRANCH  82 104
ATOM    104  CB  TRP A  27     -16.781  22.593 -21.807  0.00  0.00    +0.069 C 
BRANCH 104 105
ATOM    105  CG  TRP A  27     -16.919  22.204 -20.365  0.00  0.00    -0.020 A 
ATOM    106  CD2 TRP A  27     -17.498  22.989 -19.317  0.00  0.00    +0.003 A 
ATOM    107  CE2 TRP A  27     -17.492  22.204 -18.164  0.00  0.00    +0.047 A 
ATOM    108  CZ2 TRP A  27     -18.064  22.621 -16.959  0.00  0.00    +0.026 A 
ATOM    109  CH2 TRP A  27     -18.649  23.889 -16.927  0.00  0.00    +0.002 A 
ATOM    110  CZ3 TRP A  27     -18.633  24.716 -18.047  0.00  0.00    +0.001 A 
ATOM    111  NE1 TRP A  27     -16.861  21.025 -18.475  0.00  0.00    -0.360 N 
ATOM    112  HE1 TRP A  27     -16.700  20.267 -17.827  0.00  0.00    +0.165 HD
ATOM    113  CE3 TRP A  27     -18.056  24.283 -19.246  0.00  0.00    +0.010 A 
ATOM    114  CD1 TRP A  27     -16.520  21.010 -19.796  0.00  0.00    +0.087 A 
ENDBRANCH 104 105
ENDBRANCH  82 104
ENDBRANCH  79  82
ENDBRANCH  77  78
BRANCH  77 115
ATOM    115  CB  ASN A  26     -12.898  19.147 -23.428  0.00  0.00    +0.127 C 
BRANCH 115 116
ATOM    116  CG  ASN A  26     -12.917  19.710 -24.829  0.00  0.00    +0.213 C 
ATOM    117  ND2 ASN A  26     -11.836  20.478 -25.144  0.00  0.00    -0.329 N 
ATOM    118 HD21 ASN A  26     -11.794  20.799 -26.103  0.00  0.00    +0.145 HD
ATOM    119 HD22 ASN A  26     -10.964  20.381 -24.644  0.00  0.00    +0.145 HD
ATOM    120  OD1 ASN A  26     -13.796  19.509 -25.657  0.00  0.00    -0.276 OA
ENDBRANCH 115 116
ENDBRANCH  77 115
ENDBRANCH  74  77
ENDBRANCH  72  73
BRANCH  72 121
ATOM    121  CB  TRP A  25     -16.685  15.226 -23.949  0.00  0.00    +0.069 C 
BRANCH 121 122
ATOM    122  CG  TRP A  25     -16.626  14.719 -22.538  0.00  0.00    -0.020 A 
ATOM    123  CD2 TRP A  25     -17.211  15.341 -21.391  0.00  0.00    +0.003 A 
ATOM    124  CE2 TRP A  25     -17.002  14.491 -20.305  0.00  0.00    +0.047 A 
ATOM    125  CZ2 TRP A  25     -17.514  14.749 -19.031  0.00  0.00    +0.026 A 
ATOM    126  CH2 TRP A  25     -18.259  15.918 -18.860  0.00  0.00    +0.002 A 
ATOM    127  CZ3 TRP A  25     -18.456  16.806 -19.915  0.00  0.00    +0.001 A 
ATOM    128  NE1 TRP A  25     -16.260  13.428 -20.755  0.00  0.00    -0.360 N 
ATOM    129  HE1 TRP A  25     -15.956  12.653 -20.184  0.00  0.00    +0.165 HD
ATOM    130  CE3 TRP A  25     -17.933  16.534 -21.183  0.00  0.00    +0.010 A 
ATOM    131  CD1 TRP A  25     -16.040  13.547 -22.097  0.00  0.00    +0.087 A 
ENDBRANCH 121 122
ENDBRANCH  72 121
ENDBRANCH  69  72
ENDBRANCH  67  68
BRANCH  67 132
ATOM    132  CB  LEU A  24     -13.136  12.003 -26.753  0.00  0.00    +0.034 C 
BRANCH 132 133
ATOM    133  CG  LEU A  24     -12.289  13.294 -26.727  0.00  0.00    -0.015 C 
ATOM    134  CD2 LEU A  24     -11.550  13.462 -28.057  0.00  0.00    +0.007 C 
ATOM    135  CD1 LEU A  24     -11.287  13.345 -25.571  0.00  0.00    +0.007 C 
ENDBRANCH 132 133
ENDBRANCH  67 132
ENDBRANCH  64  67
ENDBRANCH  62  63
BRANCH  62 136
ATOM    136  CB  SER A  23     -16.108   7.971 -24.561  0.00  0.00    +0.187 C 
BRANCH 136 137
ATOM    137  OG  SER A  23     -17.255   7.128 -24.582  0.00  0.00    -0.393 OA
ATOM    138  H   SER A  23     -17.140   6.457 -25.290  0.00  0.00    +0.209 HD
ENDBRANCH 136 137
ENDBRANCH  62 136
ENDBRANCH  59  62
ENDBRANCH  56  58
ENDBRANCH  53  56
ENDBRANCH  51  52
BRANCH  51 139
ATOM    139  CB  TRP A  21     -16.642   0.415 -25.897  0.00  0.00    +0.069 C 
BRANCH 139 140
ATOM    140  CG  TRP A  21     -15.806   0.049 -24.705  0.00  0.00    -0.020 A 
ATOM    141  CD2 TRP A  21     -15.833  -1.188 -23.985  0.00  0.00    +0.003 A 
ATOM    142  CE2 TRP A  21     -14.783  -1.155 -23.067  0.00  0.00    +0.047 A 
ATOM    143  CZ2 TRP A  21     -14.467  -2.234 -22.236  0.00  0.00    +0.026 A 
ATOM    144  CH2 TRP A  21     -15.260  -3.379 -22.334  0.00  0.00    +0.002 A 
ATOM    145  CZ3 TRP A  21     -16.331  -3.437 -23.223  0.00  0.00    +0.001 A 
ATOM    146  NE1 TRP A  21     -14.178   0.071 -23.183  0.00  0.00    -0.360 N 
ATOM    147  HE1 TRP A  21     -13.365   0.361 -22.657  0.00  0.00    +0.165 HD
ATOM    148  CE3 TRP A  21     -16.625  -2.353 -24.057  0.00  0.00    +0.010 A 
ATOM    149  CD1 TRP A  21     -14.809   0.819 -24.136  0.00  0.00    +0.087 A 
ENDBRANCH 139 140
ENDBRANCH  51 139
ENDBRANCH  48  51
ENDBRANCH  46  47
BRANCH  46 150
ATOM    150  CB  LYS A  20     -14.054  -2.818 -29.368  0.00  0.00    +0.032 C 
BRANCH 150 151
ATOM    151  CG  LYS A  20     -13.103  -3.874 -29.904  0.00  0.00    +0.003 C 
BRANCH 151 152
ATOM    152  CD  LYS A  20     -12.317  -3.357 -31.106  0.00  0.00    +0.015 C 
BRANCH 152 153
ATOM    153  CE  LYS A  20     -11.392  -4.459 -31.610  0.00  0.00    +0.077 C 
BRANCH 153 154
ATOM    154  NZ  LYS A  20     -10.653  -4.013 -32.781  0.00  0.00    -0.330 NA
ATOM    155  HZ1 LYS A  20     -10.082  -4.786 -33.123  0.00  0.00    +0.118 HD
ATOM    156  HZ2 LYS A  20     -11.306  -3.786 -33.529  0.00  0.00    +0.118 HD
ENDBRANCH 153 154
ENDBRANCH 152 153
ENDBRANCH 151 152
ENDBRANCH 150 151
ENDBRANCH  46 150
ENDBRANCH  43  46
ENDBRANCH  41  42
BRANCH  41 157
ATOM    157  CB  ASP A  19     -17.438  -6.773 -27.638  0.00  0.00    +0.152 C 
BRANCH 157 158
ATOM    158  CG  ASP A  19     -17.059  -6.832 -26.182  0.00  0.00    +0.307 C 
ATOM    159  OD1 ASP A  19     -16.095  -7.432 -25.724  0.00  0.00    -0.251 OA
BRANCH 158 160
ATOM    160  OD2 ASP A  19     -17.928  -6.177 -25.383  0.00  0.00    -0.481 OA
ATOM    161  HD2 ASP A  19     -18.666  -5.739 -25.850  0.00  0.00    +0.295 HD
ENDBRANCH 158 160
ENDBRANCH 157 158
ENDBRANCH  41 157
ENDBRANCH  38  41
ENDBRANCH  36  37
BRANCH  36 162
ATOM    162  CB  LEU A  18     -16.017 -11.948 -29.328  0.00  0.00    +0.034 C 
BRANCH 162 163
ATOM    163  CG  LEU A  18     -15.972 -11.606 -30.839  0.00  0.00    -0.015 C 
ATOM    164  CD2 LEU A  18     -16.677 -12.689 -31.670  0.00  0.00    +0.007 C 
ATOM    165  CD1 LEU A  18     -14.552 -11.416 -31.379  0.00  0.00    +0.007 C 
ENDBRANCH 162 163
ENDBRANCH  36 162
ENDBRANCH  33  36
ENDBRANCH  31  32
BRANCH  31 166
ATOM    166  CB  GLU A  17     -14.401 -11.351 -23.915  0.00  0.00    +0.043 C 
BRANCH 166 167
ATOM    167  CG  GLU A  17     -14.938  -9.952 -24.228  0.00  0.00    +0.123 C 
BRANCH 167 168
ATOM    168  CD  GLU A  17     -14.309  -8.906 -23.338  0.00  0.00    +0.305 C 
ATOM    169  OE1 GLU A  17     -13.886  -9.116 -22.212  0.00  0.00    -0.251 OA
BRANCH 168 170
ATOM    170  OE2 GLU A  17     -14.273  -7.679 -23.902  0.00  0.00    -0.481 OA
ATOM    171  HE2 GLU A  17     -14.783  -7.612 -24.748  0.00  0.00    +0.295 HD
ENDBRANCH 168 170
ENDBRANCH 167 168
ENDBRANCH 166 167
ENDBRANCH  31 166
ENDBRANCH  28  31
ENDBRANCH  26  27
BRANCH  26 172
ATOM    172  CB  LEU A  16     -14.610 -16.833 -24.004  0.00  0.00    +0.034 C 
BRANCH 172 173
ATOM    173  CG  LEU A  16     -16.153 -16.961 -23.963  0.00  0.00    -0.015 C 
ATOM    174  CD2 LEU A  16     -16.703 -17.574 -22.674  0.00  0.00    +0.007 C 
ATOM    175  CD1 LEU A  16     -16.646 -17.817 -25.136  0.00  0.00    +0.007 C 
ENDBRANCH 172 173
ENDBRANCH  26 172
ENDBRANCH  23  26
ENDBRANCH  21  22
BRANCH  21 176
ATOM    176  CB  LEU A  15     -15.050 -19.225 -19.700  0.00  0.00    +0.034 C 
BRANCH 176 177
ATOM    177  CG  LEU A  15     -14.386 -20.459 -20.354  0.00  0.00    -0.015 C 
ATOM    178  CD2 LEU A  15     -15.374 -21.636 -20.366  0.00  0.00    +0.007 C 
ATOM    179  CD1 LEU A  15     -13.093 -20.908 -19.668  0.00  0.00    +0.007 C 
ENDBRANCH 176 177
ENDBRANCH  21 176
ENDBRANCH  18  21
ENDBRANCH  16  17
BRANCH  16 180
ATOM    180  CB  GLU A  14     -15.893 -15.705 -15.467  0.00  0.00    +0.043 C 
BRANCH 180 181
ATOM    181  CG  GLU A  14     -14.379 -15.668 -15.168  0.00  0.00    +0.123 C 
BRANCH 181 182
ATOM    182  CD  GLU A  14     -14.127 -15.633 -13.686  0.00  0.00    +0.305 C 
ATOM    183  OE1 GLU A  14     -13.787 -14.626 -13.085  0.00  0.00    -0.251 OA
BRANCH 182 184
ATOM    184  OE2 GLU A  14     -14.247 -16.833 -13.085  0.00  0.00    -0.481 OA
ATOM    185  HE2 GLU A  14     -14.484 -17.552 -13.703  0.00  0.00    +0.295 HD
ENDBRANCH 182 184
ENDBRANCH 181 182
ENDBRANCH 180 181
ENDBRANCH  16 180
ENDBRANCH  13  16
ENDBRANCH  11  12
BRANCH  11 186
ATOM    186  CB  GLN A  13     -20.254 -15.443 -19.163  0.00  0.00    +0.041 C 
BRANCH 186 187
ATOM    187  CG  GLN A  13     -19.791 -14.224 -20.093  0.00  0.00    +0.098 C 
BRANCH 187 188
ATOM    188  CD  GLN A  13     -19.859 -14.226 -21.599  0.00  0.00    +0.211 C 
ATOM    189  NE2 GLN A  13     -21.102 -14.129 -22.129  0.00  0.00    -0.329 N 
ATOM    190 HE21 GLN A  13     -21.146 -13.894 -23.112  0.00  0.00    +0.145 HD
ATOM    191 HE22 GLN A  13     -21.903 -13.940 -21.542  0.00  0.00    +0.145 HD
ATOM    192  OE1 GLN A  13     -18.862 -14.146 -22.311  0.00  0.00    -0.276 OA
ENDBRANCH 187 188
ENDBRANCH 186 187
ENDBRANCH  11 186
ENDBRANCH   8  11
ENDBRANCH   6   7
BRANCH   6 193
ATOM    193  CB  GLU A  12     -23.484 -11.244 -18.139  0.00  0.00    +0.043 C 
BRANCH 193 194
ATOM    194  CG  GLU A  12     -24.519 -11.981 -18.989  0.00  0.00    +0.123 C 
BRANCH 194 195
ATOM    195  CD  GLU A  12     -25.664 -12.526 -18.176  0.00  0.00    +0.305 C 
ATOM    196  OE1 GLU A  12     -25.848 -12.320 -16.988  0.00  0.00    -0.251 OA
BRANCH 195 197
ATOM    197  OE2 GLU A  12     -26.513 -13.266 -18.925  0.00  0.00    -0.481 OA
ATOM    198  HE2 GLU A  12     -26.227 -13.350 -19.853  0.00  0.00    +0.295 HD
ENDBRANCH 195 197
ENDBRANCH 194 195
ENDBRANCH 193 194
ENDBRANCH   6 193
ENDBRANCH   3   6
ENDBRANCH   1   2
BRANCH   1 200
ATOM    199  C   LYS A  10     -18.693  -8.069 -15.367  0.00  0.00    +0.234 C 
ATOM    200  N   ASN A  11     -19.804  -8.494 -16.078  0.00  0.00    -0.302 N 
ATOM    201  H   ASN A  11     -19.763  -8.748 -17.057  0.00  0.00    +0.150 HD
ATOM    202  O   LYS A  10     -18.896  -7.718 -14.210  0.00  0.00    -0.274 OA
BRANCH 199 203
ATOM    203  CA  LYS A  10     -17.253  -8.248 -16.014  0.00  0.00    +0.159 C 
BRANCH 203 205
ATOM    204  C   GLU A   9     -14.878  -7.507 -15.920  0.00  0.00    +0.234 C 
ATOM    205  N   LYS A  10     -16.139  -7.555 -15.363  0.00  0.00    -0.302 N 
ATOM    206  H   LYS A  10     -16.240  -7.680 -14.371  0.00  0.00    +0.150 HD
ATOM    207  O   GLU A   9     -14.748  -7.745 -17.123  0.00  0.00    -0.274 OA
BRANCH 204 208
ATOM    208  CA  GLU A   9     -13.641  -7.038 -15.021  0.00  0.00    +0.159 C 
BRANCH 208 210
ATOM    209  C   GLN A   8     -13.485  -5.925 -12.581  0.00  0.00    +0.234 C 
ATOM    210  N   GLU A   9     -13.835  -6.992 -13.488  0.00  0.00    -0.302 N 
ATOM    211  H   GLU A   9     -14.795  -7.224 -13.393  0.00  0.00    +0.150 HD
ATOM    212  O   GLN A   8     -12.747  -5.035 -13.001  0.00  0.00    -0.274 OA
BRANCH 209 213
ATOM    213  CA  GLN A   8     -14.221  -5.674 -10.998  0.00  0.00    +0.159 C 
BRANCH 213 215
ATOM    214  C   GLN A   7     -13.806  -6.047  -8.611  0.00  0.00    +0.234 C 
ATOM    215  N   GLN A   8     -13.320  -5.667  -9.841  0.00  0.00    -0.302 N 
ATOM    216  H   GLN A   8     -12.340  -5.871 -10.010  0.00  0.00    +0.150 HD
ATOM    217  O   GLN A   7     -15.013  -6.119  -8.374  0.00  0.00    -0.274 OA
BRANCH 214 218
ATOM    218  CA  GLN A   7     -12.804  -6.448  -7.540  0.00  0.00    +0.159 C 
BRANCH 218 220
ATOM    219  C   ASN A   6     -10.652  -6.956  -8.686  0.00  0.00    +0.234 C 
ATOM    220  N   GLN A   7     -11.429  -6.129  -7.900  0.00  0.00    -0.302 N 
ATOM    221  H   GLN A   7     -11.277  -5.136  -7.932  0.00  0.00    +0.150 HD
ATOM    222  O   ASN A   6     -11.112  -8.081  -8.891  0.00  0.00    -0.274 OA
BRANCH 219 223
ATOM    223  CA  ASN A   6      -9.153  -6.554  -9.155  0.00  0.00    +0.168 C 
BRANCH 223 225
ATOM    224  C   GLN A   5      -8.789  -8.286 -11.102  0.00  0.00    +0.234 C 
ATOM    225  N   ASN A   6      -8.579  -7.073 -10.476  0.00  0.00    -0.302 N 
ATOM    226  H   ASN A   6      -8.171  -6.344 -11.043  0.00  0.00    +0.150 HD
ATOM    227  O   GLN A   5      -9.425  -9.210 -10.625  0.00  0.00    -0.274 OA
BRANCH 224 228
ATOM    228  CA  GLN A   5      -8.523  -8.450 -12.609  0.00  0.00    +0.159 C 
BRANCH 228 230
ATOM    229  C   SER A   4      -9.871 -10.160 -14.052  0.00  0.00    +0.236 C 
ATOM    230  N   GLN A   5      -9.098  -9.833 -12.971  0.00  0.00    -0.302 N 
ATOM    231  H   GLN A   5      -9.333 -10.372 -12.134  0.00  0.00    +0.150 HD
ATOM    232  O   SER A   4     -10.121  -9.287 -14.875  0.00  0.00    -0.274 OA
BRANCH 229 233
ATOM    233  CA  SER A   4     -10.482 -11.598 -14.224  0.00  0.00    +0.184 C 
BRANCH 233 235
ATOM    234  C   GLU A   3     -12.532 -11.163 -12.782  0.00  0.00    +0.234 C 
ATOM    235  N   SER A   4     -11.808 -11.913 -13.663  0.00  0.00    -0.301 N 
ATOM    236  H   SER A   4     -12.190 -12.823 -13.894  0.00  0.00    +0.150 HD
ATOM    237  O   GLU A   3     -12.022 -10.176 -12.279  0.00  0.00    -0.274 OA
BRANCH 234 238
ATOM    238  CA  GLU A   3     -14.048 -11.536 -12.627  0.00  0.00    +0.159 C 
BRANCH 238 240
ATOM    239  C   GLU A   2     -14.201 -10.899 -10.245  0.00  0.00    +0.234 C 
ATOM    240  N   GLU A   3     -14.708 -10.901 -11.516  0.00  0.00    -0.302 N 
ATOM    241  H   GLU A   3     -15.715 -10.802 -11.574  0.00  0.00    +0.150 HD
ATOM    242  O   GLU A   2     -13.202 -11.532  -9.921  0.00  0.00    -0.274 OA
BRANCH 239 243
ATOM    243  CA  GLU A   2     -14.995  -9.987  -9.293  0.00  0.00    +0.159 C 
BRANCH 243 245
ATOM    244  C   THR A   1     -14.750  -9.473  -6.881  0.00  0.00    +0.234 C 
ATOM    245  N   GLU A   2     -14.231  -9.961  -8.047  0.00  0.00    -0.302 N 
ATOM    246  H   GLU A   2     -13.281 -10.351  -8.044  0.00  0.00    +0.150 HD
ATOM    247  O   THR A   1     -15.892  -9.022  -6.839  0.00  0.00    -0.274 OA
BRANCH 244 248
ATOM    248  CA  THR A   1     -13.828  -9.603  -5.643  0.00  0.00    +0.162 C 
BRANCH 248 249
ATOM    249  N   THR A   1     -12.571  -8.830  -5.778  0.00  0.00    -0.302 N 
ATOM    250  H   THR A   1     -12.412  -8.208  -5.020  0.00  0.00    +0.150 HD
ATOM    251  C   THR A   1     -11.426  -9.350  -6.350  0.00  0.00    +0.234 C 
ATOM    252  O   THR A   1     -11.531 -10.416  -6.957  0.00  0.00    -0.274 OA
BRANCH 251 253
ATOM    253  CA  THR A   1     -10.011  -8.534  -6.228  0.00  0.00    +0.159 C 
BRANCH 253 254
ATOM    254  N   THR A   1      -9.750  -7.042  -5.553  0.00  0.00    -0.302 N 
ATOM    255  H   THR A   1      -9.234  -6.412  -6.152  0.00  0.00    +0.150 HD
ATOM    256  C   THR A   1      -9.966  -6.463  -4.308  0.00  0.00    +0.236 C 
ATOM    257  O   THR A   1     -10.842  -6.869  -3.537  0.00  0.00    -0.274 OA
BRANCH 256 258
ATOM    258  CA  THR A   1      -9.114  -5.280  -3.801  0.00  0.00    +0.184 C 
BRANCH 258 259
ATOM    259  N   THR A   1      -7.649  -5.597  -3.741  0.00  0.00    -0.301 N 
ATOM    260  H   THR A   1      -7.463  -5.425  -2.756  0.00  0.00    +0.150 HD
ATOM    261  C   THR A   1      -6.628  -5.258  -4.566  0.00  0.00    +0.234 C 
ATOM    262  O   THR A   1      -6.633  -5.790  -5.677  0.00  0.00    -0.274 OA
BRANCH 261 263
ATOM    263  CA  THR A   1      -5.175  -4.635  -4.012  0.00  0.00    +0.165 C 
BRANCH 263 264
ATOM    264  N   THR A   1      -4.471  -4.662  -5.246  0.00  0.00    -0.302 N 
ATOM    265  H   THR A   1      -4.833  -5.368  -5.878  0.00  0.00    +0.150 HD
ATOM    266  C   THR A   1      -3.139  -4.443  -5.329  0.00  0.00    +0.234 C 
ATOM    267  O   THR A   1      -2.390  -4.173  -4.400  0.00  0.00    -0.274 OA
BRANCH 266 268
ATOM    268  CA  THR A   1      -2.684  -4.570  -6.746  0.00  0.00    +0.162 C 
BRANCH 268 269
ATOM    269  N   THR A   1      -2.443  -5.963  -7.085  0.00  0.00    -0.302 N 
ATOM    270  H   THR A   1      -3.075  -6.711  -6.805  0.00  0.00    +0.150 HD
ATOM    271  C   THR A   1      -1.128  -6.249  -7.322  0.00  0.00    +0.234 C 
ATOM    272  O   THR A   1      -0.301  -5.336  -7.297  0.00  0.00    -0.274 OA
BRANCH 271 273
ATOM    273  CA  THR A   1      -0.696  -7.678  -7.650  0.00  0.00    +0.159 C 
BRANCH 273 274
ATOM    274  N   THR A   1      -1.771  -8.669  -7.627  0.00  0.00    -0.302 N 
ATOM    275  H   THR A   1      -2.604  -8.506  -8.193  0.00  0.00    +0.150 HD
ATOM    276  C   THR A   1      -1.812  -9.675  -6.687  0.00  0.00    +0.236 C 
ATOM    277  O   THR A   1      -0.992  -9.773  -5.772  0.00  0.00    -0.274 OA
BRANCH 276 278
ATOM    278  CA  THR A   1      -2.917 -10.740  -6.835  0.00  0.00    +0.184 C 
BRANCH 278 279
ATOM    279  N   THR A   1      -3.543 -10.956  -5.518  0.00  0.00    -0.300 N 
ATOM    280  H   THR A   1      -2.848 -10.988  -4.774  0.00  0.00    +0.150 HD
ATOM    281  C   THR A   1      -4.784 -10.528  -5.097  0.00  0.00    +0.237 C 
ATOM    282  O   THR A   1      -5.556  -9.896  -5.811  0.00  0.00    -0.274 OA
BRANCH 281 283
ATOM    283  CA  THR A   1      -5.112 -10.944  -3.640  0.00  0.00    +0.187 C 
BRANCH 283 284
ATOM    284  N   THR A   1      -5.487  -9.810  -2.749  0.00  0.00    -0.301 N 
ATOM    285  H   THR A   1      -6.353  -9.979  -2.273  0.00  0.00    +0.150 HD
ATOM    286  C   UNK A   0      -4.899  -8.564  -2.584  0.00  0.00    +0.233 C 
ATOM    287  O   UNK A   0      -4.014  -8.195  -3.356  0.00  0.00    -0.274 OA
BRANCH 286 288
ATOM    288  C   UNK A   0      -5.504  -7.573  -1.378  0.00  0.00    +0.162 C 
BRANCH 288 289
ATOM    289  N   UNK A   0      -5.782  -6.191  -1.898  0.00  0.00    -0.228 NA
ATOM    290  H   UNK A   0      -6.278  -6.402  -2.763  0.00  0.00    +0.145 HD
BRANCH 289 291
ATOM    291  N   UNK A   0      -6.438  -5.106  -0.994  0.00  0.00    -0.250 N 
ATOM    292  H   UNK A   0      -5.828  -4.880  -0.218  0.00  0.00    +0.169 HD
ATOM    293  C   UNK A   0      -7.068  -3.883  -1.458  0.00  0.00    +0.223 C 
ATOM    294  C   UNK A   0      -7.251  -2.714  -0.558  0.00  0.00    +0.110 C 
ATOM    295  O   UNK A   0      -7.353  -3.688  -2.625  0.00  0.00    -0.275 OA
ENDBRANCH 289 291
ENDBRANCH 288 289
BRANCH 288 296
ATOM    296  C   UNK A   0      -6.764  -8.076  -0.669  0.00  0.00    +0.064 C 
BRANCH 296 297
ATOM    297  C   UNK A   0      -7.937  -8.462  -1.506  0.00  0.00    -0.045 A 
ATOM    298  C   UNK A   0      -9.185  -8.723  -0.913  0.00  0.00    +0.007 A 
ATOM    299  C   UNK A   0     -10.269  -9.158  -1.654  0.00  0.00    +0.045 A 
ATOM    300  C   UNK A   0     -10.086  -9.336  -2.984  0.00  0.00    +0.117 A 
ATOM    301  C   UNK A   0      -8.885  -8.988  -3.542  0.00  0.00    +0.045 A 
ATOM    302  C   UNK A   0      -7.848  -8.476  -2.866  0.00  0.00    +0.007 A 
BRANCH 300 303
ATOM    303  O   UNK A   0     -11.200  -9.247  -3.737  0.00  0.00    -0.507 OA
ATOM    304  H   UNK A   0     -11.216  -8.261  -3.836  0.00  0.00    +0.292 HD
ENDBRANCH 300 303
ENDBRANCH 296 297
ENDBRANCH 288 296
ENDBRANCH 286 288
ENDBRANCH 283 284
BRANCH 283 305
ATOM    305  CB  THR A   1      -6.277 -12.004  -3.630  0.00  0.00    +0.141 C 
ATOM    306  CG2 THR A   1      -5.990 -13.304  -4.384  0.00  0.00    +0.040 C 
BRANCH 305 307
ATOM    307  OG1 THR A   1      -6.527 -12.413  -2.271  0.00  0.00    -0.390 OA
ATOM    308  HG1 THR A   1      -6.940 -11.680  -1.788  0.00  0.00    +0.210 HD
ENDBRANCH 305 307
ENDBRANCH 283 305
ENDBRANCH 281 283
ENDBRANCH 278 279
BRANCH 278 309
ATOM    309  CB  THR A   1      -3.817 -10.570  -8.062  0.00  0.00    +0.187 C 
BRANCH 309 310
ATOM    310  O   THR A   1      -4.475  -9.301  -8.079  0.00  0.00    -0.393 OA
ATOM    311  H   THR A   1      -5.140  -9.356  -7.351  0.00  0.00    +0.209 HD
ENDBRANCH 309 310
ENDBRANCH 278 309
ENDBRANCH 276 278
ENDBRANCH 273 274
BRANCH 273 312
ATOM    312  CB  THR A   1       0.062  -7.698  -9.004  0.00  0.00    +0.034 C 
BRANCH 312 313
ATOM    313  CG  THR A   1       1.173  -6.624  -9.157  0.00  0.00    -0.015 C 
ATOM    314  CD2 THR A   1       1.814  -6.621 -10.538  0.00  0.00    +0.007 C 
ATOM    315  CD1 THR A   1       2.232  -6.718  -8.053  0.00  0.00    +0.007 C 
ENDBRANCH 312 313
ENDBRANCH 273 312
ENDBRANCH 271 273
ENDBRANCH 268 269
BRANCH 268 316
ATOM    316  CB  THR A   1      -3.497  -3.799  -7.799  0.00  0.00    +0.015 C 
ATOM    317  CG2 THR A   1      -4.866  -4.386  -8.138  0.00  0.00    +0.010 C 
BRANCH 316 318
ATOM    318  CG1 THR A   1      -3.613  -2.329  -7.347  0.00  0.00    +0.002 C 
ATOM    319  CD1 THR A   1      -4.324  -1.442  -8.343  0.00  0.00    +0.004 C 
ENDBRANCH 316 318
ENDBRANCH 268 316
ENDBRANCH 266 268
ENDBRANCH 263 264
BRANCH 263 320
ATOM    320  CB  THR A   1      -4.809  -3.368  -3.166  0.00  0.00    +0.086 C 
BRANCH 320 321
ATOM    321  CG  THR A   1      -5.087  -2.015  -3.721  0.00  0.00    +0.038 A 
ATOM    322  ND1 THR A   1      -4.051  -1.167  -4.027  0.00  0.00    -0.348 N 
ATOM    323  HD1 THR A   1      -3.067  -1.402  -3.982  0.00  0.00    +0.166 HD
ATOM    324  CE1 THR A   1      -4.587   0.006  -4.464  0.00  0.00    +0.196 A 
ATOM    325  NE2 THR A   1      -5.898  -0.022  -4.431  0.00  0.00    -0.244 NA
ATOM    326  CD2 THR A   1      -6.220  -1.263  -3.946  0.00  0.00    +0.133 A 
ENDBRANCH 320 321
ENDBRANCH 263 320
ENDBRANCH 261 263
ENDBRANCH 258 259
BRANCH 258 327
ATOM    327  CB  THR A   1      -9.617  -3.830  -4.043  0.00  0.00    +0.187 C 
BRANCH 327 328
ATOM    328  O   THR A   1     -11.004  -3.745  -3.838  0.00  0.00    -0.393 OA
ATOM    329  H   THR A   1     -11.410  -3.263  -4.588  0.00  0.00    +0.209 HD
ENDBRANCH 327 328
ENDBRANCH 258 327
ENDBRANCH 256 258
ENDBRANCH 253 254
BRANCH 253 330
ATOM    330  CB  THR A   1      -8.671  -9.484  -6.447  0.00  0.00    +0.034 C 
BRANCH 330 331
ATOM    331  CG  THR A   1      -8.748 -10.780  -7.269  0.00  0.00    -0.015 C 
ATOM    332  CD2 THR A   1      -7.518 -11.651  -7.155  0.00  0.00    +0.007 C 
ATOM    333  CD1 THR A   1      -8.862 -10.459  -8.702  0.00  0.00    +0.007 C 
ENDBRANCH 330 331
ENDBRANCH 253 330
ENDBRANCH 251 253
ENDBRANCH 248 249
BRANCH 248 334
ATOM    334  CB  THR A   1     -14.582  -9.279  -4.311  0.00  0.00    +0.015 C 
ATOM    335  CG2 THR A   1     -15.147  -7.873  -4.208  0.00  0.00    +0.010 C 
BRANCH 334 337
ATOM    336  CD1 THR A   1     -15.318 -11.677  -4.032  0.00  0.00    +0.004 C 
ATOM    337  CG1 THR A   1     -15.743 -10.227  -4.006  0.00  0.00    +0.002 C 
ENDBRANCH 334 337
ENDBRANCH 248 334
ENDBRANCH 244 248
ENDBRANCH 243 245
BRANCH 243 338
ATOM    338  CB  GLU A   2     -15.169  -8.551  -9.853  0.00  0.00    +0.043 C 
BRANCH 338 339
ATOM    339  CG  GLU A   2     -15.856  -8.405 -11.187  0.00  0.00    +0.123 C 
BRANCH 339 340
ATOM    340  CD  GLU A   2     -16.398  -7.443 -12.200  0.00  0.00    +0.305 C 
ATOM    341  OE1 GLU A   2     -17.092  -8.055 -12.955  0.00  0.00    -0.251 OA
BRANCH 340 342
ATOM    342  OE2 GLU A   2     -15.938  -6.383 -12.741  0.00  0.00    -0.481 OA
ATOM    343  HE2 GLU A   2     -15.411  -5.605 -12.758  0.00  0.00    +0.295 HD
ENDBRANCH 340 342
ENDBRANCH 339 340
ENDBRANCH 338 339
ENDBRANCH 243 338
ENDBRANCH 239 243
ENDBRANCH 238 240
BRANCH 238 344
ATOM    344  CB  GLU A   3     -14.810 -11.141 -13.918  0.00  0.00    +0.043 C 
BRANCH 344 345
ATOM    345  CG  GLU A   3     -14.108 -11.754 -15.113  0.00  0.00    +0.123 C 
BRANCH 345 346
ATOM    346  CD  GLU A   3     -14.792 -12.208 -16.328  0.00  0.00    +0.305 C 
ATOM    347  OE1 GLU A   3     -15.686 -13.028 -16.245  0.00  0.00    -0.251 OA
BRANCH 346 348
ATOM    348  OE2 GLU A   3     -14.237 -11.865 -17.499  0.00  0.00    -0.481 OA
ATOM    349  HE2 GLU A   3     -13.341 -11.472 -17.441  0.00  0.00    +0.295 HD
ENDBRANCH 346 348
ENDBRANCH 345 346
ENDBRANCH 344 345
ENDBRANCH 238 344
ENDBRANCH 234 238
ENDBRANCH 233 235
BRANCH 233 350
ATOM    350  CB  SER A   4     -10.618 -11.816 -15.772  0.00  0.00    +0.187 C 
BRANCH 350 351
ATOM    351  OG  SER A   4     -11.283 -13.044 -16.111  0.00  0.00    -0.393 OA
ATOM    352  H   SER A   4     -10.940 -13.746 -15.535  0.00  0.00    +0.209 HD
ENDBRANCH 350 351
ENDBRANCH 233 350
ENDBRANCH 229 233
ENDBRANCH 228 230
BRANCH 228 353
ATOM    353  CB  GLN A   5      -9.181  -7.220 -13.221  0.00  0.00    +0.041 C 
BRANCH 353 354
ATOM    354  CG  GLN A   5     -10.667  -7.190 -12.974  0.00  0.00    +0.098 C 
BRANCH 354 355
ATOM    355  CD  GLN A   5     -11.177  -7.024 -11.600  0.00  0.00    +0.211 C 
ATOM    356  NE2 GLN A   5     -11.962  -8.032 -11.133  0.00  0.00    -0.329 N 
ATOM    357 HE21 GLN A   5     -11.979  -8.180 -10.121  0.00  0.00    +0.145 HD
ATOM    358 HE22 GLN A   5     -11.816  -8.964 -11.526  0.00  0.00    +0.145 HD
ATOM    359  OE1 GLN A   5     -11.010  -5.976 -10.990  0.00  0.00    -0.276 OA
ENDBRANCH 354 355
ENDBRANCH 353 354
ENDBRANCH 228 353
ENDBRANCH 224 228
ENDBRANCH 223 225
BRANCH 223 360
ATOM    360  CB  ASN A   6      -9.044  -5.012  -9.198  0.00  0.00    +0.127 C 
BRANCH 360 361
ATOM    361  CG  ASN A   6      -9.180  -4.418  -7.841  0.00  0.00    +0.213 C 
ATOM    362  ND2 ASN A   6      -8.108  -4.600  -7.067  0.00  0.00    -0.329 N 
ATOM    363 HD21 ASN A   6      -8.131  -4.333  -6.100  0.00  0.00    +0.145 HD
ATOM    364 HD22 ASN A   6      -7.324  -5.213  -7.273  0.00  0.00    +0.145 HD
ATOM    365  OD1 ASN A   6     -10.200  -3.904  -7.401  0.00  0.00    -0.276 OA
ENDBRANCH 360 361
ENDBRANCH 223 360
ENDBRANCH 219 223
ENDBRANCH 218 220
BRANCH 218 366
ATOM    366  CB  GLN A   7     -13.443  -5.716  -6.338  0.00  0.00    +0.041 C 
BRANCH 366 367
ATOM    367  CG  GLN A   7     -12.718  -5.566  -5.048  0.00  0.00    +0.098 C 
BRANCH 367 368
ATOM    368  CD  GLN A   7     -13.455  -4.660  -4.064  0.00  0.00    +0.211 C 
ATOM    369  NE2 GLN A   7     -13.984  -5.242  -2.948  0.00  0.00    -0.329 N 
ATOM    370 HE21 GLN A   7     -14.413  -4.635  -2.264  0.00  0.00    +0.145 HD
ATOM    371 HE22 GLN A   7     -13.805  -6.197  -2.673  0.00  0.00    +0.145 HD
ATOM    372  OE1 GLN A   7     -13.573  -3.452  -4.250  0.00  0.00    -0.276 OA
ENDBRANCH 367 368
ENDBRANCH 366 367
ENDBRANCH 218 366
ENDBRANCH 214 218
ENDBRANCH 213 215
BRANCH 213 373
ATOM    373  CB  GLN A   8     -15.298  -4.472 -10.788  0.00  0.00    +0.041 C 
BRANCH 373 374
ATOM    374  CG  GLN A   8     -16.537  -4.108 -11.702  0.00  0.00    +0.098 C 
BRANCH 374 375
ATOM    375  CD  GLN A   8     -17.749  -5.082 -11.742  0.00  0.00    +0.211 C 
ATOM    376  NE2 GLN A   8     -18.242  -5.353 -13.006  0.00  0.00    -0.329 N 
ATOM    377 HE21 GLN A   8     -18.760  -6.246 -13.037  0.00  0.00    +0.145 HD
ATOM    378 HE22 GLN A   8     -17.546  -5.430 -13.741  0.00  0.00    +0.145 HD
ATOM    379  OE1 GLN A   8     -18.165  -5.699 -10.770  0.00  0.00    -0.276 OA
ENDBRANCH 374 375
ENDBRANCH 373 374
ENDBRANCH 213 373
ENDBRANCH 209 213
ENDBRANCH 208 210
BRANCH 208 380
ATOM    380  CB  GLU A   9     -12.413  -7.873 -15.464  0.00  0.00    +0.043 C 
BRANCH 380 381
ATOM    381  CG  GLU A   9     -11.937  -7.854 -16.927  0.00  0.00    +0.123 C 
BRANCH 381 382
ATOM    382  CD  GLU A   9     -10.576  -8.467 -17.247  0.00  0.00    +0.305 C 
ATOM    383  OE1 GLU A   9     -10.390  -9.435 -17.968  0.00  0.00    -0.251 OA
BRANCH 382 384
ATOM    384  OE2 GLU A   9      -9.554  -7.813 -16.656  0.00  0.00    -0.481 OA
ATOM    385  HE2 GLU A   9      -9.758  -7.942 -15.702  0.00  0.00    +0.295 HD
ENDBRANCH 382 384
ENDBRANCH 381 382
ENDBRANCH 380 381
ENDBRANCH 208 380
ENDBRANCH 204 208
ENDBRANCH 203 205
BRANCH 203 386
ATOM    386  CB  LYS A  10     -16.935  -9.732 -15.891  0.00  0.00    +0.032 C 
BRANCH 386 387
ATOM    387  CG  LYS A  10     -17.998 -10.388 -16.650  0.00  0.00    +0.003 C 
BRANCH 387 388
ATOM    388  CD  LYS A  10     -17.966 -11.817 -16.804  0.00  0.00    +0.015 C 
BRANCH 388 389
ATOM    389  CE  LYS A  10     -19.075 -11.950 -17.761  0.00  0.00    +0.077 C 
BRANCH 389 390
ATOM    390  NZ  LYS A  10     -18.973 -13.323 -17.806  0.00  0.00    -0.330 NA
ATOM    391  HZ1 LYS A  10     -19.873 -13.588 -18.149  0.00  0.00    +0.118 HD
ATOM    392  HZ2 LYS A  10     -18.150 -13.658 -18.299  0.00  0.00    +0.118 HD
ENDBRANCH 389 390
ENDBRANCH 388 389
ENDBRANCH 387 388
ENDBRANCH 386 387
ENDBRANCH 203 386
ENDBRANCH 199 203
ENDBRANCH   1 200
BRANCH   1 393
ATOM    393  CB  ASN A  11     -21.556  -7.199 -15.223  0.00  0.00    +0.127 C 
BRANCH 393 394
ATOM    394  CG  ASN A  11     -22.905  -7.059 -14.610  0.00  0.00    +0.213 C 
ATOM    395  ND2 ASN A  11     -23.637  -6.048 -15.165  0.00  0.00    -0.329 N 
ATOM    396 HD21 ASN A  11     -24.588  -5.977 -14.836  0.00  0.00    +0.145 HD
ATOM    397 HD22 ASN A  11     -23.476  -5.822 -16.138  0.00  0.00    +0.145 HD
ATOM    398  OD1 ASN A  11     -23.306  -7.721 -13.666  0.00  0.00    -0.276 OA
ENDBRANCH 393 394
ENDBRANCH   1 393
TORSDOF 170
