REMARK  Name = 
REMARK  11 active torsions:
REMARK  status: ('A' for Active; 'I' for Inactive)
REMARK    1  A    between atoms: C_1  and  C_2
REMARK    2  A    between atoms: C_2  and  C_3
REMARK    3  A    between atoms: C_2  and  C_4
REMARK    4  A    between atoms: C_4  and  C_6
REMARK    5  A    between atoms: C_4  and  N_24
REMARK    6  A    between atoms: C_6  and  O_8
REMARK    7  A    between atoms: O_8  and  C_9
REMARK    8  A    between atoms: C_9  and  C_10
REMARK    9  A    between atoms: C_10  and  O_11
REMARK   10  A    between atoms: O_11  and  C_12
REMARK   11  A    between atoms: C_12  and  N_13
REMARK                            x       y       z     vdW  Elec       q    Type
REMARK                         _______ _______ _______ _____ _____    ______ ____
ROOT
ATOM      1  C   UNL     1      -4.673  -4.044   2.667  0.00  0.00    +0.400 C 
ENDROOT
BRANCH   1   2
ATOM      2  N   UNL     1      -5.011  -5.273   3.341  0.00  0.00    -0.154 N 
ATOM      3  C   UNL     1      -4.685  -6.545   2.949  0.00  0.00    +0.338 C 
ATOM      4  N   UNL     1      -4.077  -7.034   1.924  0.00  0.00    +0.023 NA
ATOM      5  C   UNL     1      -3.777  -8.376   1.998  0.00  0.00    +0.450 C 
ATOM      6  N   UNL     1      -3.587  -9.051   0.839  0.00  0.00    -0.241 N 
ATOM      7  H   UNL     1      -3.676 -10.053   0.957  0.00  0.00    +0.242 HD
ATOM      8  H   UNL     1      -4.100  -8.680   0.052  0.00  0.00    +0.242 HD
ATOM      9  N   UNL     1      -3.675  -9.054   3.104  0.00  0.00    +0.008 NA
ATOM     10  C   UNL     1      -3.981  -8.407   4.278  0.00  0.00    +0.347 C 
ATOM     11  O   UNL     1      -3.464  -8.685   5.352  0.00  0.00    -0.251 OA
ATOM     12  C   UNL     1      -5.110  -7.426   4.102  0.00  0.00    +0.329 C 
ATOM     13  N   UNL     1      -5.386  -6.472   5.241  0.00  0.00    -0.228 NA
ATOM     14  C   UNL     1      -5.365  -5.304   4.655  0.00  0.00    +0.304 C 
ENDBRANCH   1   2
BRANCH   1  15
ATOM     15  O   UNL     1      -5.858  -3.263   2.450  0.00  0.00    -0.338 OA
BRANCH  15  16
ATOM     16  C   UNL     1      -5.558  -1.988   1.861  0.00  0.00    +0.205 C 
BRANCH  16  17
ATOM     17  C   UNL     1      -6.838  -1.192   1.565  0.00  0.00    +0.260 C 
BRANCH  17  18
ATOM     18  O   UNL     1      -7.698  -1.830   0.600  0.00  0.00    -0.461 OA
BRANCH  18  19
ATOM     19  C   UNL     1      -7.361  -1.672  -0.713  0.00  0.00    +0.324 C 
ATOM     20  O   UNL     1      -6.343  -1.111  -1.103  0.00  0.00    -0.249 OA
BRANCH  19  21
ATOM     21  C   UNL     1      -8.419  -2.342  -1.631  0.00  0.00    +0.163 C 
BRANCH  21  23
ATOM     22  C   UNL     1      -8.100  -4.619  -0.535  0.00  0.00    +0.009 C 
ATOM     23  C   UNL     1      -8.083  -3.839  -1.856  0.00  0.00    +0.010 C 
ATOM     24  C   UNL     1      -9.046  -4.533  -2.830  0.00  0.00    +0.009 C 
ENDBRANCH  21  23
BRANCH  21  25
ATOM     25  N   UNL     1      -8.480  -1.587  -2.906  0.00  0.00    -0.318 NA
ATOM     26  H   UNL     1      -7.554  -1.598  -3.339  0.00  0.00    +0.119 HD
ATOM     27  H   UNL     1      -9.117  -2.035  -3.559  0.00  0.00    +0.119 HD
ENDBRANCH  21  25
ENDBRANCH  19  21
ENDBRANCH  18  19
ENDBRANCH  17  18
ENDBRANCH  16  17
ENDBRANCH  15  16
ENDBRANCH   1  15
TORSDOF 9
