REMARK  Name = 
REMARK  7 active torsions:
REMARK  status: ('A' for Active; 'I' for Inactive)
REMARK    1  A    between atoms: N_11  and  C_12
REMARK    2  A    between atoms: C_12  and  O_13
REMARK    3  A    between atoms: O_13  and  C_14
REMARK    4  A    between atoms: C_14  and  C_15
REMARK    5  A    between atoms: C_14  and  C_17
REMARK    6  A    between atoms: C_15  and  O_16
REMARK    7  A    between atoms: C_17  and  O_18
REMARK                            x       y       z     vdW  Elec       q    Type
REMARK                         _______ _______ _______ _____ _____    ______ ____
ROOT
ATOM      1  C   UNL     1       0.776  -1.611  -0.045  0.00  0.00    +0.304 C 
ATOM      2  N   UNL     1       0.945  -0.286   0.229  0.00  0.00    -0.154 N 
ATOM      3  C   UNL     1       2.029   0.178  -0.480  0.00  0.00    +0.338 C 
ATOM      4  N   UNL     1       2.732   1.259  -0.523  0.00  0.00    +0.023 NA
ATOM      5  C   UNL     1       3.933   1.183  -1.208  0.00  0.00    +0.450 C 
ATOM      6  N   UNL     1       4.574   2.308  -1.612  0.00  0.00    -0.241 N 
ATOM      7  H   UNL     1       5.394   2.065  -2.160  0.00  0.00    +0.242 HD
ATOM      8  H   UNL     1       3.990   2.960  -2.116  0.00  0.00    +0.242 HD
ATOM      9  N   UNL     1       4.558   0.078  -1.489  0.00  0.00    +0.008 NA
ATOM     10  C   UNL     1       3.925  -1.108  -1.212  0.00  0.00    +0.347 C 
ATOM     11  O   UNL     1       4.524  -2.150  -0.990  0.00  0.00    -0.251 OA
ATOM     12  C   UNL     1       2.434  -1.002  -1.357  0.00  0.00    +0.329 C 
ATOM     13  N   UNL     1       1.613  -2.165  -0.874  0.00  0.00    -0.228 NA
ENDROOT
BRANCH   2  14
ATOM     14  C   UNL     1      -0.085   0.481   0.894  0.00  0.00    +0.400 C 
BRANCH  14  15
ATOM     15  O   UNL     1      -0.688  -0.185   2.030  0.00  0.00    -0.334 OA
BRANCH  15  16
ATOM     16  C   UNL     1       0.096  -0.273   3.239  0.00  0.00    +0.173 C 
BRANCH  16  17
ATOM     17  C   UNL     1      -0.693  -1.079   4.306  0.00  0.00    +0.189 C 
BRANCH  17  18
ATOM     18  O   UNL     1      -0.946  -2.419   3.900  0.00  0.00    -0.392 OA
ATOM     19  H   UNL     1      -1.866  -2.452   3.584  0.00  0.00    +0.210 HD
ENDBRANCH  17  18
ENDBRANCH  16  17
BRANCH  16  20
ATOM     20  C   UNL     1       0.375   1.100   3.874  0.00  0.00    +0.189 C 
BRANCH  20  21
ATOM     21  O   UNL     1       1.205   1.924   3.069  0.00  0.00    -0.392 OA
ATOM     22  H   UNL     1       2.090   1.521   3.027  0.00  0.00    +0.210 HD
ENDBRANCH  20  21
ENDBRANCH  16  20
ENDBRANCH  15  16
ENDBRANCH  14  15
ENDBRANCH   2  14
TORSDOF 7
