REMARK  Name = 
REMARK  7 active torsions:
REMARK  status: ('A' for Active; 'I' for Inactive)
REMARK    1  A    between atoms: N_11  and  C_12
REMARK    2  A    between atoms: C_12  and  O_13
REMARK    3  A    between atoms: O_13  and  C_14
REMARK    4  A    between atoms: C_14  and  C_15
REMARK    5  A    between atoms: C_14  and  C_17
REMARK    6  A    between atoms: C_15  and  O_16
REMARK    7  A    between atoms: C_17  and  O_18
REMARK                            x       y       z     vdW  Elec       q    Type
REMARK                         _______ _______ _______ _____ _____    ______ ____
ROOT
ATOM      1  C   UNL     1       1.157  -1.286  -0.369  0.00  0.00    +0.304 C 
ATOM      2  N   UNL     1       0.841  -0.130   0.280  0.00  0.00    -0.154 N 
ATOM      3  C   UNL     1       1.843   0.795   0.058  0.00  0.00    +0.338 C 
ATOM      4  N   UNL     1       2.141   1.971   0.492  0.00  0.00    +0.023 NA
ATOM      5  C   UNL     1       3.395   2.436   0.170  0.00  0.00    +0.450 C 
ATOM      6  N   UNL     1       3.637   3.775   0.169  0.00  0.00    -0.241 N 
ATOM      7  H   UNL     1       4.523   3.995  -0.280  0.00  0.00    +0.242 HD
ATOM      8  H   UNL     1       2.870   4.343  -0.165  0.00  0.00    +0.242 HD
ATOM      9  N   UNL     1       4.393   1.674  -0.164  0.00  0.00    +0.008 NA
ATOM     10  C   UNL     1       4.143   0.331  -0.326  0.00  0.00    +0.347 C 
ATOM     11  O   UNL     1       4.955  -0.551  -0.086  0.00  0.00    -0.251 OA
ATOM     12  C   UNL     1       2.779   0.101  -0.914  0.00  0.00    +0.329 C 
ATOM     13  N   UNL     1       2.288  -1.318  -1.017  0.00  0.00    -0.228 NA
ENDROOT
BRANCH   2  14
ATOM     14  C   UNL     1      -0.405   0.049   0.986  0.00  0.00    +0.400 C 
BRANCH  14  15
ATOM     15  O   UNL     1      -0.893  -1.147   1.637  0.00  0.00    -0.334 OA
BRANCH  15  16
ATOM     16  C   UNL     1      -0.122  -1.645   2.753  0.00  0.00    +0.173 C 
BRANCH  16  17
ATOM     17  C   UNL     1      -0.739  -2.978   3.242  0.00  0.00    +0.189 C 
BRANCH  17  18
ATOM     18  O   UNL     1      -0.699  -3.990   2.241  0.00  0.00    -0.392 OA
ATOM     19  H   UNL     1      -1.528  -3.921   1.736  0.00  0.00    +0.210 HD
ENDBRANCH  17  18
ENDBRANCH  16  17
BRANCH  16  20
ATOM     20  C   UNL     1      -0.127  -0.689   3.955  0.00  0.00    +0.189 C 
BRANCH  20  21
ATOM     21  O   UNL     1       0.552   0.530   3.684  0.00  0.00    -0.392 OA
ATOM     22  H   UNL     1       1.495   0.331   3.541  0.00  0.00    +0.210 HD
ENDBRANCH  20  21
ENDBRANCH  16  20
ENDBRANCH  15  16
ENDBRANCH  14  15
ENDBRANCH   2  14
TORSDOF 7
