REMARK  Name = 
REMARK  11 active torsions:
REMARK  status: ('A' for Active; 'I' for Inactive)
REMARK    1  A    between atoms: C_1  and  C_2
REMARK    2  A    between atoms: C_2  and  C_3
REMARK    3  A    between atoms: C_2  and  C_4
REMARK    4  A    between atoms: C_4  and  C_6
REMARK    5  A    between atoms: C_4  and  N_24
REMARK    6  A    between atoms: C_6  and  O_8
REMARK    7  A    between atoms: O_8  and  C_9
REMARK    8  A    between atoms: C_9  and  C_10
REMARK    9  A    between atoms: C_10  and  O_11
REMARK   10  A    between atoms: O_11  and  C_12
REMARK   11  A    between atoms: C_12  and  N_13
REMARK                            x       y       z     vdW  Elec       q    Type
REMARK                         _______ _______ _______ _____ _____    ______ ____
ROOT
ATOM      1  C   UNL     1      -5.563   1.613  -5.213  0.00  0.00    +0.400 C 
ENDROOT
BRANCH   1   2
ATOM      2  N   UNL     1      -6.101   1.842  -6.542  0.00  0.00    -0.154 N 
ATOM      3  C   UNL     1      -6.015   2.964  -7.347  0.00  0.00    +0.338 C 
ATOM      4  N   UNL     1      -5.512   4.144  -7.239  0.00  0.00    +0.023 NA
ATOM      5  C   UNL     1      -5.470   4.893  -8.388  0.00  0.00    +0.450 C 
ATOM      6  N   UNL     1      -5.306   6.250  -8.341  0.00  0.00    -0.241 N 
ATOM      7  H   UNL     1      -5.203   6.594  -9.297  0.00  0.00    +0.242 HD
ATOM      8  H   UNL     1      -6.119   6.700  -7.943  0.00  0.00    +0.242 HD
ATOM      9  N   UNL     1      -5.554   4.429  -9.600  0.00  0.00    +0.008 NA
ATOM     10  C   UNL     1      -5.848   3.097  -9.763  0.00  0.00    +0.347 C 
ATOM     11  O   UNL     1      -5.592   2.491 -10.795  0.00  0.00    -0.251 OA
ATOM     12  C   UNL     1      -6.681   2.535  -8.646  0.00  0.00    +0.329 C 
ATOM     13  N   UNL     1      -6.768   1.033  -8.568  0.00  0.00    -0.228 NA
ATOM     14  C   UNL     1      -6.478   0.786  -7.323  0.00  0.00    +0.304 C 
ENDBRANCH   1   2
BRANCH   1  15
ATOM     15  O   UNL     1      -6.552   0.970  -4.373  0.00  0.00    -0.338 OA
BRANCH  15  16
ATOM     16  C   UNL     1      -5.991   0.397  -3.176  0.00  0.00    +0.205 C 
BRANCH  16  17
ATOM     17  C   UNL     1      -7.069  -0.103  -2.189  0.00  0.00    +0.260 C 
BRANCH  17  18
ATOM     18  O   UNL     1      -7.840   0.969  -1.600  0.00  0.00    -0.461 OA
BRANCH  18  19
ATOM     19  C   UNL     1      -7.342   1.493  -0.441  0.00  0.00    +0.324 C 
ATOM     20  O   UNL     1      -6.235   1.218   0.021  0.00  0.00    -0.249 OA
BRANCH  19  21
ATOM     21  C   UNL     1      -8.324   2.511   0.200  0.00  0.00    +0.163 C 
BRANCH  21  23
ATOM     22  C   UNL     1      -7.688   4.286  -1.492  0.00  0.00    +0.009 C 
ATOM     23  C   UNL     1      -7.796   3.955   0.001  0.00  0.00    +0.010 C 
ATOM     24  C   UNL     1      -8.664   5.028   0.676  0.00  0.00    +0.009 C 
ENDBRANCH  21  23
BRANCH  21  25
ATOM     25  N   UNL     1      -8.471   2.175   1.637  0.00  0.00    -0.318 NA
ATOM     26  H   UNL     1      -7.549   2.218   2.077  0.00  0.00    +0.119 HD
ATOM     27  H   UNL     1      -9.047   2.870   2.107  0.00  0.00    +0.119 HD
ENDBRANCH  21  25
ENDBRANCH  19  21
ENDBRANCH  18  19
ENDBRANCH  17  18
ENDBRANCH  16  17
ENDBRANCH  15  16
ENDBRANCH   1  15
TORSDOF 9
