REMARK  Name = 
REMARK  18 active torsions:
REMARK  status: ('A' for Active; 'I' for Inactive)
REMARK    1  A    between atoms: C_1  and  C_2
REMARK    2  A    between atoms: C_2  and  C_3
REMARK    3  A    between atoms: C_3  and  C_4
REMARK    4  A    between atoms: C_4  and  C_5
REMARK    5  A    between atoms: C_4  and  N_13
REMARK    6  A    between atoms: C_5  and  C_7
REMARK    7  A    between atoms: N_9  and  C_10
REMARK    8  A    between atoms: C_14  and  C_16
REMARK    9  A    between atoms: C_27  and  C_29
REMARK   10  A    between atoms: C_29  and  C_30
REMARK   11  A    between atoms: C_29  and  N_34
REMARK   12  A    between atoms: C_30  and  C_31
REMARK   13  A    between atoms: C_30  and  C_32
REMARK   14  A    between atoms: C_30  and  C_33
REMARK   15  A    between atoms: C_35  and  C_37
REMARK   16  A    between atoms: C_37  and  C_39
REMARK   17  A    between atoms: C_37  and  N_45
REMARK   18  A    between atoms: C_46  and  C_48
REMARK                            x       y       z     vdW  Elec       q    Type
REMARK                         _______ _______ _______ _____ _____    ______ ____
ROOT
ATOM      1  C   UNL     1      13.992  -5.377   3.426  0.00  0.00    +0.165 C 
ATOM      2  N   UNL     1      12.745  -6.048   3.867  0.00  0.00    -0.288 N 
ATOM      3  C   UNL     1      11.614  -5.501   4.482  0.00  0.00    +0.237 C 
ATOM      4  O   UNL     1      11.077  -6.143   5.396  0.00  0.00    -0.274 OA
ATOM      5  C   UNL     1      13.089  -7.400   4.344  0.00  0.00    +0.112 C 
ATOM      6  C   UNL     1      14.525  -7.692   3.944  0.00  0.00    +0.012 C 
ATOM      7  C   UNL     1      15.588  -7.576   5.050  0.00  0.00    +0.005 C 
ATOM      8  C   UNL     1      16.682  -6.651   4.512  0.00  0.00    +0.001 C 
ATOM      9  C   UNL     1      16.366  -6.463   3.039  0.00  0.00    +0.006 C 
ATOM     10  C   UNL     1      14.852  -6.591   2.953  0.00  0.00    +0.023 C 
ENDROOT
BRANCH   1  13
ATOM     11  N   UNL     1      13.417  -4.581   1.125  0.00  0.00    -0.304 N 
ATOM     12  H   UNL     1      12.930  -5.469   1.038  0.00  0.00    +0.149 HD
ATOM     13  C   UNL     1      14.140  -4.364   2.278  0.00  0.00    +0.234 C 
ATOM     14  O   UNL     1      15.067  -3.552   2.313  0.00  0.00    -0.274 OA
BRANCH  11  15
ATOM     15  C   UNL     1      13.719  -3.848  -0.126  0.00  0.00    +0.149 C 
BRANCH  15  16
ATOM     16  C   UNL     1      14.933  -4.418  -0.892  0.00  0.00    +0.237 C 
ATOM     17  O   UNL     1      15.873  -3.763  -1.341  0.00  0.00    -0.285 OA
BRANCH  16  18
ATOM     18  C   UNL     1      14.841  -5.874  -1.345  0.00  0.00    +0.282 C 
ATOM     19  N   UNL     1      15.745  -6.184  -2.350  0.00  0.00    -0.306 N 
ATOM     20  H   UNL     1      16.347  -5.422  -2.657  0.00  0.00    +0.149 HD
ATOM     21  O   UNL     1      14.001  -6.624  -0.868  0.00  0.00    -0.267 OA
BRANCH  19  22
ATOM     22  C   UNL     1      15.799  -7.438  -3.033  0.00  0.00    +0.073 C 
ATOM     23  C   UNL     1      16.855  -8.455  -2.706  0.00  0.00    +0.024 C 
ATOM     24  C   UNL     1      16.909  -7.725  -4.014  0.00  0.00    +0.024 C 
ENDBRANCH  19  22
ENDBRANCH  16  18
ENDBRANCH  15  16
BRANCH  15  25
ATOM     25  C   UNL     1      13.820  -2.323   0.096  0.00  0.00    +0.030 C 
BRANCH  25  27
ATOM     26  C   UNL     1      13.919  -0.003  -0.850  0.00  0.00    +0.004 C 
ATOM     27  C   UNL     1      13.795  -1.484  -1.183  0.00  0.00    -0.001 C 
ENDBRANCH  25  27
ENDBRANCH  15  25
ENDBRANCH  11  15
ENDBRANCH   1  13
BRANCH   3  28
ATOM     28  C   UNL     1      10.990  -4.120   4.073  0.00  0.00    +0.164 C 
BRANCH  28  29
ATOM     29  N   UNL     1      11.445  -3.087   5.011  0.00  0.00    -0.302 N 
ATOM     30  H   UNL     1      11.755  -3.386   5.928  0.00  0.00    +0.150 HD
ATOM     31  C   UNL     1      11.564  -1.756   4.649  0.00  0.00    +0.234 C 
ATOM     32  O   UNL     1      11.250  -1.339   3.535  0.00  0.00    -0.274 OA
BRANCH  31  33
ATOM     33  C   UNL     1      12.129  -0.821   5.750  0.00  0.00    +0.162 C 
BRANCH  33  34
ATOM     34  C   UNL     1      11.032  -0.028   6.508  0.00  0.00    +0.018 C 
ATOM     35  C   UNL     1      11.646   0.976   7.512  0.00  0.00    +0.006 C 
ATOM     36  C   UNL     1      12.291   0.275   8.706  0.00  0.00    +0.000 C 
ATOM     37  C   UNL     1      11.275  -0.589   9.443  0.00  0.00    +0.000 C 
ATOM     38  C   UNL     1      10.586  -1.583   8.510  0.00  0.00    +0.000 C 
ATOM     39  C   UNL     1      10.019  -0.913   7.258  0.00  0.00    +0.006 C 
ENDBRANCH  33  34
BRANCH  33  40
ATOM     40  N   UNL     1      13.053   0.097   5.079  0.00  0.00    -0.298 N 
ATOM     41  H   UNL     1      12.702   0.951   4.648  0.00  0.00    +0.150 HD
ATOM     42  C   UNL     1      14.298  -0.331   4.679  0.00  0.00    +0.264 C 
ATOM     43  O   UNL     1      14.728  -1.449   4.940  0.00  0.00    -0.268 OA
BRANCH  42  44
ATOM     44  C   UNL     1      15.108   0.658   3.919  0.00  0.00    +0.143 A 
ATOM     45  C   UNL     1      16.384   0.306   3.498  0.00  0.00    +0.143 A 
ATOM     46  N   UNL     1      17.215   1.190   2.880  0.00  0.00    -0.259 NA
ATOM     47  C   UNL     1      16.707   2.425   2.685  0.00  0.00    +0.130 A 
ATOM     48  C   UNL     1      15.419   2.772   3.087  0.00  0.00    +0.131 A 
ATOM     49  N   UNL     1      14.586   1.906   3.717  0.00  0.00    -0.247 NA
ENDBRANCH  42  44
ENDBRANCH  33  40
ENDBRANCH  31  33
ENDBRANCH  28  29
BRANCH  28  50
ATOM     50  C   UNL     1       9.388  -4.202   4.002  0.00  0.00    -0.011 C 
ATOM     51  C   UNL     1       8.998  -5.298   2.988  0.00  0.00    +0.013 C 
ATOM     52  C   UNL     1       8.748  -2.885   3.495  0.00  0.00    +0.013 C 
ATOM     53  C   UNL     1       8.681  -4.502   5.349  0.00  0.00    +0.013 C 
ENDBRANCH  28  50
ENDBRANCH   3  28
TORSDOF 14
