REMARK  Name = 
REMARK  18 active torsions:
REMARK  status: ('A' for Active; 'I' for Inactive)
REMARK    1  A    between atoms: C_1  and  C_2
REMARK    2  A    between atoms: C_2  and  C_3
REMARK    3  A    between atoms: C_3  and  C_4
REMARK    4  A    between atoms: C_4  and  C_5
REMARK    5  A    between atoms: C_4  and  N_13
REMARK    6  A    between atoms: C_5  and  C_7
REMARK    7  A    between atoms: N_9  and  C_10
REMARK    8  A    between atoms: C_14  and  C_16
REMARK    9  A    between atoms: C_27  and  C_29
REMARK   10  A    between atoms: C_29  and  C_30
REMARK   11  A    between atoms: C_29  and  N_34
REMARK   12  A    between atoms: C_30  and  C_31
REMARK   13  A    between atoms: C_30  and  C_32
REMARK   14  A    between atoms: C_30  and  C_33
REMARK   15  A    between atoms: C_35  and  C_37
REMARK   16  A    between atoms: C_37  and  C_39
REMARK   17  A    between atoms: C_37  and  N_45
REMARK   18  A    between atoms: C_46  and  C_48
REMARK                            x       y       z     vdW  Elec       q    Type
REMARK                         _______ _______ _______ _____ _____    ______ ____
ROOT
ATOM      1  C   UNL     1      -3.231  -1.662   1.751  0.00  0.00    +0.165 C 
ATOM      2  N   UNL     1      -2.226  -0.542   1.830  0.00  0.00    -0.288 N 
ATOM      3  C   UNL     1      -1.374  -0.201   2.900  0.00  0.00    +0.237 C 
ATOM      4  O   UNL     1      -1.365   0.982   3.271  0.00  0.00    -0.274 OA
ATOM      5  C   UNL     1      -2.773   0.654   1.147  0.00  0.00    +0.112 C 
ATOM      6  C   UNL     1      -4.204   0.383   0.752  0.00  0.00    +0.012 C 
ATOM      7  C   UNL     1      -5.269   0.875   1.743  0.00  0.00    +0.005 C 
ATOM      8  C   UNL     1      -6.187  -0.310   2.008  0.00  0.00    +0.001 C 
ATOM      9  C   UNL     1      -5.767  -1.389   1.019  0.00  0.00    +0.006 C 
ATOM     10  C   UNL     1      -4.291  -1.132   0.716  0.00  0.00    +0.023 C 
ENDROOT
BRANCH   1  13
ATOM     11  N   UNL     1      -1.887  -3.552   0.605  0.00  0.00    -0.304 N 
ATOM     12  H   UNL     1      -1.104  -2.910   0.581  0.00  0.00    +0.149 HD
ATOM     13  C   UNL     1      -2.994  -3.173   1.328  0.00  0.00    +0.234 C 
ATOM     14  O   UNL     1      -3.904  -3.995   1.493  0.00  0.00    -0.274 OA
BRANCH  11  15
ATOM     15  C   UNL     1      -1.602  -5.001   0.290  0.00  0.00    +0.149 C 
BRANCH  15  16
ATOM     16  C   UNL     1      -2.673  -5.765  -0.575  0.00  0.00    +0.237 C 
ATOM     17  O   UNL     1      -2.944  -6.964  -0.434  0.00  0.00    -0.285 OA
BRANCH  16  18
ATOM     18  C   UNL     1      -3.199  -5.056  -1.821  0.00  0.00    +0.282 C 
ATOM     19  N   UNL     1      -4.070  -5.813  -2.602  0.00  0.00    -0.306 N 
ATOM     20  H   UNL     1      -4.324  -6.732  -2.253  0.00  0.00    +0.149 HD
ATOM     21  O   UNL     1      -2.830  -3.928  -2.101  0.00  0.00    -0.267 OA
BRANCH  19  22
ATOM     22  C   UNL     1      -4.746  -5.264  -3.739  0.00  0.00    +0.073 C 
ATOM     23  C   UNL     1      -5.520  -6.129  -4.704  0.00  0.00    +0.024 C 
ATOM     24  C   UNL     1      -4.240  -5.475  -5.144  0.00  0.00    +0.024 C 
ENDBRANCH  19  22
ENDBRANCH  16  18
ENDBRANCH  15  16
BRANCH  15  25
ATOM     25  C   UNL     1      -1.226  -5.748   1.590  0.00  0.00    +0.030 C 
BRANCH  25  27
ATOM     26  C   UNL     1       0.835  -7.157   0.876  0.00  0.00    +0.004 C 
ATOM     27  C   UNL     1      -0.536  -7.123   1.531  0.00  0.00    -0.001 C 
ENDBRANCH  25  27
ENDBRANCH  15  25
ENDBRANCH  11  15
ENDBRANCH   1  13
BRANCH   3  28
ATOM     28  C   UNL     1      -0.318  -1.190   3.554  0.00  0.00    +0.164 C 
BRANCH  28  29
ATOM     29  N   UNL     1      -0.641  -1.780   4.864  0.00  0.00    -0.302 N 
ATOM     30  H   UNL     1      -0.774  -1.141   5.640  0.00  0.00    +0.150 HD
ATOM     31  C   UNL     1      -0.085  -3.022   5.158  0.00  0.00    +0.234 C 
ATOM     32  O   UNL     1       0.384  -3.729   4.263  0.00  0.00    -0.274 OA
BRANCH  31  33
ATOM     33  C   UNL     1      -0.124  -3.530   6.621  0.00  0.00    +0.162 C 
BRANCH  33  34
ATOM     34  C   UNL     1      -1.318  -4.414   7.056  0.00  0.00    +0.018 C 
ATOM     35  C   UNL     1      -1.338  -5.799   6.382  0.00  0.00    +0.006 C 
ATOM     36  C   UNL     1      -1.921  -5.791   4.979  0.00  0.00    +0.000 C 
ATOM     37  C   UNL     1      -3.272  -5.094   4.899  0.00  0.00    +0.000 C 
ATOM     38  C   UNL     1      -3.282  -3.723   5.560  0.00  0.00    +0.000 C 
ATOM     39  C   UNL     1      -2.698  -3.754   6.966  0.00  0.00    +0.006 C 
ENDBRANCH  33  34
BRANCH  33  40
ATOM     40  N   UNL     1       0.088  -2.430   7.564  0.00  0.00    -0.298 N 
ATOM     41  H   UNL     1      -0.656  -1.779   7.799  0.00  0.00    +0.150 HD
ATOM     42  C   UNL     1       1.313  -2.228   8.171  0.00  0.00    +0.264 C 
ATOM     43  O   UNL     1       2.290  -2.949   8.008  0.00  0.00    -0.268 OA
BRANCH  42  44
ATOM     44  C   UNL     1       1.391  -1.046   9.066  0.00  0.00    +0.143 A 
ATOM     45  C   UNL     1       2.548  -0.813   9.795  0.00  0.00    +0.143 A 
ATOM     46  N   UNL     1       2.680   0.259  10.616  0.00  0.00    -0.259 NA
ATOM     47  C   UNL     1       1.607   1.082  10.666  0.00  0.00    +0.130 A 
ATOM     48  C   UNL     1       0.451   0.848   9.934  0.00  0.00    +0.131 A 
ATOM     49  N   UNL     1       0.303  -0.222   9.115  0.00  0.00    -0.247 NA
ENDBRANCH  42  44
ENDBRANCH  33  40
ENDBRANCH  31  33
ENDBRANCH  28  29
BRANCH  28  50
ATOM     50  C   UNL     1       1.109  -0.439   3.678  0.00  0.00    -0.011 C 
ATOM     51  C   UNL     1       1.571  -0.131   2.235  0.00  0.00    +0.013 C 
ATOM     52  C   UNL     1       2.249  -1.278   4.318  0.00  0.00    +0.013 C 
ATOM     53  C   UNL     1       1.069   0.848   4.563  0.00  0.00    +0.013 C 
ENDBRANCH  28  50
ENDBRANCH   3  28
TORSDOF 14
