REMARK  Name = 
REMARK  3 active torsions:
REMARK  status: ('A' for Active; 'I' for Inactive)
REMARK    1  A    between atoms: N_12  and  N_15
REMARK    2  A    between atoms: C_16  and  C_18
REMARK    3  A    between atoms: C_21  and  C_24
REMARK                            x       y       z     vdW  Elec       q    Type
REMARK                         _______ _______ _______ _____ _____    ______ ____
ROOT
ATOM      1  C   UNL     1      -0.587   0.432   0.829  0.00  0.00    +0.009 C 
ATOM      2  C   UNL     1      -1.565   0.800  -0.150  0.00  0.00    +0.001 C 
ATOM      3  C   UNL     1      -2.999   0.311  -0.457  0.00  0.00    +0.027 C 
ATOM      4  C   UNL     1      -3.335  -1.190  -0.444  0.00  0.00    +0.097 C 
ATOM      5  C   UNL     1      -4.043  -2.230   0.402  0.00  0.00    +0.243 C 
ATOM      6  N   UNL     1      -3.695  -3.444  -0.230  0.00  0.00    -0.155 N 
ATOM      7  C   UNL     1      -2.764  -3.250  -1.262  0.00  0.00    +0.243 C 
ATOM      8  O   UNL     1      -2.573  -3.868  -2.288  0.00  0.00    -0.273 OA
ATOM      9  O   UNL     1      -4.893  -2.041   1.258  0.00  0.00    -0.273 OA
ATOM     10  C   UNL     1      -2.088  -1.992  -0.813  0.00  0.00    +0.097 C 
ATOM     11  C   UNL     1      -1.172  -1.102  -1.643  0.00  0.00    +0.027 C 
ATOM     12  C   UNL     1      -1.994  -0.210  -2.596  0.00  0.00    -0.026 C 
ATOM     13  C   UNL     1      -2.957   0.531  -1.999  0.00  0.00    -0.026 C 
ATOM     14  C   UNL     1      -0.425  -0.207  -0.604  0.00  0.00    +0.001 C 
ENDROOT
BRANCH   6  15
ATOM     15  N   UNL     1      -4.376  -4.667  -0.045  0.00  0.00    -0.221 N 
ATOM     16  H   UNL     1      -5.392  -4.630  -0.002  0.00  0.00    +0.174 HD
ATOM     17  C   UNL     1      -3.632  -5.818  -0.043  0.00  0.00    +0.261 C 
ATOM     18  O   UNL     1      -2.404  -5.843  -0.096  0.00  0.00    -0.269 OA
BRANCH  17  19
ATOM     19  C   UNL     1      -4.332  -7.133   0.015  0.00  0.00    +0.038 A 
ATOM     20  C   UNL     1      -5.449  -7.352   0.827  0.00  0.00    +0.013 A 
ATOM     21  C   UNL     1      -5.987  -8.646   0.944  0.00  0.00    +0.013 A 
ATOM     22  C   UNL     1      -5.422  -9.731   0.243  0.00  0.00    +0.055 A 
ATOM     23  C   UNL     1      -4.323  -9.493  -0.584  0.00  0.00    +0.013 A 
ATOM     24  C   UNL     1      -3.776  -8.215  -0.692  0.00  0.00    +0.013 A 
BRANCH  22  25
ATOM     25  C   UNL     1      -5.995 -11.125   0.407  0.00  0.00    +0.417 C 
ATOM     26  F   UNL     1      -7.306 -11.193   0.045  0.00  0.00    -0.166 F 
ATOM     27  F   UNL     1      -5.941 -11.565   1.695  0.00  0.00    -0.166 F 
ATOM     28  F   UNL     1      -5.353 -12.069  -0.336  0.00  0.00    -0.166 F 
ENDBRANCH  22  25
ENDBRANCH  17  19
ENDBRANCH   6  15
TORSDOF 3
