REMARK  Name = 
REMARK  3 active torsions:
REMARK  status: ('A' for Active; 'I' for Inactive)
REMARK    1  A    between atoms: N_12  and  N_15
REMARK    2  A    between atoms: C_16  and  C_18
REMARK    3  A    between atoms: C_21  and  C_24
REMARK                            x       y       z     vdW  Elec       q    Type
REMARK                         _______ _______ _______ _____ _____    ______ ____
ROOT
ATOM      1  C   UNL     1      -0.589   0.415   0.843  0.00  0.00    +0.009 C 
ATOM      2  C   UNL     1      -1.575   0.798  -0.132  0.00  0.00    +0.001 C 
ATOM      3  C   UNL     1      -3.009   0.316  -0.444  0.00  0.00    +0.027 C 
ATOM      4  C   UNL     1      -3.346  -1.185  -0.432  0.00  0.00    +0.097 C 
ATOM      5  C   UNL     1      -4.065  -2.223   0.417  0.00  0.00    +0.243 C 
ATOM      6  N   UNL     1      -3.706  -3.439  -0.218  0.00  0.00    -0.155 N 
ATOM      7  C   UNL     1      -2.774  -3.248  -1.233  0.00  0.00    +0.243 C 
ATOM      8  O   UNL     1      -2.544  -3.883  -2.243  0.00  0.00    -0.273 OA
ATOM      9  O   UNL     1      -4.924  -2.032   1.250  0.00  0.00    -0.273 OA
ATOM     10  C   UNL     1      -2.104  -1.983  -0.797  0.00  0.00    +0.097 C 
ATOM     11  C   UNL     1      -1.186  -1.098  -1.633  0.00  0.00    +0.027 C 
ATOM     12  C   UNL     1      -2.002  -0.202  -2.585  0.00  0.00    -0.026 C 
ATOM     13  C   UNL     1      -2.963   0.541  -1.984  0.00  0.00    -0.026 C 
ATOM     14  C   UNL     1      -0.433  -0.203  -0.601  0.00  0.00    +0.001 C 
ENDROOT
BRANCH   6  15
ATOM     15  N   UNL     1      -4.386  -4.656  -0.021  0.00  0.00    -0.221 N 
ATOM     16  H   UNL     1      -5.402  -4.631  -0.004  0.00  0.00    +0.174 HD
ATOM     17  C   UNL     1      -3.627  -5.821   0.001  0.00  0.00    +0.261 C 
ATOM     18  O   UNL     1      -2.401  -5.829  -0.018  0.00  0.00    -0.269 OA
BRANCH  17  19
ATOM     19  C   UNL     1      -4.341  -7.130   0.055  0.00  0.00    +0.038 A 
ATOM     20  C   UNL     1      -5.449  -7.348   0.875  0.00  0.00    +0.013 A 
ATOM     21  C   UNL     1      -5.981  -8.643   0.998  0.00  0.00    +0.013 A 
ATOM     22  C   UNL     1      -5.424  -9.731   0.299  0.00  0.00    +0.055 A 
ATOM     23  C   UNL     1      -4.323  -9.497  -0.537  0.00  0.00    +0.013 A 
ATOM     24  C   UNL     1      -3.784  -8.212  -0.653  0.00  0.00    +0.013 A 
BRANCH  22  25
ATOM     25  C   UNL     1      -5.989 -11.124   0.472  0.00  0.00    +0.417 C 
ATOM     26  F   UNL     1      -7.309 -11.194   0.139  0.00  0.00    -0.166 F 
ATOM     27  F   UNL     1      -5.905 -11.565   1.757  0.00  0.00    -0.166 F 
ATOM     28  F   UNL     1      -5.365 -12.069  -0.286  0.00  0.00    -0.166 F 
ENDBRANCH  22  25
ENDBRANCH  17  19
ENDBRANCH   6  15
TORSDOF 3
