REMARK  Name = 
REMARK  19 active torsions:
REMARK  status: ('A' for Active; 'I' for Inactive)
REMARK    1  A    between atoms: C_1  and  C_2
REMARK    2  A    between atoms: C_2  and  C_3
REMARK    3  A    between atoms: C_2  and  C_4
REMARK    4  A    between atoms: C_4  and  C_6
REMARK    5  A    between atoms: C_4  and  N_54
REMARK    6  A    between atoms: C_12  and  C_14
REMARK    7  A    between atoms: C_17  and  C_19
REMARK    8  A    between atoms: C_22  and  C_25
REMARK    9  A    between atoms: C_28  and  C_31
REMARK   10  A    between atoms: C_34  and  C_36
REMARK   11  A    between atoms: C_42  and  C_44
REMARK   12  A    between atoms: C_44  and  C_46
REMARK   13  A    between atoms: C_44  and  N_49
REMARK   14  A    between atoms: C_46  and  C_47
REMARK   15  A    between atoms: C_46  and  C_48
REMARK   16  A    between atoms: C_50  and  O_52
REMARK   17  A    between atoms: O_52  and  C_53
REMARK   18  A    between atoms: C_55  and  O_57
REMARK   19  A    between atoms: O_57  and  C_58
REMARK                            x       y       z     vdW  Elec       q    Type
REMARK                         _______ _______ _______ _____ _____    ______ ____
ROOT
ATOM      1  C   UNL     1     -10.883  -5.994  14.557  0.00  0.00    -0.000 A 
ATOM      2  C   UNL     1      -9.492  -6.065  14.421  0.00  0.00    +0.010 A 
ATOM      3  C   UNL     1      -8.671  -4.983  14.803  0.00  0.00    +0.009 A 
ATOM      4  C   UNL     1      -9.210  -3.791  15.320  0.00  0.00    -0.018 A 
ATOM      5  C   UNL     1     -10.602  -3.772  15.516  0.00  0.00    +0.009 A 
ATOM      6  C   UNL     1     -11.420  -4.848  15.147  0.00  0.00    +0.010 A 
ENDROOT
BRANCH   1  10
ATOM      7  C   UNL     1     -12.572  -9.036  13.440  0.00  0.00    +0.128 A 
ATOM      8  N   UNL     1     -11.466  -8.365  13.909  0.00  0.00    -0.340 N 
ATOM      9  H   UNL     1     -10.586  -8.800  14.139  0.00  0.00    +0.167 HD
ATOM     10  C   UNL     1     -11.781  -7.035  14.057  0.00  0.00    +0.066 A 
ATOM     11  C   UNL     1     -13.091  -6.968  13.614  0.00  0.00    +0.139 A 
ATOM     12  N   UNL     1     -13.574  -8.200  13.263  0.00  0.00    -0.238 NA
BRANCH   7  15
ATOM     13  C   UNL     1     -10.781 -10.997  11.678  0.00  0.00    +0.237 C 
ATOM     14  N   UNL     1     -11.309 -11.090  12.959  0.00  0.00    -0.290 N 
ATOM     15  C   UNL     1     -12.626 -10.528  13.272  0.00  0.00    +0.142 C 
ATOM     16  C   UNL     1     -13.056 -11.184  14.595  0.00  0.00    +0.032 C 
ATOM     17  C   UNL     1     -12.001 -12.240  14.897  0.00  0.00    +0.021 C 
ATOM     18  C   UNL     1     -10.781 -11.828  14.091  0.00  0.00    +0.108 C 
ATOM     19  O   UNL     1     -11.390 -10.409  10.781  0.00  0.00    -0.274 OA
BRANCH  13  20
ATOM     20  C   UNL     1      -9.474 -11.768  11.353  0.00  0.00    +0.165 C 
BRANCH  20  21
ATOM     21  N   UNL     1      -9.913 -13.101  10.935  0.00  0.00    -0.270 N 
ATOM     22  H   UNL     1     -10.519 -13.183  10.127  0.00  0.00    +0.153 HD
ATOM     23  C   UNL     1      -9.496 -14.256  11.503  0.00  0.00    +0.401 C 
ATOM     24  O   UNL     1      -8.776 -14.341  12.487  0.00  0.00    -0.226 OA
BRANCH  23  25
ATOM     25  O   UNL     1     -10.001 -15.296  10.800  0.00  0.00    -0.454 OA
ATOM     26  C   UNL     1      -9.625 -16.584  11.292  0.00  0.00    +0.282 C 
ENDBRANCH  23  25
ENDBRANCH  20  21
BRANCH  20  28
ATOM     27  C   UNL     1      -8.204  -9.697  10.498  0.00  0.00    +0.009 C 
ATOM     28  C   UNL     1      -8.654 -11.131  10.194  0.00  0.00    +0.012 C 
ATOM     29  C   UNL     1      -7.402 -11.970   9.876  0.00  0.00    +0.009 C 
ENDBRANCH  20  28
ENDBRANCH  13  20
ENDBRANCH   7  15
ENDBRANCH   1  10
BRANCH   4  30
ATOM     30  C   UNL     1      -8.399  -2.561  15.551  0.00  0.00    -0.018 A 
ATOM     31  C   UNL     1      -7.294  -2.235  14.745  0.00  0.00    +0.009 A 
ATOM     32  C   UNL     1      -6.657  -0.980  14.828  0.00  0.00    +0.010 A 
ATOM     33  C   UNL     1      -7.104  -0.002  15.721  0.00  0.00    -0.000 A 
ATOM     34  C   UNL     1      -8.145  -0.347  16.589  0.00  0.00    +0.010 A 
ATOM     35  C   UNL     1      -8.772  -1.602  16.510  0.00  0.00    +0.009 A 
BRANCH  33  36
ATOM     36  C   UNL     1      -6.524   1.344  15.760  0.00  0.00    +0.066 A 
ATOM     37  N   UNL     1      -6.032   2.032  14.668  0.00  0.00    -0.340 N 
ATOM     38  H   UNL     1      -6.018   1.691  13.717  0.00  0.00    +0.167 HD
ATOM     39  C   UNL     1      -5.540   3.252  15.092  0.00  0.00    +0.128 A 
ATOM     40  N   UNL     1      -5.784   3.415  16.375  0.00  0.00    -0.238 NA
ATOM     41  C   UNL     1      -6.393   2.258  16.790  0.00  0.00    +0.139 A 
BRANCH  39  42
ATOM     42  C   UNL     1      -4.728   4.146  14.184  0.00  0.00    +0.142 C 
ATOM     43  N   UNL     1      -4.600   5.515  14.711  0.00  0.00    -0.290 N 
ATOM     44  C   UNL     1      -5.357   6.648  14.467  0.00  0.00    +0.237 C 
ATOM     45  O   UNL     1      -4.967   7.741  14.894  0.00  0.00    -0.274 OA
ATOM     46  C   UNL     1      -3.348   5.673  15.441  0.00  0.00    +0.108 C 
ATOM     47  C   UNL     1      -2.680   4.309  15.436  0.00  0.00    +0.021 C 
ATOM     48  C   UNL     1      -3.267   3.649  14.191  0.00  0.00    +0.032 C 
BRANCH  44  49
ATOM     49  C   UNL     1      -6.730   6.532  13.752  0.00  0.00    +0.165 C 
BRANCH  49  50
ATOM     50  N   UNL     1      -7.719   6.195  14.764  0.00  0.00    -0.270 N 
ATOM     51  H   UNL     1      -7.771   6.740  15.613  0.00  0.00    +0.153 HD
ATOM     52  C   UNL     1      -8.405   5.025  14.748  0.00  0.00    +0.401 C 
ATOM     53  O   UNL     1      -8.356   4.181  13.854  0.00  0.00    -0.226 OA
BRANCH  52  54
ATOM     54  O   UNL     1      -9.172   4.938  15.866  0.00  0.00    -0.454 OA
ATOM     55  C   UNL     1      -9.886   3.708  15.973  0.00  0.00    +0.282 C 
ENDBRANCH  52  54
ENDBRANCH  49  50
BRANCH  49  56
ATOM     56  C   UNL     1      -7.199   7.803  12.978  0.00  0.00    +0.012 C 
ATOM     57  C   UNL     1      -6.276   8.125  11.797  0.00  0.00    +0.009 C 
ATOM     58  C   UNL     1      -7.478   9.046  13.839  0.00  0.00    +0.009 C 
ENDBRANCH  49  56
ENDBRANCH  44  49
ENDBRANCH  39  42
ENDBRANCH  33  36
ENDBRANCH   4  30
TORSDOF 13
