REMARK  Name = 
REMARK  19 active torsions:
REMARK  status: ('A' for Active; 'I' for Inactive)
REMARK    1  A    between atoms: C_1  and  C_2
REMARK    2  A    between atoms: C_2  and  C_3
REMARK    3  A    between atoms: C_2  and  C_4
REMARK    4  A    between atoms: C_4  and  C_6
REMARK    5  A    between atoms: C_4  and  N_54
REMARK    6  A    between atoms: C_12  and  C_14
REMARK    7  A    between atoms: C_17  and  C_19
REMARK    8  A    between atoms: C_22  and  C_25
REMARK    9  A    between atoms: C_28  and  C_31
REMARK   10  A    between atoms: C_34  and  C_36
REMARK   11  A    between atoms: C_42  and  C_44
REMARK   12  A    between atoms: C_44  and  C_46
REMARK   13  A    between atoms: C_44  and  N_49
REMARK   14  A    between atoms: C_46  and  C_47
REMARK   15  A    between atoms: C_46  and  C_48
REMARK   16  A    between atoms: C_50  and  O_52
REMARK   17  A    between atoms: O_52  and  C_53
REMARK   18  A    between atoms: C_55  and  O_57
REMARK   19  A    between atoms: O_57  and  C_58
REMARK                            x       y       z     vdW  Elec       q    Type
REMARK                         _______ _______ _______ _____ _____    ______ ____
ROOT
ATOM      1  C   UNL     1     -12.764  12.649  16.034  0.00  0.00    -0.000 A 
ATOM      2  C   UNL     1     -11.844  12.899  15.009  0.00  0.00    +0.010 A 
ATOM      3  C   UNL     1     -11.668  11.983  13.954  0.00  0.00    +0.009 A 
ATOM      4  C   UNL     1     -12.391  10.780  13.893  0.00  0.00    -0.018 A 
ATOM      5  C   UNL     1     -13.337  10.567  14.912  0.00  0.00    +0.009 A 
ATOM      6  C   UNL     1     -13.524  11.481  15.956  0.00  0.00    +0.010 A 
ENDROOT
BRANCH   1  10
ATOM      7  C   UNL     1     -12.801  15.377  18.459  0.00  0.00    +0.128 A 
ATOM      8  N   UNL     1     -12.611  14.878  17.191  0.00  0.00    -0.340 N 
ATOM      9  H   UNL     1     -12.263  15.416  16.413  0.00  0.00    +0.167 HD
ATOM     10  C   UNL     1     -12.909  13.538  17.186  0.00  0.00    +0.066 A 
ATOM     11  C   UNL     1     -13.324  13.302  18.485  0.00  0.00    +0.139 A 
ATOM     12  N   UNL     1     -13.285  14.440  19.249  0.00  0.00    -0.238 NA
BRANCH   7  15
ATOM     13  C   UNL     1     -10.148  17.005  18.024  0.00  0.00    +0.237 C 
ATOM     14  N   UNL     1     -11.480  17.353  17.912  0.00  0.00    -0.290 N 
ATOM     15  C   UNL     1     -12.473  16.794  18.835  0.00  0.00    +0.142 C 
ATOM     16  C   UNL     1     -13.701  17.708  18.709  0.00  0.00    +0.032 C 
ATOM     17  C   UNL     1     -13.198  18.940  17.963  0.00  0.00    +0.021 C 
ATOM     18  C   UNL     1     -12.062  18.412  17.105  0.00  0.00    +0.108 C 
ATOM     19  O   UNL     1      -9.753  16.255  18.921  0.00  0.00    -0.274 OA
BRANCH  13  20
ATOM     20  C   UNL     1      -9.135  17.652  17.051  0.00  0.00    +0.165 C 
BRANCH  20  21
ATOM     21  N   UNL     1      -8.582  18.800  17.760  0.00  0.00    -0.270 N 
ATOM     22  H   UNL     1      -8.187  18.666  18.682  0.00  0.00    +0.153 HD
ATOM     23  C   UNL     1      -8.665  20.076  17.308  0.00  0.00    +0.401 C 
ATOM     24  O   UNL     1      -9.184  20.411  16.260  0.00  0.00    -0.226 OA
BRANCH  23  25
ATOM     25  O   UNL     1      -8.077  20.907  18.201  0.00  0.00    -0.454 OA
ATOM     26  C   UNL     1      -8.085  22.280  17.801  0.00  0.00    +0.282 C 
ENDBRANCH  23  25
ENDBRANCH  20  21
BRANCH  20  28
ATOM     27  C   UNL     1      -8.570  15.416  15.966  0.00  0.00    +0.009 C 
ATOM     28  C   UNL     1      -8.010  16.656  16.672  0.00  0.00    +0.012 C 
ATOM     29  C   UNL     1      -6.965  17.312  15.759  0.00  0.00    +0.009 C 
ENDBRANCH  20  28
ENDBRANCH  13  20
ENDBRANCH   7  15
ENDBRANCH   1  10
BRANCH   4  30
ATOM     30  C   UNL     1     -12.114   9.720  12.885  0.00  0.00    -0.018 A 
ATOM     31  C   UNL     1     -10.820   9.496  12.385  0.00  0.00    +0.009 A 
ATOM     32  C   UNL     1     -10.514   8.361  11.614  0.00  0.00    +0.010 A 
ATOM     33  C   UNL     1     -11.489   7.402  11.326  0.00  0.00    -0.000 A 
ATOM     34  C   UNL     1     -12.802   7.672  11.720  0.00  0.00    +0.010 A 
ATOM     35  C   UNL     1     -13.109   8.815  12.475  0.00  0.00    +0.009 A 
BRANCH  33  36
ATOM     36  C   UNL     1     -11.127   6.127  10.702  0.00  0.00    +0.066 A 
ATOM     37  N   UNL     1     -11.734   4.925  11.005  0.00  0.00    -0.340 N 
ATOM     38  H   UNL     1     -12.472   4.804  11.683  0.00  0.00    +0.167 HD
ATOM     39  C   UNL     1     -11.084   3.907  10.340  0.00  0.00    +0.128 A 
ATOM     40  N   UNL     1     -10.098   4.406   9.620  0.00  0.00    -0.238 NA
ATOM     41  C   UNL     1     -10.112   5.762   9.840  0.00  0.00    +0.139 A 
BRANCH  39  42
ATOM     42  C   UNL     1     -11.431   2.456  10.577  0.00  0.00    +0.142 C 
ATOM     43  N   UNL     1     -11.040   1.587   9.457  0.00  0.00    -0.290 N 
ATOM     44  C   UNL     1     -11.694   1.174   8.312  0.00  0.00    +0.237 C 
ATOM     45  O   UNL     1     -11.105   0.422   7.518  0.00  0.00    -0.274 OA
ATOM     46  C   UNL     1      -9.789   0.902   9.767  0.00  0.00    +0.108 C 
ATOM     47  C   UNL     1      -9.307   1.460  11.094  0.00  0.00    +0.021 C 
ATOM     48  C   UNL     1     -10.599   1.919  11.755  0.00  0.00    +0.032 C 
BRANCH  44  49
ATOM     49  C   UNL     1     -13.115   1.649   7.901  0.00  0.00    +0.165 C 
BRANCH  49  50
ATOM     50  N   UNL     1     -14.022   1.937   8.997  0.00  0.00    -0.270 N 
ATOM     51  H   UNL     1     -14.081   2.858   9.399  0.00  0.00    +0.153 HD
ATOM     52  C   UNL     1     -14.632   0.918   9.669  0.00  0.00    +0.401 C 
ATOM     53  O   UNL     1     -14.610  -0.258   9.343  0.00  0.00    -0.226 OA
BRANCH  52  54
ATOM     54  O   UNL     1     -15.207   1.401  10.798  0.00  0.00    -0.454 OA
ATOM     55  C   UNL     1     -15.726   0.368  11.639  0.00  0.00    +0.282 C 
ENDBRANCH  52  54
ENDBRANCH  49  50
BRANCH  49  56
ATOM     56  C   UNL     1     -13.085   2.739   6.803  0.00  0.00    +0.012 C 
ATOM     57  C   UNL     1     -12.578   4.094   7.287  0.00  0.00    +0.009 C 
ATOM     58  C   UNL     1     -14.452   2.871   6.109  0.00  0.00    +0.009 C 
ENDBRANCH  49  56
ENDBRANCH  44  49
ENDBRANCH  39  42
ENDBRANCH  33  36
ENDBRANCH   4  30
TORSDOF 13
