REMARK  Name = 
REMARK  13 active torsions:
REMARK  status: ('A' for Active; 'I' for Inactive)
REMARK    1  A    between atoms: C_1  and  C_2
REMARK    2  A    between atoms: C_3  and  O_51
REMARK    3  A    between atoms: C_9  and  C_43
REMARK    4  A    between atoms: C_11  and  O_12
REMARK    5  A    between atoms: O_12  and  C_13
REMARK    6  A    between atoms: N_20  and  C_42
REMARK    7  A    between atoms: C_29  and  C_33
REMARK    8  A    between atoms: N_35  and  S_36
REMARK    9  A    between atoms: S_36  and  C_39
REMARK   10  A    between atoms: C_45  and  C_48
REMARK   11  A    between atoms: C_48  and  C_49
REMARK   12  A    between atoms: C_48  and  C_50
REMARK   13  A    between atoms: O_51  and  C_52
REMARK                            x       y       z     vdW  Elec       q    Type
REMARK                         _______ _______ _______ _____ _____    ______ ____
ROOT
ATOM      1  C   UNL     1      10.660   4.248   2.535  0.00  0.00    +0.175 C 
ATOM      2  C   UNL     1      11.753   5.297   2.211  0.00  0.00    +0.058 C 
ATOM      3  C   UNL     1      12.264   4.786   0.830  0.00  0.00    +0.091 C 
ATOM      4  C   UNL     1      11.175   5.178  -0.215  0.00  0.00    +0.219 C 
ATOM      5  N   UNL     1      10.518   4.179  -0.940  0.00  0.00    -0.304 N 
ATOM      6  C   UNL     1      10.632   4.395  -2.376  0.00  0.00    +0.132 C 
ATOM      7  C   UNL     1       9.112   3.898  -0.573  0.00  0.00    +0.107 C 
ATOM      8  C   UNL     1       8.694   2.460  -0.887  0.00  0.00    +0.019 C 
ATOM      9  C   UNL     1       7.765   1.857   0.185  0.00  0.00    +0.006 C 
ATOM     10  C   UNL     1       8.112   0.402   0.532  0.00  0.00    +0.027 C 
ATOM     11  C   UNL     1       9.395   0.208   1.315  0.00  0.00    -0.031 C 
ATOM     12  C   UNL     1      10.502  -0.280   0.732  0.00  0.00    -0.025 C 
ATOM     13  C   UNL     1      11.774  -0.781   1.294  0.00  0.00    +0.046 C 
ATOM     14  C   UNL     1      13.195  -0.195   1.393  0.00  0.00    +0.119 C 
ATOM     15  N   UNL     1      13.374   1.220   1.492  0.00  0.00    -0.301 N 
ATOM     16  H   UNL     1      13.434   1.531   2.462  0.00  0.00    +0.150 HD
ATOM     17  C   UNL     1      13.101   2.206   0.547  0.00  0.00    +0.218 C 
ATOM     18  O   UNL     1      13.262   2.130  -0.657  0.00  0.00    -0.275 OA
ATOM     19  C   UNL     1      12.778  -0.922   0.159  0.00  0.00    +0.046 C 
ATOM     20  O   UNL     1      10.905   6.371  -0.400  0.00  0.00    -0.275 OA
ATOM     21  C   UNL     1      12.544   3.378   1.308  0.00  0.00    +0.090 C 
ATOM     22  C   UNL     1      11.247   2.960   1.996  0.00  0.00    +0.058 C 
ENDROOT
BRANCH  14  23
ATOM     23  C   UNL     1      14.149  -0.948   2.329  0.00  0.00    +0.256 C 
ATOM     24  N   UNL     1      15.307  -1.403   1.711  0.00  0.00    -0.188 N 
ATOM     25  H   UNL     1      15.525  -1.159   0.753  0.00  0.00    +0.176 HD
ATOM     26  O   UNL     1      13.856  -1.083   3.517  0.00  0.00    -0.272 OA
BRANCH  24  27
ATOM     27  S   UNL     1      16.460  -2.320   2.469  0.00  0.00    +0.048 S 
ATOM     28  O   UNL     1      17.268  -1.430   3.267  0.00  0.00    -0.155 OA
ATOM     29  O   UNL     1      17.051  -3.113   1.412  0.00  0.00    -0.155 OA
BRANCH  27  30
ATOM     30  C   UNL     1      15.617  -3.445   3.617  0.00  0.00    +0.151 C 
ATOM     31  C   UNL     1      15.893  -4.914   3.445  0.00  0.00    +0.030 C 
ATOM     32  C   UNL     1      14.594  -4.335   2.953  0.00  0.00    +0.030 C 
ENDBRANCH  27  30
ENDBRANCH  24  27
ENDBRANCH  14  23
BRANCH   1  33
ATOM     33  O   UNL     1      10.234   3.993   3.873  0.00  0.00    -0.488 OA
BRANCH  33  40
ATOM     34  C   UNL     1       5.013   5.693   6.666  0.00  0.00    +0.050 C 
ATOM     35  C   UNL     1       5.973   4.667   6.106  0.00  0.00    +0.017 A 
ATOM     36  C   UNL     1       7.051   5.139   5.347  0.00  0.00    +0.082 A 
ATOM     37  N   UNL     1       7.151   6.472   5.130  0.00  0.00    -0.244 NA
ATOM     38  C   UNL     1       8.215   6.933   4.429  0.00  0.00    +0.100 A 
ATOM     39  C   UNL     1       9.200   6.097   3.978  0.00  0.00    +0.076 A 
ATOM     40  C   UNL     1       9.128   4.740   4.207  0.00  0.00    +0.132 A 
ATOM     41  C   UNL     1       8.020   4.212   4.881  0.00  0.00    +0.043 A 
ATOM     42  C   UNL     1       7.803   2.829   5.084  0.00  0.00    +0.017 A 
ATOM     43  C   UNL     1       6.702   2.374   5.821  0.00  0.00    +0.047 A 
ATOM     44  C   UNL     1       5.802   3.288   6.363  0.00  0.00    +0.125 A 
BRANCH  38  45
ATOM     45  C   UNL     1       8.460   8.365   4.220  0.00  0.00    +0.127 A 
ATOM     46  S   UNL     1       7.644   9.598   5.077  0.00  0.00    -0.074 S 
ATOM     47  C   UNL     1       8.717  10.761   4.407  0.00  0.00    +0.070 A 
ATOM     48  C   UNL     1       9.618  10.154   3.546  0.00  0.00    +0.052 A 
ATOM     49  N   UNL     1       9.433   8.796   3.429  0.00  0.00    -0.242 NA
BRANCH  48  50
ATOM     50  C   UNL     1      10.730  10.797   2.759  0.00  0.00    +0.032 C 
ATOM     51  C   UNL     1      10.507  10.648   1.252  0.00  0.00    +0.014 C 
ATOM     52  C   UNL     1      12.106  10.236   3.137  0.00  0.00    +0.014 C 
ENDBRANCH  48  50
ENDBRANCH  38  45
BRANCH  44  53
ATOM     53  O   UNL     1       4.729   2.955   7.143  0.00  0.00    -0.495 OA
ATOM     54  C   UNL     1       4.593   1.602   7.561  0.00  0.00    +0.277 C 
ENDBRANCH  44  53
ENDBRANCH  33  40
ENDBRANCH   1  33
TORSDOF 8
