REMARK  Name = 
REMARK  13 active torsions:
REMARK  status: ('A' for Active; 'I' for Inactive)
REMARK    1  A    between atoms: C_1  and  C_2
REMARK    2  A    between atoms: C_3  and  O_51
REMARK    3  A    between atoms: C_9  and  C_43
REMARK    4  A    between atoms: C_11  and  O_12
REMARK    5  A    between atoms: O_12  and  C_13
REMARK    6  A    between atoms: N_20  and  C_42
REMARK    7  A    between atoms: C_29  and  C_33
REMARK    8  A    between atoms: N_35  and  S_36
REMARK    9  A    between atoms: S_36  and  C_39
REMARK   10  A    between atoms: C_45  and  C_48
REMARK   11  A    between atoms: C_48  and  C_49
REMARK   12  A    between atoms: C_48  and  C_50
REMARK   13  A    between atoms: O_51  and  C_52
REMARK                            x       y       z     vdW  Elec       q    Type
REMARK                         _______ _______ _______ _____ _____    ______ ____
ROOT
ATOM      1  C   UNL     1      10.680   4.225   2.577  0.00  0.00    +0.175 C 
ATOM      2  C   UNL     1      11.777   5.272   2.269  0.00  0.00    +0.058 C 
ATOM      3  C   UNL     1      12.284   4.768   0.882  0.00  0.00    +0.091 C 
ATOM      4  C   UNL     1      11.187   5.161  -0.157  0.00  0.00    +0.219 C 
ATOM      5  N   UNL     1      10.532   4.154  -0.881  0.00  0.00    -0.304 N 
ATOM      6  C   UNL     1      10.645   4.372  -2.318  0.00  0.00    +0.132 C 
ATOM      7  C   UNL     1       9.125   3.872  -0.515  0.00  0.00    +0.107 C 
ATOM      8  C   UNL     1       8.701   2.439  -0.843  0.00  0.00    +0.019 C 
ATOM      9  C   UNL     1       7.774   1.830   0.221  0.00  0.00    +0.006 C 
ATOM     10  C   UNL     1       8.113   0.373   0.557  0.00  0.00    +0.027 C 
ATOM     11  C   UNL     1       9.395   0.180   1.352  0.00  0.00    -0.031 C 
ATOM     12  C   UNL     1      10.495  -0.298   0.771  0.00  0.00    -0.025 C 
ATOM     13  C   UNL     1      11.776  -0.796   1.331  0.00  0.00    +0.046 C 
ATOM     14  C   UNL     1      13.205  -0.216   1.421  0.00  0.00    +0.119 C 
ATOM     15  N   UNL     1      13.393   1.198   1.531  0.00  0.00    -0.301 N 
ATOM     16  H   UNL     1      13.455   1.502   2.501  0.00  0.00    +0.150 HD
ATOM     17  C   UNL     1      13.123   2.188   0.589  0.00  0.00    +0.218 C 
ATOM     18  O   UNL     1      13.286   2.120  -0.615  0.00  0.00    -0.275 OA
ATOM     19  C   UNL     1      12.782  -0.941   0.191  0.00  0.00    +0.046 C 
ATOM     20  O   UNL     1      10.907   6.343  -0.330  0.00  0.00    -0.275 OA
ATOM     21  C   UNL     1      12.567   3.358   1.357  0.00  0.00    +0.090 C 
ATOM     22  C   UNL     1      11.269   2.937   2.042  0.00  0.00    +0.058 C 
ENDROOT
BRANCH  14  23
ATOM     23  C   UNL     1      14.167  -0.983   2.332  0.00  0.00    +0.256 C 
ATOM     24  N   UNL     1      15.301  -1.457   1.690  0.00  0.00    -0.188 N 
ATOM     25  H   UNL     1      15.511  -1.193   0.734  0.00  0.00    +0.176 HD
ATOM     26  O   UNL     1      13.915  -1.111   3.516  0.00  0.00    -0.272 OA
BRANCH  24  27
ATOM     27  S   UNL     1      16.442  -2.424   2.398  0.00  0.00    +0.048 S 
ATOM     28  O   UNL     1      17.302  -1.576   3.176  0.00  0.00    -0.155 OA
ATOM     29  O   UNL     1      16.977  -3.228   1.315  0.00  0.00    -0.155 OA
BRANCH  27  30
ATOM     30  C   UNL     1      15.595  -3.523   3.565  0.00  0.00    +0.151 C 
ATOM     31  C   UNL     1      15.841  -4.995   3.392  0.00  0.00    +0.030 C 
ATOM     32  C   UNL     1      14.542  -4.395   2.928  0.00  0.00    +0.030 C 
ENDBRANCH  27  30
ENDBRANCH  24  27
ENDBRANCH  14  23
BRANCH   1  33
ATOM     33  O   UNL     1      10.233   3.967   3.907  0.00  0.00    -0.488 OA
BRANCH  33  40
ATOM     34  C   UNL     1       4.961   5.602   6.634  0.00  0.00    +0.050 C 
ATOM     35  C   UNL     1       5.935   4.589   6.073  0.00  0.00    +0.017 A 
ATOM     36  C   UNL     1       7.024   5.080   5.334  0.00  0.00    +0.082 A 
ATOM     37  N   UNL     1       7.134   6.416   5.137  0.00  0.00    -0.244 NA
ATOM     38  C   UNL     1       8.197   6.893   4.464  0.00  0.00    +0.100 A 
ATOM     39  C   UNL     1       9.186   6.067   4.007  0.00  0.00    +0.076 A 
ATOM     40  C   UNL     1       9.117   4.708   4.223  0.00  0.00    +0.132 A 
ATOM     41  C   UNL     1       7.994   4.168   4.864  0.00  0.00    +0.043 A 
ATOM     42  C   UNL     1       7.784   2.775   5.048  0.00  0.00    +0.017 A 
ATOM     43  C   UNL     1       6.678   2.308   5.758  0.00  0.00    +0.047 A 
ATOM     44  C   UNL     1       5.765   3.208   6.303  0.00  0.00    +0.125 A 
BRANCH  38  45
ATOM     45  C   UNL     1       8.445   8.333   4.295  0.00  0.00    +0.127 A 
ATOM     46  S   UNL     1       7.614   9.542   5.172  0.00  0.00    -0.074 S 
ATOM     47  C   UNL     1       8.699  10.721   4.548  0.00  0.00    +0.070 A 
ATOM     48  C   UNL     1       9.607  10.139   3.684  0.00  0.00    +0.052 A 
ATOM     49  N   UNL     1       9.430   8.786   3.532  0.00  0.00    -0.242 NA
BRANCH  48  50
ATOM     50  C   UNL     1      10.732  10.807   2.933  0.00  0.00    +0.032 C 
ATOM     51  C   UNL     1      10.531  10.696   1.418  0.00  0.00    +0.014 C 
ATOM     52  C   UNL     1      12.100  10.231   3.317  0.00  0.00    +0.014 C 
ENDBRANCH  48  50
ENDBRANCH  38  45
BRANCH  44  53
ATOM     53  O   UNL     1       4.682   2.857   7.065  0.00  0.00    -0.495 OA
ATOM     54  C   UNL     1       4.537   1.497   7.446  0.00  0.00    +0.277 C 
ENDBRANCH  44  53
ENDBRANCH  33  40
ENDBRANCH   1  33
TORSDOF 8
