REMARK  Name = 
REMARK  11 active torsions:
REMARK  status: ('A' for Active; 'I' for Inactive)
REMARK    1  A    between atoms: C_1  and  C_2
REMARK    2  A    between atoms: C_2  and  C_3
REMARK    3  A    between atoms: C_2  and  C_4
REMARK    4  A    between atoms: C_2  and  C_5
REMARK    5  A    between atoms: C_7  and  N_28
REMARK    6  A    between atoms: C_9  and  C_13
REMARK    7  A    between atoms: C_10  and  O_11
REMARK    8  A    between atoms: O_11  and  C_12
REMARK    9  A    between atoms: C_20  and  N_23
REMARK   10  A    between atoms: N_23  and  S_24
REMARK   11  A    between atoms: S_24  and  C_27
REMARK                            x       y       z     vdW  Elec       q    Type
REMARK                         _______ _______ _______ _____ _____    ______ ____
ROOT
ATOM      1  C   UNL     1       2.942  -0.243  -1.278  0.00  0.00    +0.002 A 
ATOM      2  C   UNL     1       2.795  -1.537  -1.848  0.00  0.00    +0.132 A 
ATOM      3  C   UNL     1       3.308  -1.826  -3.161  0.00  0.00    +0.026 A 
ATOM      4  C   UNL     1       3.852  -0.762  -3.927  0.00  0.00    +0.035 A 
ATOM      5  C   UNL     1       3.872   0.547  -3.467  0.00  0.00    +0.039 A 
ATOM      6  C   UNL     1       3.465   0.751  -2.147  0.00  0.00    +0.031 A 
ENDROOT
BRANCH   3   7
ATOM      7  C   UNL     1       3.288  -3.184  -3.789  0.00  0.00    -0.014 A 
ATOM      8  C   UNL     1       3.593  -4.337  -3.055  0.00  0.00    +0.009 A 
ATOM      9  C   UNL     1       3.640  -5.603  -3.654  0.00  0.00    +0.009 A 
ATOM     10  C   UNL     1       3.454  -5.749  -5.032  0.00  0.00    -0.016 A 
ATOM     11  C   UNL     1       3.565  -7.006  -5.651  0.00  0.00    +0.033 A 
ATOM     12  C   UNL     1       3.440  -7.125  -7.033  0.00  0.00    +0.048 A 
ATOM     13  C   UNL     1       3.216  -5.996  -7.818  0.00  0.00    +0.025 A 
ATOM     14  C   UNL     1       3.069  -4.751  -7.207  0.00  0.00    +0.010 A 
ATOM     15  C   UNL     1       3.182  -4.609  -5.812  0.00  0.00    -0.017 A 
ATOM     16  C   UNL     1       3.063  -3.358  -5.173  0.00  0.00    +0.017 A 
BRANCH  12  17
ATOM     17  N   UNL     1       3.644  -8.397  -7.644  0.00  0.00    -0.221 N 
ATOM     18  H   UNL     1       3.031  -8.596  -8.438  0.00  0.00    +0.173 HD
BRANCH  17  19
ATOM     19  S   UNL     1       5.229  -8.792  -8.071  0.00  0.00    +0.040 S 
ATOM     20  C   UNL     1       5.751  -9.782  -6.695  0.00  0.00    +0.218 C 
ATOM     21  O   UNL     1       6.044  -7.601  -8.143  0.00  0.00    -0.155 OA
ATOM     22  O   UNL     1       5.106  -9.675  -9.219  0.00  0.00    -0.155 OA
ENDBRANCH  17  19
ENDBRANCH  12  17
ENDBRANCH   3   7
BRANCH   5  23
ATOM     23  N   UNL     1       4.183   1.670  -4.309  0.00  0.00    -0.255 N 
ATOM     24  C   UNL     1       4.605   2.897  -3.788  0.00  0.00    +0.313 C 
ATOM     25  O   UNL     1       5.039   3.098  -2.656  0.00  0.00    -0.252 OA
ATOM     26  N   UNL     1       4.497   3.970  -4.639  0.00  0.00    -0.240 N 
ATOM     27  H   UNL     1       4.782   4.856  -4.248  0.00  0.00    +0.159 HD
ATOM     28  C   UNL     1       3.814   4.024  -5.822  0.00  0.00    +0.222 C 
ATOM     29  O   UNL     1       3.634   5.086  -6.412  0.00  0.00    -0.275 OA
ATOM     30  C   UNL     1       3.226   2.730  -6.298  0.00  0.00    +0.115 C 
ATOM     31  C   UNL     1       4.049   1.575  -5.759  0.00  0.00    +0.124 C 
ENDBRANCH   5  23
BRANCH   1  33
ATOM     32  C   UNL     1       0.919   0.537  -0.047  0.00  0.00    +0.015 C 
ATOM     33  C   UNL     1       2.428   0.273   0.101  0.00  0.00    -0.009 C 
ATOM     34  C   UNL     1       2.703  -0.647   1.309  0.00  0.00    +0.015 C 
ATOM     35  C   UNL     1       3.093   1.619   0.547  0.00  0.00    +0.015 C 
ENDBRANCH   1  33
BRANCH   2  36
ATOM     36  O   UNL     1       1.853  -2.435  -1.388  0.00  0.00    -0.494 OA
ATOM     37  C   UNL     1       2.133  -3.176  -0.211  0.00  0.00    +0.277 C 
ENDBRANCH   2  36
TORSDOF 6
