REMARK  Name = 
REMARK  11 active torsions:
REMARK  status: ('A' for Active; 'I' for Inactive)
REMARK    1  A    between atoms: C_1  and  C_2
REMARK    2  A    between atoms: C_2  and  C_3
REMARK    3  A    between atoms: C_2  and  C_4
REMARK    4  A    between atoms: C_2  and  C_5
REMARK    5  A    between atoms: C_7  and  N_28
REMARK    6  A    between atoms: C_9  and  C_13
REMARK    7  A    between atoms: C_10  and  O_11
REMARK    8  A    between atoms: O_11  and  C_12
REMARK    9  A    between atoms: C_20  and  N_23
REMARK   10  A    between atoms: N_23  and  S_24
REMARK   11  A    between atoms: S_24  and  C_27
REMARK                            x       y       z     vdW  Elec       q    Type
REMARK                         _______ _______ _______ _____ _____    ______ ____
ROOT
ATOM      1  C   UNL     1       3.039   0.837  -0.982  0.00  0.00    +0.002 A 
ATOM      2  C   UNL     1       3.628   0.359  -2.192  0.00  0.00    +0.132 A 
ATOM      3  C   UNL     1       3.890   1.275  -3.282  0.00  0.00    +0.026 A 
ATOM      4  C   UNL     1       3.459   2.621  -3.143  0.00  0.00    +0.035 A 
ATOM      5  C   UNL     1       2.939   3.122  -1.962  0.00  0.00    +0.039 A 
ATOM      6  C   UNL     1       2.804   2.245  -0.891  0.00  0.00    +0.031 A 
ENDROOT
BRANCH   3   7
ATOM      7  C   UNL     1       4.560   0.925  -4.582  0.00  0.00    -0.014 A 
ATOM      8  C   UNL     1       4.452  -0.326  -5.199  0.00  0.00    +0.009 A 
ATOM      9  C   UNL     1       5.122  -0.645  -6.394  0.00  0.00    +0.009 A 
ATOM     10  C   UNL     1       5.861   0.339  -7.068  0.00  0.00    -0.016 A 
ATOM     11  C   UNL     1       6.511   0.064  -8.282  0.00  0.00    +0.033 A 
ATOM     12  C   UNL     1       7.185   1.079  -8.966  0.00  0.00    +0.048 A 
ATOM     13  C   UNL     1       7.223   2.376  -8.455  0.00  0.00    +0.025 A 
ATOM     14  C   UNL     1       6.606   2.647  -7.234  0.00  0.00    +0.010 A 
ATOM     15  C   UNL     1       5.934   1.634  -6.528  0.00  0.00    -0.017 A 
ATOM     16  C   UNL     1       5.330   1.885  -5.284  0.00  0.00    +0.017 A 
BRANCH  12  17
ATOM     17  N   UNL     1       7.921   0.755 -10.147  0.00  0.00    -0.221 N 
ATOM     18  H   UNL     1       7.859   1.451 -10.894  0.00  0.00    +0.173 HD
BRANCH  17  19
ATOM     19  S   UNL     1       9.561   0.373  -9.924  0.00  0.00    +0.040 S 
ATOM     20  C   UNL     1       9.511  -1.406  -9.951  0.00  0.00    +0.218 C 
ATOM     21  O   UNL     1      10.014   0.817  -8.626  0.00  0.00    -0.155 OA
ATOM     22  O   UNL     1      10.214   0.805 -11.135  0.00  0.00    -0.155 OA
ENDBRANCH  17  19
ENDBRANCH  12  17
ENDBRANCH   3   7
BRANCH   5  23
ATOM     23  N   UNL     1       2.461   4.461  -1.863  0.00  0.00    -0.255 N 
ATOM     24  C   UNL     1       2.811   5.270  -0.785  0.00  0.00    +0.313 C 
ATOM     25  O   UNL     1       3.602   4.969   0.105  0.00  0.00    -0.252 OA
ATOM     26  N   UNL     1       2.218   6.510  -0.767  0.00  0.00    -0.240 N 
ATOM     27  H   UNL     1       2.520   7.129  -0.028  0.00  0.00    +0.159 HD
ATOM     28  C   UNL     1       1.170   6.939  -1.536  0.00  0.00    +0.222 C 
ATOM     29  O   UNL     1       0.668   8.048  -1.381  0.00  0.00    -0.275 OA
ATOM     30  C   UNL     1       0.623   5.933  -2.506  0.00  0.00    +0.115 C 
ATOM     31  C   UNL     1       1.759   5.056  -2.992  0.00  0.00    +0.124 C 
ENDBRANCH   5  23
BRANCH   1  33
ATOM     32  C   UNL     1       0.893   0.298   0.234  0.00  0.00    +0.015 C 
ATOM     33  C   UNL     1       2.428   0.044   0.213  0.00  0.00    -0.009 C 
ATOM     34  C   UNL     1       2.562  -1.480   0.244  0.00  0.00    +0.015 C 
ATOM     35  C   UNL     1       3.043   0.542   1.550  0.00  0.00    +0.015 C 
ENDBRANCH   1  33
BRANCH   2  36
ATOM     36  O   UNL     1       3.671  -0.969  -2.538  0.00  0.00    -0.494 OA
ATOM     37  C   UNL     1       4.536  -1.912  -1.916  0.00  0.00    +0.277 C 
ENDBRANCH   2  36
TORSDOF 6
