REMARK  Name = 
REMARK  10 active torsions:
REMARK  status: ('A' for Active; 'I' for Inactive)
REMARK    1  A    between atoms: C_1  and  C_2
REMARK    2  A    between atoms: C_2  and  O_3
REMARK    3  A    between atoms: O_3  and  C_4
REMARK    4  A    between atoms: C_4  and  C_6
REMARK    5  A    between atoms: C_7  and  C_22
REMARK    6  A    between atoms: C_9  and  C_17
REMARK    7  A    between atoms: C_10  and  C_11
REMARK    8  A    between atoms: C_17  and  O_19
REMARK    9  A    between atoms: O_19  and  C_20
REMARK   10  A    between atoms: C_20  and  C_21
REMARK                            x       y       z     vdW  Elec       q    Type
REMARK                         _______ _______ _______ _____ _____    ______ ____
ROOT
ATOM      1  C   UNL     1       4.845  -2.080   1.932  0.00  0.00    +0.093 A 
ATOM      2  C   UNL     1       4.614  -3.504   1.815  0.00  0.00    +0.028 A 
ATOM      3  C   UNL     1       4.915  -4.061   3.056  0.00  0.00    +0.133 A 
ATOM      4  N   UNL     1       5.413  -3.041   3.845  0.00  0.00    -0.348 N 
ATOM      5  H   UNL     1       5.728  -3.173   4.797  0.00  0.00    +0.166 HD
ATOM      6  C   UNL     1       5.393  -1.830   3.191  0.00  0.00    +0.062 A 
ENDROOT
BRANCH   2   7
ATOM      7  C   UNL     1       4.119  -4.225   0.629  0.00  0.00    -0.015 A 
ATOM      8  C   UNL     1       4.540  -3.822  -0.651  0.00  0.00    +0.008 A 
ATOM      9  C   UNL     1       4.048  -4.431  -1.809  0.00  0.00    +0.001 A 
ATOM     10  C   UNL     1       3.166  -5.500  -1.708  0.00  0.00    +0.000 A 
ATOM     11  C   UNL     1       2.755  -5.935  -0.451  0.00  0.00    +0.001 A 
ATOM     12  C   UNL     1       3.205  -5.283   0.706  0.00  0.00    +0.008 A 
ENDBRANCH   2   7
BRANCH   6  13
ATOM     13  C   UNL     1       5.853  -0.570   3.801  0.00  0.00    -0.001 A 
ATOM     14  C   UNL     1       7.043  -0.504   4.539  0.00  0.00    +0.010 A 
ATOM     15  C   UNL     1       7.548   0.730   4.973  0.00  0.00    +0.001 A 
ATOM     16  C   UNL     1       6.874   1.911   4.669  0.00  0.00    +0.000 A 
ATOM     17  C   UNL     1       5.670   1.858   3.976  0.00  0.00    +0.001 A 
ATOM     18  C   UNL     1       5.153   0.625   3.571  0.00  0.00    +0.010 A 
ENDBRANCH   6  13
BRANCH   1  19
ATOM     19  C   UNL     1       4.569  -1.065   0.919  0.00  0.00    +0.342 C 
ATOM     20  O   UNL     1       5.340  -0.151   0.641  0.00  0.00    -0.245 OA
BRANCH  19  21
ATOM     21  O   UNL     1       3.343  -1.232   0.354  0.00  0.00    -0.461 OA
BRANCH  21  23
ATOM     22  C   UNL     1       2.179   0.844   0.071  0.00  0.00    +0.048 C 
ATOM     23  C   UNL     1       2.964  -0.253  -0.619  0.00  0.00    +0.229 C 
ENDBRANCH  21  23
ENDBRANCH  19  21
ENDBRANCH   1  19
BRANCH   3  24
ATOM     24  C   UNL     1       4.766  -5.415   3.548  0.00  0.00    +0.356 C 
ATOM     25  O   UNL     1       4.844  -6.445   2.895  0.00  0.00    -0.243 OA
BRANCH  24  26
ATOM     26  O   UNL     1       4.385  -5.356   4.858  0.00  0.00    -0.460 OA
BRANCH  26  27
ATOM     27  C   UNL     1       3.666  -6.503   5.338  0.00  0.00    +0.229 C 
ATOM     28  C   UNL     1       2.180  -6.239   5.172  0.00  0.00    +0.048 C 
ENDBRANCH  26  27
ENDBRANCH  24  26
ENDBRANCH   3  24
TORSDOF 8
