REMARK  Name = 
REMARK  10 active torsions:
REMARK  status: ('A' for Active; 'I' for Inactive)
REMARK    1  A    between atoms: C_1  and  C_2
REMARK    2  A    between atoms: C_2  and  O_3
REMARK    3  A    between atoms: O_3  and  C_4
REMARK    4  A    between atoms: C_4  and  C_6
REMARK    5  A    between atoms: C_7  and  C_22
REMARK    6  A    between atoms: C_9  and  C_17
REMARK    7  A    between atoms: C_10  and  C_11
REMARK    8  A    between atoms: C_17  and  O_19
REMARK    9  A    between atoms: O_19  and  C_20
REMARK   10  A    between atoms: C_20  and  C_21
REMARK                            x       y       z     vdW  Elec       q    Type
REMARK                         _______ _______ _______ _____ _____    ______ ____
ROOT
ATOM      1  C   UNL     1       4.788   1.667  -2.324  0.00  0.00    +0.093 A 
ATOM      2  C   UNL     1       5.351   1.240  -3.593  0.00  0.00    +0.028 A 
ATOM      3  C   UNL     1       5.412   2.369  -4.405  0.00  0.00    +0.133 A 
ATOM      4  N   UNL     1       4.914   3.420  -3.666  0.00  0.00    -0.348 N 
ATOM      5  H   UNL     1       4.836   4.361  -4.028  0.00  0.00    +0.166 HD
ATOM      6  C   UNL     1       4.567   3.044  -2.390  0.00  0.00    +0.062 A 
ENDROOT
BRANCH   2   7
ATOM      7  C   UNL     1       5.818  -0.099  -3.994  0.00  0.00    -0.015 A 
ATOM      8  C   UNL     1       5.597  -0.605  -5.284  0.00  0.00    +0.008 A 
ATOM      9  C   UNL     1       6.086  -1.861  -5.662  0.00  0.00    +0.001 A 
ATOM     10  C   UNL     1       6.755  -2.657  -4.738  0.00  0.00    +0.000 A 
ATOM     11  C   UNL     1       6.946  -2.193  -3.441  0.00  0.00    +0.001 A 
ATOM     12  C   UNL     1       6.500  -0.916  -3.080  0.00  0.00    +0.008 A 
ENDBRANCH   2   7
BRANCH   6  13
ATOM     13  C   UNL     1       4.015   4.020  -1.433  0.00  0.00    -0.001 A 
ATOM     14  C   UNL     1       2.970   3.672  -0.566  0.00  0.00    +0.010 A 
ATOM     15  C   UNL     1       2.452   4.593   0.353  0.00  0.00    +0.001 A 
ATOM     16  C   UNL     1       2.957   5.888   0.403  0.00  0.00    +0.000 A 
ATOM     17  C   UNL     1       3.983   6.262  -0.462  0.00  0.00    +0.001 A 
ATOM     18  C   UNL     1       4.510   5.334  -1.368  0.00  0.00    +0.010 A 
ENDBRANCH   6  13
BRANCH   1  19
ATOM     19  C   UNL     1       4.495   0.827  -1.166  0.00  0.00    +0.342 C 
ATOM     20  O   UNL     1       4.665   1.169  -0.005  0.00  0.00    -0.245 OA
BRANCH  19  21
ATOM     21  O   UNL     1       3.970  -0.375  -1.540  0.00  0.00    -0.461 OA
BRANCH  21  23
ATOM     22  C   UNL     1       2.154  -0.984  -0.095  0.00  0.00    +0.048 C 
ATOM     23  C   UNL     1       3.592  -1.260  -0.481  0.00  0.00    +0.229 C 
ENDBRANCH  21  23
ENDBRANCH  19  21
ENDBRANCH   1  19
BRANCH   3  24
ATOM     24  C   UNL     1       5.914   2.574  -5.745  0.00  0.00    +0.356 C 
ATOM     25  O   UNL     1       6.789   1.929  -6.308  0.00  0.00    -0.243 OA
BRANCH  24  26
ATOM     26  O   UNL     1       5.279   3.654  -6.285  0.00  0.00    -0.460 OA
BRANCH  26  27
ATOM     27  C   UNL     1       5.816   4.120  -7.529  0.00  0.00    +0.229 C 
ATOM     28  C   UNL     1       6.876   5.152  -7.214  0.00  0.00    +0.048 C 
ENDBRANCH  26  27
ENDBRANCH  24  26
ENDBRANCH   3  24
TORSDOF 8
