REMARK  Name = 
REMARK  8 active torsions:
REMARK  status: ('A' for Active; 'I' for Inactive)
REMARK    1  A    between atoms: N_3  and  C_9
REMARK    2  A    between atoms: C_9  and  C_10
REMARK    3  A    between atoms: C_10  and  C_12
REMARK    4  A    between atoms: C_10  and  O_14
REMARK    5  A    between atoms: C_12  and  O_13
REMARK    6  A    between atoms: O_14  and  C_15
REMARK    7  A    between atoms: C_15  and  P_16
REMARK    8  A    between atoms: P_16  and  O_18
REMARK                            x       y       z     vdW  Elec       q    Type
REMARK                         _______ _______ _______ _____ _____    ______ ____
ROOT
ATOM      1  C   UNL     1       0.150  -2.617   0.193  0.00  0.00    +0.160 C 
ENDROOT
BRANCH   1  10
ATOM      2  C   UNL     1       0.653   0.559  -1.582  0.00  0.00    +0.061 A 
ATOM      3  C   UNL     1      -0.457   1.296  -0.952  0.00  0.00    +0.123 A 
ATOM      4  N   UNL     1      -0.816   2.523  -1.436  0.00  0.00    -0.343 N 
ATOM      5  H   UNL     1      -0.074   3.119  -1.779  0.00  0.00    +0.144 HD
ATOM      6  H   UNL     1      -1.467   2.995  -0.819  0.00  0.00    +0.144 HD
ATOM      7  N   UNL     1      -1.141   0.846   0.051  0.00  0.00    -0.178 NA
ATOM      8  C   UNL     1      -0.889  -0.405   0.540  0.00  0.00    +0.350 A 
ATOM      9  O   UNL     1      -1.530  -0.834   1.502  0.00  0.00    -0.244 OA
ATOM     10  N   UNL     1       0.102  -1.183  -0.090  0.00  0.00    -0.296 N 
ATOM     11  C   UNL     1       0.852  -0.677  -1.127  0.00  0.00    +0.094 A 
ENDBRANCH   1  10
BRANCH   1  12
ATOM     12  C   UNL     1       1.509  -3.199   0.639  0.00  0.00    +0.164 C 
BRANCH  12  13
ATOM     13  O   UNL     1       1.450  -4.644   0.785  0.00  0.00    -0.364 OA
BRANCH  13  14
ATOM     14  C   UNL     1       1.052  -5.265  -0.460  0.00  0.00    +0.242 C 
BRANCH  14  15
ATOM     15  P   UNL     1       1.263  -7.067  -0.571  0.00  0.00    +0.159 P 
ATOM     16  O   UNL     1       0.763  -7.804   0.641  0.00  0.00    -0.780 OA
ATOM     17  O   UNL     1       0.858  -7.497  -1.960  0.00  0.00    -0.305 OA
BRANCH  15  18
ATOM     18  O   UNL     1       2.874  -7.206  -0.604  0.00  0.00    -0.352 OA
ATOM     19  H   UNL     1       3.011  -8.080  -1.011  0.00  0.00    +0.217 HD
ENDBRANCH  15  18
ENDBRANCH  14  15
ENDBRANCH  13  14
ENDBRANCH  12  13
BRANCH  12  20
ATOM     20  C   UNL     1       1.947  -2.578   1.974  0.00  0.00    +0.189 C 
BRANCH  20  21
ATOM     21  O   UNL     1       3.236  -3.065   2.354  0.00  0.00    -0.392 OA
ATOM     22  H   UNL     1       3.159  -4.040   2.307  0.00  0.00    +0.210 HD
ENDBRANCH  20  21
ENDBRANCH  12  20
ENDBRANCH   1  12
TORSDOF 8
