REMARK  Name = 
REMARK  5 active torsions:
REMARK  status: ('A' for Active; 'I' for Inactive)
REMARK    1  A    between atoms: C_3  and  N_10
REMARK    2  A    between atoms: C_6  and  C_8
REMARK    3  A    between atoms: C_8  and  O_9
REMARK    4  A    between atoms: C_14  and  N_20
REMARK    5  A    between atoms: N_20  and  C_21
REMARK                            x       y       z     vdW  Elec       q    Type
REMARK                         _______ _______ _______ _____ _____    ______ ____
ROOT
ATOM      1  N   UNL     1      -0.109   1.588  -1.750  0.00  0.00    -0.312 N 
ATOM      2  C   UNL     1      -0.267   0.689  -2.776  0.00  0.00    +0.167 A 
ATOM      3  C   UNL     1      -0.191   1.441  -3.935  0.00  0.00    +0.148 A 
ATOM      4  C   UNL     1      -0.292   0.744  -5.150  0.00  0.00    +0.152 A 
ATOM      5  N   UNL     1      -0.477  -0.604  -5.090  0.00  0.00    -0.198 NA
ATOM      6  C   UNL     1      -0.553  -1.211  -3.893  0.00  0.00    +0.216 A 
ATOM      7  N   UNL     1      -0.694  -2.587  -3.916  0.00  0.00    -0.327 N 
ATOM      8  H   UNL     1      -0.287  -2.981  -3.079  0.00  0.00    +0.145 HD
ATOM      9  H   UNL     1      -0.345  -2.932  -4.801  0.00  0.00    +0.145 HD
ATOM     10  N   UNL     1      -0.022   2.776  -3.639  0.00  0.00    -0.231 NA
ATOM     11  N   UNL     1      -0.437  -0.638  -2.686  0.00  0.00    -0.195 NA
ATOM     12  C   UNL     1       0.014   2.827  -2.322  0.00  0.00    +0.202 A 
ENDROOT
BRANCH   1  16
ATOM     13  C   UNL     1      -0.044   3.187   1.081  0.00  0.00    +0.008 C 
ATOM     14  C   UNL     1      -1.426   2.533   1.205  0.00  0.00    +0.016 C 
ATOM     15  C   UNL     1      -1.377   1.241   0.375  0.00  0.00    +0.031 C 
ATOM     16  C   UNL     1      -0.024   1.223  -0.346  0.00  0.00    +0.090 C 
ATOM     17  C   UNL     1       0.873   2.105   0.525  0.00  0.00    +0.025 C 
BRANCH  14  18
ATOM     18  C   UNL     1      -2.562   3.459   0.773  0.00  0.00    +0.159 C 
BRANCH  18  19
ATOM     19  O   UNL     1      -2.535   4.660   1.530  0.00  0.00    -0.395 OA
ATOM     20  H   UNL     1      -2.772   4.438   2.447  0.00  0.00    +0.209 HD
ENDBRANCH  18  19
ENDBRANCH  14  18
ENDBRANCH   1  16
BRANCH   4  21
ATOM     21  N   UNL     1      -0.172   1.408  -6.387  0.00  0.00    -0.324 N 
ATOM     22  H   UNL     1      -0.163   2.416  -6.241  0.00  0.00    +0.148 HD
BRANCH  21  23
ATOM     23  C   UNL     1      -0.846   0.862  -7.559  0.00  0.00    +0.072 C 
ATOM     24  C   UNL     1      -1.071   1.710  -8.780  0.00  0.00    +0.024 C 
ATOM     25  C   UNL     1      -2.236   1.307  -7.923  0.00  0.00    +0.024 C 
ENDBRANCH  21  23
ENDBRANCH   4  21
TORSDOF 5
