REMARK  Name = 
REMARK  8 active torsions:
REMARK  status: ('A' for Active; 'I' for Inactive)
REMARK    1  A    between atoms: N_3  and  C_9
REMARK    2  A    between atoms: C_9  and  C_10
REMARK    3  A    between atoms: C_10  and  C_12
REMARK    4  A    between atoms: C_10  and  O_14
REMARK    5  A    between atoms: C_12  and  O_13
REMARK    6  A    between atoms: O_14  and  C_15
REMARK    7  A    between atoms: C_15  and  P_16
REMARK    8  A    between atoms: P_16  and  O_18
REMARK                            x       y       z     vdW  Elec       q    Type
REMARK                         _______ _______ _______ _____ _____    ______ ____
ROOT
ATOM      1  C   UNL     1       0.124  -2.598   0.231  0.00  0.00    +0.160 C 
ENDROOT
BRANCH   1  10
ATOM      2  C   UNL     1       0.671   0.538  -1.618  0.00  0.00    +0.061 A 
ATOM      3  C   UNL     1      -0.416   1.311  -0.994  0.00  0.00    +0.123 A 
ATOM      4  N   UNL     1      -0.746   2.546  -1.479  0.00  0.00    -0.343 N 
ATOM      5  H   UNL     1       0.003   3.119  -1.836  0.00  0.00    +0.144 HD
ATOM      6  H   UNL     1      -1.379   3.034  -0.852  0.00  0.00    +0.144 HD
ATOM      7  N   UNL     1      -1.115   0.882   0.008  0.00  0.00    -0.178 NA
ATOM      8  C   UNL     1      -0.887  -0.374   0.518  0.00  0.00    +0.350 A 
ATOM      9  O   UNL     1      -1.568  -0.795   1.450  0.00  0.00    -0.244 OA
ATOM     10  N   UNL     1       0.086  -1.174  -0.102  0.00  0.00    -0.296 N 
ATOM     11  C   UNL     1       0.842  -0.697  -1.150  0.00  0.00    +0.094 A 
ENDBRANCH   1  10
BRANCH   1  12
ATOM     12  C   UNL     1       1.488  -3.205   0.643  0.00  0.00    +0.164 C 
BRANCH  12  13
ATOM     13  O   UNL     1       1.421  -4.646   0.744  0.00  0.00    -0.364 OA
BRANCH  13  14
ATOM     14  C   UNL     1       1.010  -5.250  -0.501  0.00  0.00    +0.242 C 
BRANCH  14  15
ATOM     15  P   UNL     1       1.279  -7.046  -0.629  0.00  0.00    +0.159 P 
ATOM     16  O   UNL     1       0.788  -7.814   0.572  0.00  0.00    -0.780 OA
ATOM     17  O   UNL     1       0.889  -7.473  -2.021  0.00  0.00    -0.305 OA
BRANCH  15  18
ATOM     18  O   UNL     1       2.891  -7.142  -0.655  0.00  0.00    -0.352 OA
ATOM     19  H   UNL     1       3.046  -8.021  -1.042  0.00  0.00    +0.217 HD
ENDBRANCH  15  18
ENDBRANCH  14  15
ENDBRANCH  13  14
ENDBRANCH  12  13
BRANCH  12  20
ATOM     20  C   UNL     1       1.987  -2.643   1.986  0.00  0.00    +0.189 C 
BRANCH  20  21
ATOM     21  O   UNL     1       2.248  -1.239   1.941  0.00  0.00    -0.392 OA
ATOM     22  H   UNL     1       2.871  -1.083   1.214  0.00  0.00    +0.210 HD
ENDBRANCH  20  21
ENDBRANCH  12  20
ENDBRANCH   1  12
TORSDOF 8
