REMARK  Name = 
REMARK  5 active torsions:
REMARK  status: ('A' for Active; 'I' for Inactive)
REMARK    1  A    between atoms: C_1  and  C_2
REMARK    2  A    between atoms: C_2  and  C_3
REMARK    3  A    between atoms: C_6  and  N_10
REMARK    4  A    between atoms: C_14  and  N_20
REMARK    5  A    between atoms: N_20  and  C_21
REMARK                            x       y       z     vdW  Elec       q    Type
REMARK                         _______ _______ _______ _____ _____    ______ ____
ROOT
ATOM      1  N   UNL     1       5.932   3.045   0.607  0.00  0.00    -0.308 N 
ATOM      2  C   UNL     1       6.045   4.413   0.648  0.00  0.00    +0.168 A 
ATOM      3  C   UNL     1       7.405   4.661   0.559  0.00  0.00    +0.148 A 
ATOM      4  C   UNL     1       7.817   6.005   0.559  0.00  0.00    +0.152 A 
ATOM      5  N   UNL     1       6.852   6.958   0.658  0.00  0.00    -0.198 NA
ATOM      6  C   UNL     1       5.563   6.584   0.767  0.00  0.00    +0.216 A 
ATOM      7  N   UNL     1       4.641   7.609   0.876  0.00  0.00    -0.327 N 
ATOM      8  H   UNL     1       3.744   7.314   0.518  0.00  0.00    +0.145 HD
ATOM      9  H   UNL     1       5.038   8.461   0.502  0.00  0.00    +0.145 HD
ATOM     10  N   UNL     1       8.120   3.483   0.476  0.00  0.00    -0.231 NA
ATOM     11  N   UNL     1       5.071   5.331   0.747  0.00  0.00    -0.195 NA
ATOM     12  C   UNL     1       7.204   2.536   0.505  0.00  0.00    +0.202 A 
ENDROOT
BRANCH   1  16
ATOM     13  C   UNL     1       4.077  -0.020   1.419  0.00  0.00    +0.013 C 
ATOM     14  C   UNL     1       4.165   0.099  -0.074  0.00  0.00    -0.026 C 
ATOM     15  C   UNL     1       4.531   1.322  -0.472  0.00  0.00    -0.006 C 
ATOM     16  C   UNL     1       4.705   2.269   0.680  0.00  0.00    +0.113 C 
ATOM     17  C   UNL     1       4.638   1.331   1.908  0.00  0.00    +0.037 C 
BRANCH  13  19
ATOM     18  C   UNL     1       4.964  -1.429   3.390  0.00  0.00    +0.004 C 
ATOM     19  C   UNL     1       4.845  -1.266   1.883  0.00  0.00    +0.004 C 
ENDBRANCH  13  19
ENDBRANCH   1  16
BRANCH   4  20
ATOM     20  N   UNL     1       9.179   6.323   0.436  0.00  0.00    -0.324 N 
ATOM     21  H   UNL     1       9.778   5.506   0.514  0.00  0.00    +0.148 HD
BRANCH  20  22
ATOM     22  C   UNL     1       9.690   7.677   0.511  0.00  0.00    +0.072 C 
ATOM     23  C   UNL     1      11.170   7.920   0.650  0.00  0.00    +0.024 C 
ATOM     24  C   UNL     1      10.246   8.243   1.785  0.00  0.00    +0.024 C 
ENDBRANCH  20  22
ENDBRANCH   4  20
TORSDOF 4
