REMARK  Name = 
REMARK  5 active torsions:
REMARK  status: ('A' for Active; 'I' for Inactive)
REMARK    1  A    between atoms: C_3  and  N_10
REMARK    2  A    between atoms: C_6  and  C_8
REMARK    3  A    between atoms: C_8  and  O_9
REMARK    4  A    between atoms: C_14  and  N_20
REMARK    5  A    between atoms: N_20  and  C_21
REMARK                            x       y       z     vdW  Elec       q    Type
REMARK                         _______ _______ _______ _____ _____    ______ ____
ROOT
ATOM      1  N   UNL     1      -0.109   1.591  -1.750  0.00  0.00    -0.312 N 
ATOM      2  C   UNL     1      -0.268   0.691  -2.778  0.00  0.00    +0.167 A 
ATOM      3  C   UNL     1      -0.184   1.442  -3.935  0.00  0.00    +0.148 A 
ATOM      4  C   UNL     1      -0.284   0.743  -5.150  0.00  0.00    +0.152 A 
ATOM      5  N   UNL     1      -0.474  -0.604  -5.088  0.00  0.00    -0.198 NA
ATOM      6  C   UNL     1      -0.554  -1.210  -3.891  0.00  0.00    +0.216 A 
ATOM      7  N   UNL     1      -0.697  -2.585  -3.910  0.00  0.00    -0.327 N 
ATOM      8  H   UNL     1      -0.294  -2.976  -3.071  0.00  0.00    +0.145 HD
ATOM      9  H   UNL     1      -0.346  -2.933  -4.793  0.00  0.00    +0.145 HD
ATOM     10  N   UNL     1      -0.016   2.777  -3.639  0.00  0.00    -0.231 NA
ATOM     11  N   UNL     1      -0.442  -0.634  -2.685  0.00  0.00    -0.195 NA
ATOM     12  C   UNL     1       0.016   2.829  -2.323  0.00  0.00    +0.202 A 
ENDROOT
BRANCH   1  16
ATOM     13  C   UNL     1      -0.043   3.188   1.080  0.00  0.00    +0.008 C 
ATOM     14  C   UNL     1      -1.430   2.542   1.198  0.00  0.00    +0.016 C 
ATOM     15  C   UNL     1      -1.384   1.249   0.371  0.00  0.00    +0.031 C 
ATOM     16  C   UNL     1      -0.030   1.225  -0.346  0.00  0.00    +0.090 C 
ATOM     17  C   UNL     1       0.869   2.103   0.527  0.00  0.00    +0.025 C 
BRANCH  14  18
ATOM     18  C   UNL     1      -2.559   3.473   0.758  0.00  0.00    +0.159 C 
BRANCH  18  19
ATOM     19  O   UNL     1      -2.528   4.678   1.510  0.00  0.00    -0.395 OA
ATOM     20  H   UNL     1      -2.770   4.461   2.427  0.00  0.00    +0.209 HD
ENDBRANCH  18  19
ENDBRANCH  14  18
ENDBRANCH   1  16
BRANCH   4  21
ATOM     21  N   UNL     1      -0.160   1.406  -6.388  0.00  0.00    -0.324 N 
ATOM     22  H   UNL     1      -0.150   2.414  -6.242  0.00  0.00    +0.148 HD
BRANCH  21  23
ATOM     23  C   UNL     1      -0.837   0.860  -7.559  0.00  0.00    +0.072 C 
ATOM     24  C   UNL     1      -1.064   1.709  -8.780  0.00  0.00    +0.024 C 
ATOM     25  C   UNL     1      -2.226   1.304  -7.920  0.00  0.00    +0.024 C 
ENDBRANCH  21  23
ENDBRANCH   4  21
TORSDOF 5
