REMARK  Name = 
REMARK  5 active torsions:
REMARK  status: ('A' for Active; 'I' for Inactive)
REMARK    1  A    between atoms: C_1  and  C_2
REMARK    2  A    between atoms: C_2  and  C_3
REMARK    3  A    between atoms: C_6  and  N_10
REMARK    4  A    between atoms: C_14  and  N_20
REMARK    5  A    between atoms: N_20  and  C_21
REMARK                            x       y       z     vdW  Elec       q    Type
REMARK                         _______ _______ _______ _____ _____    ______ ____
ROOT
ATOM      1  N   UNL     1       4.002  -4.408  -1.118  0.00  0.00    -0.308 N 
ATOM      2  C   UNL     1       5.301  -4.412  -1.559  0.00  0.00    +0.168 A 
ATOM      3  C   UNL     1       5.595  -5.744  -1.796  0.00  0.00    +0.148 A 
ATOM      4  C   UNL     1       6.886  -6.035  -2.269  0.00  0.00    +0.152 A 
ATOM      5  N   UNL     1       7.744  -4.993  -2.442  0.00  0.00    -0.198 NA
ATOM      6  C   UNL     1       7.335  -3.743  -2.167  0.00  0.00    +0.216 A 
ATOM      7  N   UNL     1       8.254  -2.737  -2.402  0.00  0.00    -0.327 N 
ATOM      8  H   UNL     1       7.773  -1.879  -2.630  0.00  0.00    +0.145 HD
ATOM      9  H   UNL     1       8.941  -3.071  -3.064  0.00  0.00    +0.145 HD
ATOM     10  N   UNL     1       4.514  -6.548  -1.501  0.00  0.00    -0.231 NA
ATOM     11  N   UNL     1       6.121  -3.364  -1.738  0.00  0.00    -0.195 NA
ATOM     12  C   UNL     1       3.576  -5.714  -1.100  0.00  0.00    +0.202 A 
ENDROOT
BRANCH   1  16
ATOM     13  C   UNL     1       1.249  -2.545   0.521  0.00  0.00    +0.013 C 
ATOM     14  C   UNL     1       0.935  -2.696  -0.940  0.00  0.00    -0.026 C 
ATOM     15  C   UNL     1       2.003  -3.079  -1.647  0.00  0.00    -0.006 C 
ATOM     16  C   UNL     1       3.221  -3.235  -0.783  0.00  0.00    +0.113 C 
ATOM     17  C   UNL     1       2.619  -3.241   0.639  0.00  0.00    +0.037 C 
BRANCH  13  19
ATOM     18  C   UNL     1       0.432  -3.093   2.883  0.00  0.00    +0.004 C 
ATOM     19  C   UNL     1       0.143  -3.152   1.391  0.00  0.00    +0.004 C 
ENDBRANCH  13  19
ENDBRANCH   1  16
BRANCH   4  20
ATOM     20  N   UNL     1       7.260  -7.359  -2.571  0.00  0.00    -0.324 N 
ATOM     21  H   UNL     1       6.535  -7.998  -2.249  0.00  0.00    +0.148 HD
BRANCH  20  22
ATOM     22  C   UNL     1       8.658  -7.757  -2.441  0.00  0.00    +0.072 C 
ATOM     23  C   UNL     1       9.016  -9.212  -2.308  0.00  0.00    +0.024 C 
ATOM     24  C   UNL     1       9.193  -8.286  -1.140  0.00  0.00    +0.024 C 
ENDBRANCH  20  22
ENDBRANCH   4  20
TORSDOF 4
