REMARK  Name = 
REMARK  5 active torsions:
REMARK  status: ('A' for Active; 'I' for Inactive)
REMARK    1  A    between atoms: C5M_1  and  C5_2
REMARK    2  A    between atoms: N1_4  and  C1*_10
REMARK    3  A    between atoms: C3*_13  and  O3*_20
REMARK    4  A    between atoms: C4*_15  and  C5*_18
REMARK    5  A    between atoms: C5*_18  and  O5*_19
REMARK                            x       y       z     vdW  Elec       q    Type
REMARK                         _______ _______ _______ _____ _____    ______ ____
ROOT
ATOM      1  C5M   T A   1       3.445  -0.993   2.645  0.00  0.00    +0.051 C 
ATOM      2  C5    T A   1       3.671  -0.321   1.330  0.00  0.00    +0.030 A 
ATOM      3  C4    T A   1       2.975  -0.891   0.151  0.00  0.00    +0.257 A 
ATOM      4  O4    T A   1       2.230  -1.861   0.242  0.00  0.00    -0.267 OA
ATOM      5  N3    T A   1       3.203  -0.261  -1.036  0.00  0.00    -0.275 N 
ATOM      6  H3    T A   1       2.720  -0.620  -1.845  0.00  0.00    +0.173 HD
ATOM      7  C2    T A   1       3.953   0.868  -1.220  0.00  0.00    +0.331 A 
ATOM      8  O2    T A   1       4.004   1.404  -2.325  0.00  0.00    -0.246 OA
ATOM      9  N1    T A   1       4.616   1.342  -0.096  0.00  0.00    -0.274 N 
ATOM     10  C6    T A   1       4.449   0.752   1.143  0.00  0.00    +0.101 A 
ENDROOT
BRANCH   9  11
ATOM     11  C1*   T A   1       5.426   2.539  -0.274  0.00  0.00    +0.226 C 
ATOM     12  O4*   T A   1       6.483   2.609   0.703  0.00  0.00    -0.348 OA
ATOM     13  C4*   T A   1       6.719   4.008   0.993  0.00  0.00    +0.175 C 
ATOM     14  C3*   T A   1       5.758   4.817   0.118  0.00  0.00    +0.150 C 
ATOM     15  C2*   T A   1       4.641   3.831  -0.132  0.00  0.00    +0.088 C 
BRANCH  14  16
ATOM     16  O3*   T A   1       5.298   6.002   0.750  0.00  0.00    -0.389 OA
ATOM     17  H3*   T A   1       4.809   5.764   1.557  0.00  0.00    +0.210 HD
ENDBRANCH  14  16
BRANCH  13  18
ATOM     18  C5*   T A   1       8.190   4.331   0.729  0.00  0.00    +0.190 C 
BRANCH  18  19
ATOM     19  O5*   T A   1       8.538   4.030  -0.622  0.00  0.00    -0.392 OA
ATOM     20  H5*   T A   1       8.375   3.076  -0.740  0.00  0.00    +0.210 HD
ENDBRANCH  18  19
ENDBRANCH  13  18
ENDBRANCH   9  11
TORSDOF 4
