REMARK  Name = 
REMARK  17 active torsions:
REMARK  status: ('A' for Active; 'I' for Inactive)
REMARK    1  A    between atoms: C_1  and  C_2
REMARK    2  A    between atoms: C_2  and  C_3
REMARK    3  A    between atoms: C_2  and  C_4
REMARK    4  A    between atoms: C_2  and  N_5
REMARK    5  A    between atoms: C_6  and  C_8
REMARK    6  A    between atoms: N_20  and  C_21
REMARK    7  A    between atoms: C_21  and  C_22
REMARK    8  A    between atoms: C_22  and  C_24
REMARK    9  A    between atoms: C_22  and  O_55
REMARK   10  A    between atoms: C_24  and  C_26
REMARK   11  A    between atoms: C_24  and  N_33
REMARK   12  A    between atoms: C_26  and  C_27
REMARK   13  A    between atoms: C_34  and  C_36
REMARK   14  A    between atoms: C_36  and  C_38
REMARK   15  A    between atoms: C_36  and  N_42
REMARK   16  A    between atoms: C_38  and  C_39
REMARK   17  A    between atoms: C_43  and  C_45
REMARK                            x       y       z     vdW  Elec       q    Type
REMARK                         _______ _______ _______ _____ _____    ______ ____
ROOT
ATOM      1  C   UNL     1       3.641  -5.238   1.127  0.00  0.00    +0.107 C 
ENDROOT
BRANCH   1   2
ATOM      2  N   UNL     1       4.633  -5.903   0.260  0.00  0.00    -0.308 N 
ATOM      3  H   UNL     1       4.599  -6.918   0.184  0.00  0.00    +0.149 HD
ATOM      4  C   UNL     1       5.570  -5.236  -0.502  0.00  0.00    +0.234 C 
ATOM      5  O   UNL     1       5.761  -4.028  -0.426  0.00  0.00    -0.274 OA
BRANCH   4   6
ATOM      6  C   UNL     1       6.458  -6.159  -1.362  0.00  0.00    +0.168 C 
BRANCH   6   7
ATOM      7  N   UNL     1       7.577  -6.629  -0.535  0.00  0.00    -0.298 N 
ATOM      8  H   UNL     1       8.367  -6.018  -0.342  0.00  0.00    +0.150 HD
ATOM      9  C   UNL     1       7.495  -7.769   0.235  0.00  0.00    +0.263 C 
ATOM     10  O   UNL     1       6.494  -8.486   0.252  0.00  0.00    -0.269 OA
BRANCH   9  11
ATOM     11  C   UNL     1       8.711  -8.095   1.052  0.00  0.00    +0.126 A 
ATOM     12  C   UNL     1       8.745  -9.288   1.758  0.00  0.00    +0.033 A 
ATOM     13  C   UNL     1       9.903  -9.607   2.456  0.00  0.00    +0.012 A 
ATOM     14  C   UNL     1      10.993  -8.730   2.423  0.00  0.00    +0.000 A 
ATOM     15  C   UNL     1      10.866  -7.528   1.689  0.00  0.00    +0.072 A 
ATOM     16  C   UNL     1      11.962  -6.669   1.675  0.00  0.00    +0.028 A 
ATOM     17  C   UNL     1      13.159  -6.979   2.335  0.00  0.00    +0.002 A 
ATOM     18  C   UNL     1      13.273  -8.170   3.042  0.00  0.00    +0.001 A 
ATOM     19  C   UNL     1      12.189  -9.042   3.092  0.00  0.00    +0.010 A 
ATOM     20  N   UNL     1       9.743  -7.204   1.013  0.00  0.00    -0.242 NA
ENDBRANCH   9  11
ENDBRANCH   6   7
BRANCH   6  21
ATOM     21  C   UNL     1       6.994  -5.421  -2.585  0.00  0.00    +0.127 C 
BRANCH  21  22
ATOM     22  C   UNL     1       5.881  -4.934  -3.482  0.00  0.00    +0.213 C 
ATOM     23  N   UNL     1       6.309  -4.232  -4.573  0.00  0.00    -0.329 N 
ATOM     24  H   UNL     1       5.606  -3.892  -5.217  0.00  0.00    +0.145 HD
ATOM     25  H   UNL     1       7.282  -4.150  -4.828  0.00  0.00    +0.145 HD
ATOM     26  O   UNL     1       4.689  -5.143  -3.298  0.00  0.00    -0.276 OA
ENDBRANCH  21  22
ENDBRANCH   6  21
ENDBRANCH   4   6
ENDBRANCH   1   2
BRANCH   1  27
ATOM     27  C   UNL     1       4.345  -4.376   2.226  0.00  0.00    +0.149 C 
BRANCH  27  28
ATOM     28  O   UNL     1       5.147  -5.266   3.020  0.00  0.00    -0.389 OA
ATOM     29  H   UNL     1       6.068  -5.062   2.780  0.00  0.00    +0.210 HD
ENDBRANCH  27  28
BRANCH  27  30
ATOM     30  C   UNL     1       3.353  -3.581   3.127  0.00  0.00    +0.118 C 
BRANCH  30  32
ATOM     31  C   UNL     1       2.906  -1.825   4.779  0.00  0.00    +0.143 C 
ATOM     32  N   UNL     1       3.973  -2.618   4.093  0.00  0.00    -0.289 NA
ATOM     33  C   UNL     1       4.876  -3.316   5.018  0.00  0.00    +0.089 C 
ATOM     34  C   UNL     1       5.391  -2.452   6.166  0.00  0.00    +0.006 C 
ATOM     35  C   UNL     1       4.222  -2.080   7.072  0.00  0.00    -0.005 C 
ATOM     36  C   UNL     1       4.631  -1.042   8.125  0.00  0.00    +0.004 C 
ATOM     37  C   UNL     1       5.303   0.173   7.498  0.00  0.00    +0.000 C 
ATOM     38  C   UNL     1       6.552  -0.243   6.733  0.00  0.00    +0.000 C 
ATOM     39  C   UNL     1       6.233  -1.271   5.657  0.00  0.00    +0.005 C 
ATOM     40  C   UNL     1       2.941  -1.687   6.320  0.00  0.00    +0.032 C 
BRANCH  31  43
ATOM     41  N   UNL     1       3.787  -0.057   3.279  0.00  0.00    -0.309 N 
ATOM     42  H   UNL     1       4.394  -0.832   3.019  0.00  0.00    +0.149 HD
ATOM     43  C   UNL     1       2.799  -0.394   4.174  0.00  0.00    +0.231 C 
ATOM     44  O   UNL     1       1.899   0.377   4.506  0.00  0.00    -0.274 OA
BRANCH  41  46
ATOM     45  C   UNL     1       4.194   2.333   3.794  0.00  0.00    +0.031 C 
ATOM     46  C   UNL     1       3.994   1.273   2.695  0.00  0.00    +0.026 C 
ATOM     47  C   UNL     1       5.273   1.237   1.839  0.00  0.00    +0.031 C 
ATOM     48  C   UNL     1       2.810   1.668   1.801  0.00  0.00    +0.031 C 
ENDBRANCH  41  46
ENDBRANCH  31  43
ENDBRANCH  30  32
ENDBRANCH  27  30
ENDBRANCH   1  27
BRANCH   1  49
ATOM     49  C   UNL     1       2.712  -6.302   1.774  0.00  0.00    +0.060 C 
BRANCH  49  50
ATOM     50  C   UNL     1       1.839  -7.161   0.881  0.00  0.00    -0.046 A 
ATOM     51  C   UNL     1       1.275  -6.690  -0.309  0.00  0.00    +0.004 A 
ATOM     52  C   UNL     1       0.350  -7.469  -1.013  0.00  0.00    +0.000 A 
ATOM     53  C   UNL     1      -0.018  -8.728  -0.542  0.00  0.00    +0.000 A 
ATOM     54  C   UNL     1       0.550  -9.220   0.630  0.00  0.00    +0.000 A 
ATOM     55  C   UNL     1       1.466  -8.440   1.337  0.00  0.00    +0.004 A 
ENDBRANCH  49  50
ENDBRANCH   1  49
TORSDOF 14
