REMARK  Name = 
REMARK  11 active torsions:
REMARK  status: ('A' for Active; 'I' for Inactive)
REMARK    1  A    between atoms: C_1  and  C_2
REMARK    2  A    between atoms: C_5  and  C_38
REMARK    3  A    between atoms: N_6  and  C_7
REMARK    4  A    between atoms: N_16  and  C_17
REMARK    5  A    between atoms: C_17  and  C_18
REMARK    6  A    between atoms: C_18  and  C_19
REMARK    7  A    between atoms: C_19  and  C_21
REMARK    8  A    between atoms: C_19  and  N_27
REMARK    9  A    between atoms: C_28  and  C_30
REMARK   10  A    between atoms: C_38  and  C_39
REMARK   11  A    between atoms: C_38  and  C_40
REMARK                            x       y       z     vdW  Elec       q    Type
REMARK                         _______ _______ _______ _____ _____    ______ ____
ROOT
ATOM      1  C   UNL     1      -0.795  -4.119   1.096  0.00  0.00    +0.042 C 
ENDROOT
BRANCH   1   2
ATOM      2  C   UNL     1      -0.041  -3.668  -0.163  0.00  0.00    +0.087 C 
BRANCH   2   6
ATOM      3  C   UNL     1       3.198  -2.525  -0.315  0.00  0.00    +0.093 C 
ATOM      4  C   UNL     1       2.688  -3.302   0.911  0.00  0.00    +0.044 C 
ATOM      5  C   UNL     1       2.138  -4.682   0.486  0.00  0.00    +0.059 C 
ATOM      6  N   UNL     1       1.080  -4.537  -0.520  0.00  0.00    -0.296 NA
ATOM      7  C   UNL     1       1.800  -4.110  -1.732  0.00  0.00    +0.059 C 
ATOM      8  C   UNL     1       2.927  -5.145  -1.775  0.00  0.00    +0.020 C 
ATOM      9  C   UNL     1       3.159  -5.517  -0.306  0.00  0.00    +0.020 C 
ATOM     10  C   UNL     1       2.360  -2.687  -1.595  0.00  0.00    +0.044 C 
BRANCH   3  13
ATOM     11  C   UNL     1       1.378   0.063   0.258  0.00  0.00    +0.088 C 
ATOM     12  C   UNL     1       2.849  -0.020   0.101  0.00  0.00    +0.131 A 
ATOM     13  N   UNL     1       3.614  -1.152  -0.081  0.00  0.00    -0.312 N 
ATOM     14  C   UNL     1       4.918  -0.710  -0.200  0.00  0.00    +0.136 A 
ATOM     15  N   UNL     1       4.931   0.603  -0.101  0.00  0.00    -0.134 NA
ATOM     16  N   UNL     1       3.647   1.029   0.090  0.00  0.00    -0.135 NA
BRANCH  14  17
ATOM     17  C   UNL     1       6.106  -1.592  -0.473  0.00  0.00    +0.051 C 
ATOM     18  C   UNL     1       7.411  -0.957  -0.004  0.00  0.00    +0.015 C 
ATOM     19  C   UNL     1       6.188  -1.927  -1.965  0.00  0.00    +0.015 C 
ENDBRANCH  14  17
ENDBRANCH   3  13
ENDBRANCH   2   6
ENDBRANCH   1   2
BRANCH   1  20
ATOM     20  C   UNL     1      -1.903  -3.106   1.460  0.00  0.00    +0.104 C 
BRANCH  20  21
ATOM     21  C   UNL     1      -2.897  -2.937   0.324  0.00  0.00    -0.027 A 
ATOM     22  C   UNL     1      -3.001  -1.698  -0.322  0.00  0.00    +0.005 A 
ATOM     23  C   UNL     1      -3.767  -1.566  -1.478  0.00  0.00    +0.000 A 
ATOM     24  C   UNL     1      -4.446  -2.670  -1.991  0.00  0.00    +0.000 A 
ATOM     25  C   UNL     1      -4.376  -3.897  -1.343  0.00  0.00    +0.000 A 
ATOM     26  C   UNL     1      -3.607  -4.037  -0.187  0.00  0.00    +0.005 A 
ENDBRANCH  20  21
BRANCH  20  27
ATOM     27  N   UNL     1      -2.578  -3.488   2.688  0.00  0.00    -0.308 N 
ATOM     28  H   UNL     1      -3.384  -4.093   2.622  0.00  0.00    +0.149 HD
ATOM     29  C   UNL     1      -2.070  -3.145   3.920  0.00  0.00    +0.217 C 
ATOM     30  O   UNL     1      -1.082  -2.433   4.054  0.00  0.00    -0.275 OA
BRANCH  29  31
ATOM     31  C   UNL     1      -2.830  -3.756   5.102  0.00  0.00    +0.075 C 
ATOM     32  C   UNL     1      -2.347  -3.205   6.455  0.00  0.00    +0.018 C 
ATOM     33  C   UNL     1      -0.964  -3.722   6.863  0.00  0.00    +0.076 C 
ATOM     34  C   UNL     1      -0.876  -5.234   6.776  0.00  0.00    +0.249 C 
ATOM     35  F   UNL     1      -1.639  -5.780   7.759  0.00  0.00    -0.206 F 
ATOM     36  F   UNL     1       0.398  -5.633   7.012  0.00  0.00    -0.206 F 
ATOM     37  C   UNL     1      -1.338  -5.784   5.437  0.00  0.00    +0.076 C 
ATOM     38  C   UNL     1      -2.740  -5.289   5.086  0.00  0.00    +0.018 C 
ENDBRANCH  29  31
ENDBRANCH  20  27
ENDBRANCH   1  20
TORSDOF 8
