REMARK  Name = 
REMARK  11 active torsions:
REMARK  status: ('A' for Active; 'I' for Inactive)
REMARK    1  A    between atoms: C_1  and  C_2
REMARK    2  A    between atoms: C_5  and  C_38
REMARK    3  A    between atoms: N_6  and  C_7
REMARK    4  A    between atoms: N_16  and  C_17
REMARK    5  A    between atoms: C_17  and  C_18
REMARK    6  A    between atoms: C_18  and  C_19
REMARK    7  A    between atoms: C_19  and  C_21
REMARK    8  A    between atoms: C_19  and  N_27
REMARK    9  A    between atoms: C_28  and  C_30
REMARK   10  A    between atoms: C_38  and  C_39
REMARK   11  A    between atoms: C_38  and  C_40
REMARK                            x       y       z     vdW  Elec       q    Type
REMARK                         _______ _______ _______ _____ _____    ______ ____
ROOT
ATOM      1  C   UNL     1      -0.896  -4.019   0.977  0.00  0.00    +0.042 C 
ENDROOT
BRANCH   1   2
ATOM      2  C   UNL     1      -0.144  -3.568  -0.283  0.00  0.00    +0.087 C 
BRANCH   2   6
ATOM      3  C   UNL     1       3.095  -2.430  -0.419  0.00  0.00    +0.093 C 
ATOM      4  C   UNL     1       2.581  -3.217   0.799  0.00  0.00    +0.044 C 
ATOM      5  C   UNL     1       2.030  -4.592   0.360  0.00  0.00    +0.059 C 
ATOM      6  N   UNL     1       0.975  -4.436  -0.646  0.00  0.00    -0.296 NA
ATOM      7  C   UNL     1       1.697  -4.001  -1.853  0.00  0.00    +0.059 C 
ATOM      8  C   UNL     1       2.822  -5.037  -1.905  0.00  0.00    +0.020 C 
ATOM      9  C   UNL     1       3.052  -5.421  -0.439  0.00  0.00    +0.020 C 
ATOM     10  C   UNL     1       2.259  -2.582  -1.703  0.00  0.00    +0.044 C 
BRANCH   3  13
ATOM     11  C   UNL     1       1.276   0.149   0.195  0.00  0.00    +0.088 C 
ATOM     12  C   UNL     1       2.744   0.069   0.020  0.00  0.00    +0.131 A 
ATOM     13  N   UNL     1       3.507  -1.058  -0.180  0.00  0.00    -0.312 N 
ATOM     14  C   UNL     1       4.809  -0.609  -0.319  0.00  0.00    +0.136 A 
ATOM     15  N   UNL     1       4.820   0.700  -0.209  0.00  0.00    -0.134 NA
ATOM     16  N   UNL     1       3.539   1.122   0.006  0.00  0.00    -0.135 NA
BRANCH  14  17
ATOM     17  C   UNL     1       5.995  -1.486  -0.620  0.00  0.00    +0.051 C 
ATOM     18  C   UNL     1       7.310  -0.848  -0.183  0.00  0.00    +0.015 C 
ATOM     19  C   UNL     1       6.049  -1.820  -2.115  0.00  0.00    +0.015 C 
ENDBRANCH  14  17
ENDBRANCH   3  13
ENDBRANCH   2   6
ENDBRANCH   1   2
BRANCH   1  20
ATOM     20  C   UNL     1      -2.004  -3.007   1.339  0.00  0.00    +0.104 C 
BRANCH  20  21
ATOM     21  C   UNL     1      -2.990  -2.844   0.200  0.00  0.00    -0.027 A 
ATOM     22  C   UNL     1      -3.090  -1.605  -0.452  0.00  0.00    +0.005 A 
ATOM     23  C   UNL     1      -3.849  -1.475  -1.613  0.00  0.00    +0.000 A 
ATOM     24  C   UNL     1      -4.525  -2.578  -2.127  0.00  0.00    +0.000 A 
ATOM     25  C   UNL     1      -4.462  -3.806  -1.473  0.00  0.00    +0.000 A 
ATOM     26  C   UNL     1      -3.705  -3.939  -0.311  0.00  0.00    +0.005 A 
ENDBRANCH  20  21
BRANCH  20  27
ATOM     27  N   UNL     1      -2.682  -3.387   2.566  0.00  0.00    -0.308 N 
ATOM     28  H   UNL     1      -3.492  -3.985   2.500  0.00  0.00    +0.149 HD
ATOM     29  C   UNL     1      -2.170  -3.054   3.803  0.00  0.00    +0.217 C 
ATOM     30  O   UNL     1      -1.174  -2.348   3.935  0.00  0.00    -0.275 OA
BRANCH  29  31
ATOM     31  C   UNL     1      -2.940  -3.654   4.978  0.00  0.00    +0.075 C 
ATOM     32  C   UNL     1      -2.456  -3.114   6.335  0.00  0.00    +0.018 C 
ATOM     33  C   UNL     1      -1.079  -3.641   6.748  0.00  0.00    +0.076 C 
ATOM     34  C   UNL     1      -0.998  -5.152   6.656  0.00  0.00    +0.249 C 
ATOM     35  F   UNL     1      -1.767  -5.698   7.636  0.00  0.00    -0.206 F 
ATOM     36  F   UNL     1       0.273  -5.557   6.895  0.00  0.00    -0.206 F 
ATOM     37  C   UNL     1      -1.460  -5.695   5.316  0.00  0.00    +0.076 C 
ATOM     38  C   UNL     1      -2.861  -5.192   4.964  0.00  0.00    +0.018 C 
ENDBRANCH  29  31
ENDBRANCH  20  27
ENDBRANCH   1  20
TORSDOF 8
