REMARK  Name = 
REMARK  3 active torsions:
REMARK  status: ('A' for Active; 'I' for Inactive)
REMARK    1  A    between atoms: C_3  and  C_4
REMARK    2  A    between atoms: C_5  and  C_6
REMARK    3  A    between atoms: C_6  and  C_18
REMARK                            x       y       z     vdW  Elec       q    Type
REMARK                         _______ _______ _______ _____ _____    ______ ____
ROOT
ATOM      1  C   UNL     1       2.990  -1.600   3.547  0.00  0.00    +0.293 C 
ATOM      2  O   UNL     1       3.894  -0.478   3.795  0.00  0.00    -0.441 OA
ATOM      3  C   UNL     1       5.121  -0.428   3.251  0.00  0.00    +0.234 C 
ATOM      4  S   UNL     1       5.853   1.051   3.130  0.00  0.00    +0.006 S 
ATOM      5  N   UNL     1       5.724  -1.591   2.891  0.00  0.00    -0.279 N 
ATOM      6  H   UNL     1       6.681  -1.520   2.569  0.00  0.00    +0.156 HD
ATOM      7  C   UNL     1       5.100  -2.831   2.951  0.00  0.00    +0.042 A 
ATOM      8  C   UNL     1       5.839  -3.980   2.665  0.00  0.00    +0.025 A 
ATOM      9  C   UNL     1       5.211  -5.224   2.663  0.00  0.00    +0.022 A 
ATOM     10  C   UNL     1       3.846  -5.303   2.919  0.00  0.00    +0.042 A 
ATOM     11 CL   UNL     1       3.059  -6.831   2.879  0.00  0.00    -0.084 Cl
ATOM     12  C   UNL     1       3.109  -4.150   3.201  0.00  0.00    +0.030 A 
ATOM     13  C   UNL     1       3.741  -2.893   3.255  0.00  0.00    +0.039 A 
ENDROOT
BRANCH   1  14
ATOM     14  C   UNL     1       2.035  -1.687   4.790  0.00  0.00    +0.446 C 
ATOM     15  F   UNL     1       2.362  -0.784   5.752  0.00  0.00    -0.165 F 
ATOM     16  F   UNL     1       2.061  -2.899   5.401  0.00  0.00    -0.165 F 
ATOM     17  F   UNL     1       0.736  -1.454   4.472  0.00  0.00    -0.165 F 
ENDBRANCH   1  14
BRANCH   1  19
ATOM     18  C   UNL     1       1.553  -0.831   1.241  0.00  0.00    -0.094 C 
ATOM     19  C   UNL     1       2.216  -1.186   2.306  0.00  0.00    -0.041 C 
BRANCH  18  21
ATOM     20  C   UNL     1       0.034   0.838   0.110  0.00  0.00    +0.017 C 
ATOM     21  C   UNL     1       0.860  -0.421   0.056  0.00  0.00    +0.064 C 
ATOM     22  C   UNL     1      -0.644  -0.500   0.028  0.00  0.00    +0.017 C 
ENDBRANCH  18  21
ENDBRANCH   1  19
TORSDOF 3
