REMARK  Name = 
REMARK  7 active torsions:
REMARK  status: ('A' for Active; 'I' for Inactive)
REMARK    1  A    between atoms: C_1  and  C_2
REMARK    2  A    between atoms: C_4  and  C_25
REMARK    3  A    between atoms: C_6  and  C_24
REMARK    4  A    between atoms: C_7  and  N_8
REMARK    5  A    between atoms: N_15  and  C_16
REMARK    6  A    between atoms: C_19  and  C_22
REMARK    7  A    between atoms: C_26  and  C_27
REMARK                            x       y       z     vdW  Elec       q    Type
REMARK                         _______ _______ _______ _____ _____    ______ ____
ROOT
ATOM      1  N   UNL     1       2.428  -2.378   0.034  0.00  0.00    -0.299 N 
ATOM      2  H   UNL     1       2.936  -3.214   0.293  0.00  0.00    +0.154 HD
ATOM      3  C   UNL     1       1.035  -2.596   0.124  0.00  0.00    +0.128 A 
ATOM      4  C   UNL     1       0.506  -3.741  -0.435  0.00  0.00    +0.063 A 
ATOM      5  C   UNL     1      -0.859  -3.886  -0.360  0.00  0.00    +0.118 A 
ATOM      6  N   UNL     1      -1.673  -2.984   0.218  0.00  0.00    -0.223 NA
ATOM      7  C   UNL     1      -1.088  -1.895   0.736  0.00  0.00    +0.221 A 
ATOM      8  N   UNL     1      -1.938  -0.944   1.305  0.00  0.00    -0.284 N 
ATOM      9  H   UNL     1      -2.894  -1.263   1.251  0.00  0.00    +0.155 HD
ATOM     10  N   UNL     1       0.238  -1.699   0.711  0.00  0.00    -0.199 NA
ENDROOT
BRANCH   1  13
ATOM     11  C   UNL     1       1.717   0.213  -1.376  0.00  0.00    +0.046 C 
ATOM     12  C   UNL     1       2.922  -0.005  -0.502  0.00  0.00    -0.028 A 
ATOM     13  C   UNL     1       3.196  -1.195   0.206  0.00  0.00    +0.038 A 
ATOM     14  C   UNL     1       4.336  -1.213   1.061  0.00  0.00    -0.028 A 
ATOM     15  C   UNL     1       4.596  -2.351   2.018  0.00  0.00    +0.046 C 
ATOM     16  C   UNL     1       5.260  -0.137   1.051  0.00  0.00    +0.013 A 
ATOM     17  C   UNL     1       5.055   0.982   0.244  0.00  0.00    -0.024 A 
ATOM     18  C   UNL     1       3.873   1.039  -0.497  0.00  0.00    +0.013 A 
BRANCH  17  19
ATOM     19  C   UNL     1       6.014   2.082   0.066  0.00  0.00    +0.019 C 
ATOM     20  C   UNL     1       6.859   2.568   0.987  0.00  0.00    +0.089 C 
BRANCH  20  21
ATOM     21  C   UNL     1       7.701   3.691   0.701  0.00  0.00    +0.091 C 
ATOM     22  N   UNL     1       8.378   4.598   0.468  0.00  0.00    -0.191 NA
ENDBRANCH  20  21
ENDBRANCH  17  19
ENDBRANCH   1  13
BRANCH   8  23
ATOM     23  C   UNL     1      -1.708   0.375   1.719  0.00  0.00    +0.034 A 
ATOM     24  C   UNL     1      -2.787   1.172   2.131  0.00  0.00    +0.024 A 
ATOM     25  C   UNL     1      -2.600   2.513   2.501  0.00  0.00    +0.020 A 
ATOM     26  C   UNL     1      -1.325   3.083   2.467  0.00  0.00    +0.052 A 
ATOM     27  C   UNL     1      -0.239   2.297   2.100  0.00  0.00    +0.020 A 
ATOM     28  C   UNL     1      -0.435   0.960   1.747  0.00  0.00    +0.024 A 
BRANCH  26  29
ATOM     29  C   UNL     1      -1.125   4.464   2.789  0.00  0.00    +0.099 C 
ATOM     30  N   UNL     1      -0.949   5.584   3.034  0.00  0.00    -0.191 NA
ENDBRANCH  26  29
ENDBRANCH   8  23
TORSDOF 5
