REMARK  Name = 
REMARK  7 active torsions:
REMARK  status: ('A' for Active; 'I' for Inactive)
REMARK    1  A    between atoms: C_1  and  C_2
REMARK    2  A    between atoms: C_4  and  C_25
REMARK    3  A    between atoms: C_6  and  C_24
REMARK    4  A    between atoms: C_7  and  N_8
REMARK    5  A    between atoms: N_15  and  C_16
REMARK    6  A    between atoms: C_19  and  C_22
REMARK    7  A    between atoms: C_26  and  C_27
REMARK                            x       y       z     vdW  Elec       q    Type
REMARK                         _______ _______ _______ _____ _____    ______ ____
ROOT
ATOM      1  N   UNL     1       2.421  -2.287  -0.124  0.00  0.00    -0.299 N 
ATOM      2  H   UNL     1       2.916  -3.121   0.167  0.00  0.00    +0.154 HD
ATOM      3  C   UNL     1       1.027  -2.505  -0.037  0.00  0.00    +0.128 A 
ATOM      4  C   UNL     1       0.492  -3.637  -0.617  0.00  0.00    +0.063 A 
ATOM      5  C   UNL     1      -0.871  -3.792  -0.517  0.00  0.00    +0.118 A 
ATOM      6  N   UNL     1      -1.678  -2.913   0.104  0.00  0.00    -0.223 NA
ATOM      7  C   UNL     1      -1.087  -1.835   0.637  0.00  0.00    +0.221 A 
ATOM      8  N   UNL     1      -1.926  -0.905   1.254  0.00  0.00    -0.284 N 
ATOM      9  H   UNL     1      -2.883  -1.223   1.211  0.00  0.00    +0.155 HD
ATOM     10  N   UNL     1       0.237  -1.628   0.588  0.00  0.00    -0.199 NA
ENDROOT
BRANCH   1  13
ATOM     11  C   UNL     1       1.688   0.327  -1.481  0.00  0.00    +0.046 C 
ATOM     12  C   UNL     1       2.911   0.095  -0.636  0.00  0.00    -0.028 A 
ATOM     13  C   UNL     1       3.193  -1.106   0.053  0.00  0.00    +0.038 A 
ATOM     14  C   UNL     1       4.349  -1.134   0.884  0.00  0.00    -0.028 A 
ATOM     15  C   UNL     1       4.628  -2.283   1.824  0.00  0.00    +0.046 C 
ATOM     16  C   UNL     1       5.274  -0.059   0.874  0.00  0.00    +0.013 A 
ATOM     17  C   UNL     1       5.056   1.071   0.088  0.00  0.00    -0.024 A 
ATOM     18  C   UNL     1       3.864   1.138  -0.635  0.00  0.00    +0.013 A 
BRANCH  17  19
ATOM     19  C   UNL     1       6.013   2.178  -0.085  0.00  0.00    +0.019 C 
ATOM     20  C   UNL     1       6.881   2.639   0.828  0.00  0.00    +0.089 C 
BRANCH  20  21
ATOM     21  C   UNL     1       7.714   3.763   0.554  0.00  0.00    +0.091 C 
ATOM     22  N   UNL     1       8.387   4.682   0.327  0.00  0.00    -0.191 NA
ENDBRANCH  20  21
ENDBRANCH  17  19
ENDBRANCH   1  13
BRANCH   8  23
ATOM     23  C   UNL     1      -1.687   0.407   1.687  0.00  0.00    +0.034 A 
ATOM     24  C   UNL     1      -2.759   1.199   2.126  0.00  0.00    +0.024 A 
ATOM     25  C   UNL     1      -2.565   2.535   2.509  0.00  0.00    +0.020 A 
ATOM     26  C   UNL     1      -1.291   3.102   2.463  0.00  0.00    +0.052 A 
ATOM     27  C   UNL     1      -0.209   2.320   2.073  0.00  0.00    +0.020 A 
ATOM     28  C   UNL     1      -0.412   0.989   1.706  0.00  0.00    +0.024 A 
BRANCH  26  29
ATOM     29  C   UNL     1      -1.084   4.480   2.801  0.00  0.00    +0.099 C 
ATOM     30  N   UNL     1      -0.910   5.597   3.063  0.00  0.00    -0.191 NA
ENDBRANCH  26  29
ENDBRANCH   8  23
TORSDOF 5
