REMARK  Name = 
REMARK  6 active torsions:
REMARK  status: ('A' for Active; 'I' for Inactive)
REMARK    1  A    between atoms: C_2  and  C_19
REMARK    2  A    between atoms: N_5  and  C1*_6
REMARK    3  A    between atoms: C2*_8  and  O2*_18
REMARK    4  A    between atoms: C3*_10  and  O3*_17
REMARK    5  A    between atoms: C4*_12  and  C5*_15
REMARK    6  A    between atoms: C5*_15  and  O5*_16
REMARK                            x       y       z     vdW  Elec       q    Type
REMARK                         _______ _______ _______ _____ _____    ______ ____
ROOT
ATOM      1  C1* UNL     1      -0.918  -2.502   0.052  0.00  0.00    +0.252 C 
ATOM      2  O4* UNL     1      -1.122  -2.944   1.410  0.00  0.00    -0.346 OA
ATOM      3  C4* UNL     1      -1.033  -4.397   1.397  0.00  0.00    +0.177 C 
ATOM      4  C3* UNL     1      -0.680  -4.818  -0.034  0.00  0.00    +0.178 C 
ATOM      5  C2* UNL     1      -0.045  -3.566  -0.614  0.00  0.00    +0.195 C 
ENDROOT
BRANCH   1   7
ATOM      6  C   UNL     1      -0.591  -0.259  -0.989  0.00  0.00    +0.122 A 
ATOM      7  N   UNL     1      -0.367  -1.161   0.017  0.00  0.00    -0.307 N 
ATOM      8  C   UNL     1       0.417  -0.547   0.951  0.00  0.00    +0.202 A 
ATOM      9  N   UNL     1       0.709   0.690   0.603  0.00  0.00    -0.231 NA
ATOM     10  C   UNL     1       0.075   0.891  -0.617  0.00  0.00    +0.143 A 
BRANCH  10  11
ATOM     11  C   UNL     1       0.118   2.143  -1.368  0.00  0.00    +0.261 C 
ATOM     12  N   UNL     1       0.850   3.125  -0.767  0.00  0.00    -0.324 N 
ATOM     13  H   UNL     1       0.933   4.024  -1.210  0.00  0.00    +0.145 HD
ATOM     14  H   UNL     1       1.295   2.929   0.122  0.00  0.00    +0.145 HD
ATOM     15  O   UNL     1      -0.448   2.326  -2.443  0.00  0.00    -0.269 OA
ENDBRANCH  10  11
ENDBRANCH   1   7
BRANCH   4  16
ATOM     16  O3* UNL     1      -1.893  -5.095  -0.764  0.00  0.00    -0.386 OA
ATOM     17  H3* UNL     1      -1.629  -5.609  -1.551  0.00  0.00    +0.210 HD
ENDBRANCH   4  16
BRANCH   5  18
ATOM     18  O2* UNL     1      -0.089  -3.575  -2.039  0.00  0.00    -0.385 OA
ATOM     19  H2* UNL     1      -1.027  -3.585  -2.300  0.00  0.00    +0.210 HD
ENDBRANCH   5  18
BRANCH   3  20
ATOM     20  C5* UNL     1       0.012  -4.842   2.422  0.00  0.00    +0.190 C 
BRANCH  20  21
ATOM     21  O5* UNL     1       1.306  -4.371   2.057  0.00  0.00    -0.392 OA
ATOM     22  H5* UNL     1       1.830  -4.310   2.876  0.00  0.00    +0.210 HD
ENDBRANCH  20  21
ENDBRANCH   3  20
TORSDOF 6
