REMARK  Name = 
REMARK  6 active torsions:
REMARK  status: ('A' for Active; 'I' for Inactive)
REMARK    1  A    between atoms: C_2  and  C_19
REMARK    2  A    between atoms: N_5  and  C1*_6
REMARK    3  A    between atoms: C2*_8  and  O2*_18
REMARK    4  A    between atoms: C3*_10  and  O3*_17
REMARK    5  A    between atoms: C4*_12  and  C5*_15
REMARK    6  A    between atoms: C5*_15  and  O5*_16
REMARK                            x       y       z     vdW  Elec       q    Type
REMARK                         _______ _______ _______ _____ _____    ______ ____
ROOT
ATOM      1  C1* UNL     1      -0.861  -2.506   0.059  0.00  0.00    +0.252 C 
ATOM      2  O4* UNL     1      -1.092  -2.973   1.406  0.00  0.00    -0.346 OA
ATOM      3  C4* UNL     1      -1.076  -4.423   1.367  0.00  0.00    +0.177 C 
ATOM      4  C3* UNL     1      -0.670  -4.836  -0.053  0.00  0.00    +0.178 C 
ATOM      5  C2* UNL     1       0.001  -3.585  -0.599  0.00  0.00    +0.195 C 
ENDROOT
BRANCH   1   7
ATOM      6  C   UNL     1      -1.015  -0.090   0.648  0.00  0.00    +0.122 A 
ATOM      7  N   UNL     1      -0.337  -1.155   0.113  0.00  0.00    -0.307 N 
ATOM      8  C   UNL     1       0.804  -0.665  -0.455  0.00  0.00    +0.202 A 
ATOM      9  N   UNL     1       0.911   0.638  -0.288  0.00  0.00    -0.231 NA
ATOM     10  C   UNL     1      -0.234   1.019   0.402  0.00  0.00    +0.143 A 
BRANCH  10  11
ATOM     11  C   UNL     1      -0.538   2.398   0.777  0.00  0.00    +0.261 C 
ATOM     12  N   UNL     1       0.421   3.293   0.403  0.00  0.00    -0.324 N 
ATOM     13  H   UNL     1       0.298   4.270   0.610  0.00  0.00    +0.145 HD
ATOM     14  H   UNL     1       1.238   2.954  -0.091  0.00  0.00    +0.145 HD
ATOM     15  O   UNL     1      -1.554   2.747   1.369  0.00  0.00    -0.269 OA
ENDBRANCH  10  11
ENDBRANCH   1   7
BRANCH   4  16
ATOM     16  O3* UNL     1      -1.850  -5.093  -0.835  0.00  0.00    -0.386 OA
ATOM     17  H3* UNL     1      -1.581  -5.692  -1.557  0.00  0.00    +0.210 HD
ENDBRANCH   4  16
BRANCH   5  18
ATOM     18  O2* UNL     1      -0.022  -3.559  -2.025  0.00  0.00    -0.385 OA
ATOM     19  H2* UNL     1      -0.955  -3.657  -2.295  0.00  0.00    +0.210 HD
ENDBRANCH   5  18
BRANCH   3  20
ATOM     20  C5* UNL     1      -0.117  -4.944   2.439  0.00  0.00    +0.190 C 
BRANCH  20  21
ATOM     21  O5* UNL     1       1.224  -4.547   2.168  0.00  0.00    -0.392 OA
ATOM     22  H5* UNL     1       1.436  -3.830   2.794  0.00  0.00    +0.210 HD
ENDBRANCH  20  21
ENDBRANCH   3  20
TORSDOF 6
