REMARK  Name = 
REMARK  4 active torsions:
REMARK  status: ('A' for Active; 'I' for Inactive)
REMARK    1  A    between atoms: C3*_2  and  O3*_20
REMARK    2  A    between atoms: C4*_4  and  C5*_18
REMARK    3  A    between atoms: C1*_7  and  N_9
REMARK    4  A    between atoms: C5*_18  and  O5*_19
REMARK                            x       y       z     vdW  Elec       q    Type
REMARK                         _______ _______ _______ _____ _____    ______ ____
ROOT
ATOM      1  C2* UNL     1      -0.831  -0.987  -0.175  0.00  0.00    +0.088 C 
ATOM      2  C1* UNL     1       0.696  -1.011  -0.042  0.00  0.00    +0.226 C 
ATOM      3  O4* UNL     1       1.146   0.357  -0.052  0.00  0.00    -0.348 OA
ATOM      4  C4* UNL     1       0.001   1.225  -0.195  0.00  0.00    +0.175 C 
ATOM      5  C3* UNL     1      -1.199   0.407   0.260  0.00  0.00    +0.150 C 
ENDROOT
BRANCH   2   6
ATOM      6  N   UNL     1       1.339  -1.780  -1.113  0.00  0.00    -0.273 N 
ATOM      7  C   UNL     1       0.994  -3.121  -1.228  0.00  0.00    +0.331 A 
ATOM      8  O   UNL     1       0.209  -3.699  -0.481  0.00  0.00    -0.246 OA
ATOM      9  N   UNL     1       1.552  -3.787  -2.285  0.00  0.00    -0.274 N 
ATOM     10  H   UNL     1       1.227  -4.729  -2.440  0.00  0.00    +0.173 HD
ATOM     11  C   UNL     1       2.303  -3.228  -3.283  0.00  0.00    +0.267 A 
ATOM     12  O   UNL     1       2.548  -3.852  -4.310  0.00  0.00    -0.267 OA
ATOM     13  C   UNL     1       2.765  -1.836  -3.036  0.00  0.00    +0.094 A 
ATOM     14  I   UNL     1       4.077  -0.950  -4.325  0.00  0.00    -0.037 I 
ATOM     15  C   UNL     1       2.252  -1.196  -1.977  0.00  0.00    +0.113 A 
ENDBRANCH   2   6
BRANCH   5  16
ATOM     16  O3* UNL     1      -1.310   0.446   1.681  0.00  0.00    -0.389 OA
ATOM     17  H3* UNL     1      -2.065  -0.113   1.939  0.00  0.00    +0.210 HD
ENDBRANCH   5  16
BRANCH   4  18
ATOM     18  C5* UNL     1      -0.123   1.663  -1.664  0.00  0.00    +0.190 C 
BRANCH  18  19
ATOM     19  O5* UNL     1       0.999   2.439  -2.081  0.00  0.00    -0.392 OA
ATOM     20  H5* UNL     1       1.170   3.112  -1.400  0.00  0.00    +0.210 HD
ENDBRANCH  18  19
ENDBRANCH   4  18
TORSDOF 4
