REMARK  Name = 
REMARK  4 active torsions:
REMARK  status: ('A' for Active; 'I' for Inactive)
REMARK    1  A    between atoms: C3*_2  and  O3*_20
REMARK    2  A    between atoms: C4*_4  and  C5*_18
REMARK    3  A    between atoms: C1*_7  and  N_9
REMARK    4  A    between atoms: C5*_18  and  O5*_19
REMARK                            x       y       z     vdW  Elec       q    Type
REMARK                         _______ _______ _______ _____ _____    ______ ____
ROOT
ATOM      1  C2* UNL     1      -0.832  -0.986  -0.177  0.00  0.00    +0.088 C 
ATOM      2  C1* UNL     1       0.695  -1.010  -0.047  0.00  0.00    +0.226 C 
ATOM      3  O4* UNL     1       1.143   0.358  -0.058  0.00  0.00    -0.348 OA
ATOM      4  C4* UNL     1      -0.002   1.227  -0.194  0.00  0.00    +0.175 C 
ATOM      5  C3* UNL     1      -1.201   0.407   0.263  0.00  0.00    +0.150 C 
ENDROOT
BRANCH   2   6
ATOM      6  N   UNL     1       1.337  -1.780  -1.117  0.00  0.00    -0.273 N 
ATOM      7  C   UNL     1       0.999  -3.122  -1.226  0.00  0.00    +0.331 A 
ATOM      8  O   UNL     1       0.219  -3.700  -0.473  0.00  0.00    -0.246 OA
ATOM      9  N   UNL     1       1.560  -3.793  -2.278  0.00  0.00    -0.274 N 
ATOM     10  H   UNL     1       1.244  -4.739  -2.425  0.00  0.00    +0.173 HD
ATOM     11  C   UNL     1       2.316  -3.238  -3.274  0.00  0.00    +0.267 A 
ATOM     12  O   UNL     1       2.577  -3.872  -4.292  0.00  0.00    -0.267 OA
ATOM     13  C   UNL     1       2.765  -1.840  -3.039  0.00  0.00    +0.094 A 
ATOM     14  I   UNL     1       4.080  -0.957  -4.328  0.00  0.00    -0.037 I 
ATOM     15  C   UNL     1       2.249  -1.196  -1.984  0.00  0.00    +0.113 A 
ENDBRANCH   2   6
BRANCH   5  16
ATOM     16  O3* UNL     1      -1.307   0.444   1.685  0.00  0.00    -0.389 OA
ATOM     17  H3* UNL     1      -2.062  -0.116   1.943  0.00  0.00    +0.210 HD
ENDBRANCH   5  16
BRANCH   4  18
ATOM     18  C5* UNL     1      -0.130   1.669  -1.661  0.00  0.00    +0.190 C 
BRANCH  18  19
ATOM     19  O5* UNL     1       0.992   2.444  -2.080  0.00  0.00    -0.392 OA
ATOM     20  H5* UNL     1       1.175   3.106  -1.390  0.00  0.00    +0.210 HD
ENDBRANCH  18  19
ENDBRANCH   4  18
TORSDOF 4
