REMARK  Name = 
REMARK  18 active torsions:
REMARK  status: ('A' for Active; 'I' for Inactive)
REMARK    1  A    between atoms: C_1  and  C_2
REMARK    2  A    between atoms: C_2  and  C_3
REMARK    3  A    between atoms: C_3  and  C_4
REMARK    4  A    between atoms: C_4  and  C_6
REMARK    5  A    between atoms: C_4  and  N_14
REMARK    6  A    between atoms: C_6  and  C_8
REMARK    7  A    between atoms: N_10  and  C_11
REMARK    8  A    between atoms: C_15  and  C_17
REMARK    9  A    between atoms: C_28  and  C_30
REMARK   10  A    between atoms: C_30  and  C_32
REMARK   11  A    between atoms: C_30  and  N_36
REMARK   12  A    between atoms: C_32  and  C_33
REMARK   13  A    between atoms: C_32  and  C_34
REMARK   14  A    between atoms: C_32  and  C_35
REMARK   15  A    between atoms: C_37  and  C_39
REMARK   16  A    between atoms: C_39  and  C_41
REMARK   17  A    between atoms: C_39  and  N_47
REMARK   18  A    between atoms: C_48  and  C_50
REMARK                            x       y       z     vdW  Elec       q    Type
REMARK                         _______ _______ _______ _____ _____    ______ ____
ROOT
ATOM      1  C   UNL     1      14.435  -4.737   4.776  0.00  0.00    +0.165 C 
ATOM      2  N   UNL     1      14.061  -3.313   4.579  0.00  0.00    -0.288 N 
ATOM      3  C   UNL     1      13.074  -2.710   3.782  0.00  0.00    +0.237 C 
ATOM      4  O   UNL     1      13.172  -1.502   3.524  0.00  0.00    -0.274 OA
ATOM      5  C   UNL     1      15.184  -2.442   4.955  0.00  0.00    +0.112 C 
ATOM      6  C   UNL     1      16.284  -3.310   5.547  0.00  0.00    +0.012 C 
ATOM      7  C   UNL     1      17.477  -3.579   4.634  0.00  0.00    +0.005 C 
ATOM      8  C   UNL     1      17.822  -5.056   4.790  0.00  0.00    +0.001 C 
ATOM      9  C   UNL     1      16.733  -5.685   5.650  0.00  0.00    +0.006 C 
ATOM     10  C   UNL     1      15.620  -4.654   5.789  0.00  0.00    +0.023 C 
ENDROOT
BRANCH   1  13
ATOM     11  N   UNL     1      13.428  -6.997   4.900  0.00  0.00    -0.304 N 
ATOM     12  H   UNL     1      13.752  -7.136   3.943  0.00  0.00    +0.149 HD
ATOM     13  C   UNL     1      13.432  -5.718   5.442  0.00  0.00    +0.234 C 
ATOM     14  O   UNL     1      12.778  -5.430   6.441  0.00  0.00    -0.274 OA
BRANCH  11  15
ATOM     15  C   UNL     1      12.704  -8.112   5.534  0.00  0.00    +0.149 C 
BRANCH  15  16
ATOM     16  C   UNL     1      13.361  -9.489   5.327  0.00  0.00    +0.237 C 
ATOM     17  O   UNL     1      13.277 -10.412   6.139  0.00  0.00    -0.285 OA
BRANCH  16  18
ATOM     18  C   UNL     1      14.035  -9.794   3.988  0.00  0.00    +0.282 C 
ATOM     19  N   UNL     1      14.631 -11.039   3.953  0.00  0.00    -0.306 N 
ATOM     20  H   UNL     1      14.578 -11.589   4.804  0.00  0.00    +0.149 HD
ATOM     21  O   UNL     1      14.003  -8.973   3.086  0.00  0.00    -0.267 OA
BRANCH  19  22
ATOM     22  C   UNL     1      15.347 -11.555   2.828  0.00  0.00    +0.073 C 
ATOM     23  C   UNL     1      14.761 -12.617   1.935  0.00  0.00    +0.024 C 
ATOM     24  C   UNL     1      15.905 -12.963   2.852  0.00  0.00    +0.024 C 
ENDBRANCH  19  22
ENDBRANCH  16  18
ENDBRANCH  15  16
BRANCH  15  25
ATOM     25  C   UNL     1      11.234  -8.123   5.076  0.00  0.00    +0.030 C 
BRANCH  25  27
ATOM     26  C   UNL     1       8.889  -8.976   5.492  0.00  0.00    +0.004 C 
ATOM     27  C   UNL     1      10.354  -9.089   5.880  0.00  0.00    -0.001 C 
ENDBRANCH  25  27
ENDBRANCH  15  25
ENDBRANCH  11  15
ENDBRANCH   1  13
BRANCH   3  28
ATOM     28  C   UNL     1      11.819  -3.499   3.254  0.00  0.00    +0.164 C 
BRANCH  28  29
ATOM     29  N   UNL     1      10.546  -3.120   3.933  0.00  0.00    -0.302 N 
ATOM     30  H   UNL     1      10.202  -3.753   4.644  0.00  0.00    +0.150 HD
ATOM     31  C   UNL     1       9.850  -1.930   3.819  0.00  0.00    +0.234 C 
ATOM     32  O   UNL     1      10.167  -1.027   3.050  0.00  0.00    -0.274 OA
BRANCH  31  33
ATOM     33  C   UNL     1       8.692  -1.700   4.840  0.00  0.00    +0.162 C 
BRANCH  33  34
ATOM     34  C   UNL     1       9.030  -0.990   6.185  0.00  0.00    +0.018 C 
ATOM     35  C   UNL     1       9.710   0.382   6.022  0.00  0.00    +0.006 C 
ATOM     36  C   UNL     1      11.197   0.305   5.697  0.00  0.00    +0.000 C 
ATOM     37  C   UNL     1      11.971  -0.649   6.596  0.00  0.00    +0.000 C 
ATOM     38  C   UNL     1      11.274  -1.957   6.954  0.00  0.00    +0.000 C 
ATOM     39  C   UNL     1       9.792  -1.799   7.244  0.00  0.00    +0.006 C 
ENDBRANCH  33  34
BRANCH  33  40
ATOM     40  N   UNL     1       7.935  -2.936   5.056  0.00  0.00    -0.298 N 
ATOM     41  H   UNL     1       7.838  -3.333   5.986  0.00  0.00    +0.150 HD
ATOM     42  C   UNL     1       7.007  -3.364   4.123  0.00  0.00    +0.264 C 
ATOM     43  O   UNL     1       6.875  -2.873   3.009  0.00  0.00    -0.268 OA
BRANCH  42  44
ATOM     44  C   UNL     1       6.138  -4.486   4.568  0.00  0.00    +0.143 A 
ATOM     45  C   UNL     1       5.192  -5.015   3.701  0.00  0.00    +0.143 A 
ATOM     46  N   UNL     1       4.395  -6.057   4.050  0.00  0.00    -0.259 NA
ATOM     47  C   UNL     1       4.583  -6.534   5.302  0.00  0.00    +0.130 A 
ATOM     48  C   UNL     1       5.521  -5.996   6.172  0.00  0.00    +0.131 A 
ATOM     49  N   UNL     1       6.326  -4.961   5.834  0.00  0.00    -0.247 NA
ENDBRANCH  42  44
ENDBRANCH  33  40
ENDBRANCH  31  33
ENDBRANCH  28  29
BRANCH  28  50
ATOM     50  C   UNL     1      11.765  -3.615   1.675  0.00  0.00    -0.011 C 
ATOM     51  C   UNL     1      10.881  -4.825   1.293  0.00  0.00    +0.013 C 
ATOM     52  C   UNL     1      13.191  -3.856   1.127  0.00  0.00    +0.013 C 
ATOM     53  C   UNL     1      11.215  -2.404   0.897  0.00  0.00    +0.013 C 
ENDBRANCH  28  50
ENDBRANCH   3  28
TORSDOF 14
