REMARK  Name = 
REMARK  18 active torsions:
REMARK  status: ('A' for Active; 'I' for Inactive)
REMARK    1  A    between atoms: C_1  and  C_2
REMARK    2  A    between atoms: C_2  and  C_3
REMARK    3  A    between atoms: C_3  and  C_4
REMARK    4  A    between atoms: C_4  and  C_6
REMARK    5  A    between atoms: C_4  and  N_14
REMARK    6  A    between atoms: C_6  and  C_8
REMARK    7  A    between atoms: N_10  and  C_11
REMARK    8  A    between atoms: C_15  and  C_17
REMARK    9  A    between atoms: C_28  and  C_30
REMARK   10  A    between atoms: C_30  and  C_32
REMARK   11  A    between atoms: C_30  and  N_36
REMARK   12  A    between atoms: C_32  and  C_33
REMARK   13  A    between atoms: C_32  and  C_34
REMARK   14  A    between atoms: C_32  and  C_35
REMARK   15  A    between atoms: C_37  and  C_39
REMARK   16  A    between atoms: C_39  and  C_41
REMARK   17  A    between atoms: C_39  and  N_47
REMARK   18  A    between atoms: C_48  and  C_50
REMARK                            x       y       z     vdW  Elec       q    Type
REMARK                         _______ _______ _______ _____ _____    ______ ____
ROOT
ATOM      1  C   UNL     1       8.683  -3.112   3.817  0.00  0.00    +0.165 C 
ATOM      2  N   UNL     1       9.974  -3.779   4.107  0.00  0.00    -0.288 N 
ATOM      3  C   UNL     1      10.185  -5.002   4.751  0.00  0.00    +0.237 C 
ATOM      4  O   UNL     1      11.215  -5.161   5.431  0.00  0.00    -0.274 OA
ATOM      5  C   UNL     1      10.991  -2.761   4.435  0.00  0.00    +0.112 C 
ATOM      6  C   UNL     1      10.350  -1.391   4.295  0.00  0.00    +0.012 C 
ATOM      7  C   UNL     1       9.839  -0.734   5.585  0.00  0.00    +0.005 C 
ATOM      8  C   UNL     1       8.386  -0.338   5.332  0.00  0.00    +0.001 C 
ATOM      9  C   UNL     1       8.148  -0.569   3.852  0.00  0.00    +0.006 C 
ATOM     10  C   UNL     1       9.120  -1.664   3.455  0.00  0.00    +0.023 C 
ENDROOT
BRANCH   1  13
ATOM     11  N   UNL     1       7.833  -3.421   1.410  0.00  0.00    -0.304 N 
ATOM     12  H   UNL     1       8.685  -2.959   1.111  0.00  0.00    +0.149 HD
ATOM     13  C   UNL     1       7.585  -3.483   2.766  0.00  0.00    +0.234 C 
ATOM     14  O   UNL     1       6.420  -3.590   3.150  0.00  0.00    -0.274 OA
BRANCH  11  15
ATOM     15  C   UNL     1       6.720  -3.426   0.413  0.00  0.00    +0.149 C 
BRANCH  15  16
ATOM     16  C   UNL     1       5.888  -2.130   0.430  0.00  0.00    +0.237 C 
ATOM     17  O   UNL     1       4.730  -2.004   0.034  0.00  0.00    -0.285 OA
BRANCH  16  18
ATOM     18  C   UNL     1       6.589  -0.836   0.802  0.00  0.00    +0.282 C 
ATOM     19  N   UNL     1       5.750  -0.007   1.508  0.00  0.00    -0.306 N 
ATOM     20  H   UNL     1       4.827  -0.379   1.718  0.00  0.00    +0.149 HD
ATOM     21  O   UNL     1       7.741  -0.626   0.458  0.00  0.00    -0.267 OA
BRANCH  19  22
ATOM     22  C   UNL     1       5.986   1.357   1.826  0.00  0.00    +0.073 C 
ATOM     23  C   UNL     1       5.748   1.886   3.210  0.00  0.00    +0.024 C 
ATOM     24  C   UNL     1       4.780   2.214   2.120  0.00  0.00    +0.024 C 
ENDBRANCH  19  22
ENDBRANCH  16  18
ENDBRANCH  15  16
BRANCH  15  25
ATOM     25  C   UNL     1       5.829  -4.694   0.478  0.00  0.00    +0.030 C 
BRANCH  25  27
ATOM     26  C   UNL     1       3.975  -6.108  -0.535  0.00  0.00    +0.004 C 
ATOM     27  C   UNL     1       4.803  -4.836  -0.662  0.00  0.00    -0.001 C 
ENDBRANCH  25  27
ENDBRANCH  15  25
ENDBRANCH  11  15
ENDBRANCH   1  13
BRANCH   3  28
ATOM     28  C   UNL     1       9.307  -6.279   4.531  0.00  0.00    +0.164 C 
BRANCH  28  29
ATOM     29  N   UNL     1       7.891  -6.043   4.870  0.00  0.00    -0.302 N 
ATOM     30  H   UNL     1       7.758  -5.663   5.803  0.00  0.00    +0.150 HD
ATOM     31  C   UNL     1       6.773  -6.632   4.323  0.00  0.00    +0.234 C 
ATOM     32  O   UNL     1       6.742  -7.201   3.237  0.00  0.00    -0.274 OA
BRANCH  31  33
ATOM     33  C   UNL     1       5.470  -6.501   5.137  0.00  0.00    +0.162 C 
BRANCH  33  34
ATOM     34  C   UNL     1       4.754  -7.879   5.174  0.00  0.00    +0.018 C 
ATOM     35  C   UNL     1       3.392  -7.800   5.881  0.00  0.00    +0.006 C 
ATOM     36  C   UNL     1       3.541  -7.465   7.363  0.00  0.00    +0.000 C 
ATOM     37  C   UNL     1       4.483  -8.433   8.080  0.00  0.00    +0.000 C 
ATOM     38  C   UNL     1       5.813  -8.639   7.357  0.00  0.00    +0.000 C 
ATOM     39  C   UNL     1       5.606  -8.955   5.878  0.00  0.00    +0.006 C 
ENDBRANCH  33  34
BRANCH  33  40
ATOM     40  N   UNL     1       4.627  -5.501   4.489  0.00  0.00    -0.298 N 
ATOM     41  H   UNL     1       4.448  -5.594   3.494  0.00  0.00    +0.150 HD
ATOM     42  C   UNL     1       4.484  -4.236   5.022  0.00  0.00    +0.264 C 
ATOM     43  O   UNL     1       4.924  -3.907   6.122  0.00  0.00    -0.268 OA
BRANCH  42  44
ATOM     44  C   UNL     1       3.794  -3.236   4.159  0.00  0.00    +0.143 A 
ATOM     45  C   UNL     1       4.003  -1.885   4.402  0.00  0.00    +0.143 A 
ATOM     46  N   UNL     1       3.458  -0.908   3.629  0.00  0.00    -0.259 NA
ATOM     47  C   UNL     1       2.664  -1.359   2.634  0.00  0.00    +0.130 A 
ATOM     48  C   UNL     1       2.462  -2.707   2.380  0.00  0.00    +0.131 A 
ATOM     49  N   UNL     1       3.024  -3.685   3.127  0.00  0.00    -0.247 NA
ENDBRANCH  42  44
ENDBRANCH  33  40
ENDBRANCH  31  33
ENDBRANCH  28  29
BRANCH  28  50
ATOM     50  C   UNL     1       9.765  -7.145   3.286  0.00  0.00    -0.011 C 
ATOM     51  C   UNL     1       9.417  -8.644   3.485  0.00  0.00    +0.013 C 
ATOM     52  C   UNL     1      11.317  -7.135   3.153  0.00  0.00    +0.013 C 
ATOM     53  C   UNL     1       9.239  -6.621   1.944  0.00  0.00    +0.013 C 
ENDBRANCH  28  50
ENDBRANCH   3  28
TORSDOF 14
