REMARK  Name = 
REMARK  18 active torsions:
REMARK  status: ('A' for Active; 'I' for Inactive)
REMARK    1  A    between atoms: C_1  and  C_2
REMARK    2  A    between atoms: C_2  and  C_3
REMARK    3  A    between atoms: C_3  and  C_4
REMARK    4  A    between atoms: C_4  and  C_5
REMARK    5  A    between atoms: C_4  and  N_13
REMARK    6  A    between atoms: C_5  and  C_7
REMARK    7  A    between atoms: N_9  and  C_10
REMARK    8  A    between atoms: C_14  and  C_16
REMARK    9  A    between atoms: C_27  and  C_29
REMARK   10  A    between atoms: C_29  and  C_31
REMARK   11  A    between atoms: C_29  and  N_35
REMARK   12  A    between atoms: C_31  and  C_32
REMARK   13  A    between atoms: C_31  and  C_33
REMARK   14  A    between atoms: C_31  and  C_34
REMARK   15  A    between atoms: C_36  and  C_38
REMARK   16  A    between atoms: C_38  and  C_40
REMARK   17  A    between atoms: C_38  and  N_46
REMARK   18  A    between atoms: C_47  and  C_49
REMARK                            x       y       z     vdW  Elec       q    Type
REMARK                         _______ _______ _______ _____ _____    ______ ____
ROOT
ATOM      1  C   UNL     1       1.751  -4.549   3.835  0.00  0.00    +0.165 C 
ATOM      2  N   UNL     1       2.866  -3.775   4.393  0.00  0.00    -0.288 N 
ATOM      3  C   UNL     1       4.171  -4.227   4.615  0.00  0.00    +0.237 C 
ATOM      4  O   UNL     1       4.873  -3.714   5.492  0.00  0.00    -0.274 OA
ATOM      5  C   UNL     1       2.337  -2.717   5.260  0.00  0.00    +0.112 C 
ATOM      6  C   UNL     1       0.809  -2.778   5.160  0.00  0.00    +0.012 C 
ATOM      7  C   UNL     1       0.099  -3.541   6.288  0.00  0.00    +0.005 C 
ATOM      8  C   UNL     1      -0.842  -4.552   5.629  0.00  0.00    +0.001 C 
ATOM      9  C   UNL     1      -0.790  -4.277   4.135  0.00  0.00    +0.006 C 
ATOM     10  C   UNL     1       0.548  -3.592   3.903  0.00  0.00    +0.023 C 
ENDROOT
BRANCH   1  13
ATOM     11  N   UNL     1       2.220  -4.143   1.452  0.00  0.00    -0.304 N 
ATOM     12  H   UNL     1       2.562  -3.250   1.790  0.00  0.00    +0.149 HD
ATOM     13  C   UNL     1       1.843  -5.063   2.403  0.00  0.00    +0.234 C 
ATOM     14  O   UNL     1       1.477  -6.210   2.163  0.00  0.00    -0.274 OA
BRANCH  11  15
ATOM     15  C   UNL     1       2.407  -4.436   0.014  0.00  0.00    +0.149 C 
BRANCH  15  16
ATOM     16  C   UNL     1       1.916  -3.211  -0.756  0.00  0.00    +0.237 C 
ATOM     17  O   UNL     1       0.846  -2.637  -0.560  0.00  0.00    -0.285 OA
BRANCH  16  18
ATOM     18  C   UNL     1       2.815  -2.703  -1.883  0.00  0.00    +0.282 C 
ATOM     19  N   UNL     1       2.149  -1.892  -2.780  0.00  0.00    -0.306 N 
ATOM     20  H   UNL     1       1.167  -1.706  -2.589  0.00  0.00    +0.149 HD
ATOM     21  O   UNL     1       3.991  -3.021  -1.935  0.00  0.00    -0.267 OA
BRANCH  19  22
ATOM     22  C   UNL     1       2.775  -1.321  -3.926  0.00  0.00    +0.073 C 
ATOM     23  C   UNL     1       3.089   0.148  -3.985  0.00  0.00    +0.024 C 
ATOM     24  C   UNL     1       1.999  -0.419  -4.846  0.00  0.00    +0.024 C 
ENDBRANCH  19  22
ENDBRANCH  16  18
ENDBRANCH  15  16
BRANCH  15  25
ATOM     25  C   UNL     1       1.643  -5.678  -0.469  0.00  0.00    +0.030 C 
BRANCH  25  27
ATOM     26  C   UNL     1       0.983  -7.283  -2.253  0.00  0.00    +0.004 C 
ATOM     27  C   UNL     1       1.762  -6.007  -1.952  0.00  0.00    -0.001 C 
ENDBRANCH  25  27
ENDBRANCH  15  25
ENDBRANCH  11  15
ENDBRANCH   1  13
BRANCH   3  28
ATOM     28  C   UNL     1       4.794  -5.319   3.678  0.00  0.00    +0.164 C 
BRANCH  28  29
ATOM     29  N   UNL     1       6.161  -4.882   3.305  0.00  0.00    -0.302 N 
ATOM     30  H   UNL     1       6.792  -4.658   4.067  0.00  0.00    +0.150 HD
ATOM     31  C   UNL     1       6.622  -4.890   2.003  0.00  0.00    +0.234 C 
ATOM     32  O   UNL     1       5.859  -5.138   1.059  0.00  0.00    -0.274 OA
BRANCH  31  33
ATOM     33  C   UNL     1       8.127  -4.602   1.780  0.00  0.00    +0.162 C 
BRANCH  33  34
ATOM     34  C   UNL     1       8.632  -3.133   1.917  0.00  0.00    +0.018 C 
ATOM     35  C   UNL     1       8.678  -2.552   3.344  0.00  0.00    +0.006 C 
ATOM     36  C   UNL     1       7.420  -1.832   3.830  0.00  0.00    +0.000 C 
ATOM     37  C   UNL     1       6.724  -0.975   2.780  0.00  0.00    +0.000 C 
ATOM     38  C   UNL     1       6.603  -1.675   1.435  0.00  0.00    +0.000 C 
ATOM     39  C   UNL     1       7.969  -2.140   0.952  0.00  0.00    +0.006 C 
ENDBRANCH  33  34
BRANCH  33  40
ATOM     40  N   UNL     1       8.446  -5.120   0.428  0.00  0.00    -0.298 N 
ATOM     41  H   UNL     1       7.719  -5.067  -0.286  0.00  0.00    +0.150 HD
ATOM     42  C   UNL     1       9.631  -5.733   0.103  0.00  0.00    +0.264 C 
ATOM     43  O   UNL     1      10.533  -5.913   0.918  0.00  0.00    -0.268 OA
BRANCH  42  44
ATOM     44  C   UNL     1       9.799  -6.177  -1.319  0.00  0.00    +0.143 A 
ATOM     45  C   UNL     1      11.000  -6.755  -1.714  0.00  0.00    +0.143 A 
ATOM     46  N   UNL     1      11.246  -7.136  -2.996  0.00  0.00    -0.259 NA
ATOM     47  C   UNL     1      10.235  -6.916  -3.865  0.00  0.00    +0.130 A 
ATOM     48  C   UNL     1       9.027  -6.352  -3.472  0.00  0.00    +0.131 A 
ATOM     49  N   UNL     1       8.774  -5.962  -2.195  0.00  0.00    -0.247 NA
ENDBRANCH  42  44
ENDBRANCH  33  40
ENDBRANCH  31  33
ENDBRANCH  28  29
BRANCH  28  50
ATOM     50  C   UNL     1       4.835  -6.777   4.247  0.00  0.00    -0.011 C 
ATOM     51  C   UNL     1       5.299  -7.737   3.126  0.00  0.00    +0.013 C 
ATOM     52  C   UNL     1       3.463  -7.276   4.721  0.00  0.00    +0.013 C 
ATOM     53  C   UNL     1       5.800  -6.909   5.441  0.00  0.00    +0.013 C 
ENDBRANCH  28  50
ENDBRANCH   3  28
TORSDOF 14
