REMARK  Name = 
REMARK  18 active torsions:
REMARK  status: ('A' for Active; 'I' for Inactive)
REMARK    1  A    between atoms: C_1  and  C_2
REMARK    2  A    between atoms: C_2  and  C_3
REMARK    3  A    between atoms: C_3  and  C_4
REMARK    4  A    between atoms: C_4  and  C_5
REMARK    5  A    between atoms: C_4  and  N_13
REMARK    6  A    between atoms: C_5  and  C_7
REMARK    7  A    between atoms: N_9  and  C_10
REMARK    8  A    between atoms: C_14  and  C_16
REMARK    9  A    between atoms: C_27  and  C_29
REMARK   10  A    between atoms: C_29  and  C_31
REMARK   11  A    between atoms: C_29  and  N_35
REMARK   12  A    between atoms: C_31  and  C_32
REMARK   13  A    between atoms: C_31  and  C_33
REMARK   14  A    between atoms: C_31  and  C_34
REMARK   15  A    between atoms: C_36  and  C_38
REMARK   16  A    between atoms: C_38  and  C_40
REMARK   17  A    between atoms: C_38  and  N_46
REMARK   18  A    between atoms: C_47  and  C_49
REMARK                            x       y       z     vdW  Elec       q    Type
REMARK                         _______ _______ _______ _____ _____    ______ ____
ROOT
ATOM      1  C   UNL     1       5.867  -7.019  -1.165  0.00  0.00    +0.165 C 
ATOM      2  N   UNL     1       5.054  -6.196  -2.107  0.00  0.00    -0.288 N 
ATOM      3  C   UNL     1       3.697  -6.246  -2.445  0.00  0.00    +0.237 C 
ATOM      4  O   UNL     1       3.330  -5.839  -3.552  0.00  0.00    -0.274 OA
ATOM      5  C   UNL     1       5.911  -5.721  -3.198  0.00  0.00    +0.112 C 
ATOM      6  C   UNL     1       7.345  -6.010  -2.793  0.00  0.00    +0.012 C 
ATOM      7  C   UNL     1       7.978  -7.271  -3.401  0.00  0.00    +0.005 C 
ATOM      8  C   UNL     1       8.649  -8.018  -2.246  0.00  0.00    +0.001 C 
ATOM      9  C   UNL     1       8.495  -7.124  -1.029  0.00  0.00    +0.006 C 
ATOM     10  C   UNL     1       7.242  -6.309  -1.305  0.00  0.00    +0.023 C 
ENDROOT
BRANCH   1  13
ATOM     11  N   UNL     1       6.363  -6.847   1.311  0.00  0.00    -0.304 N 
ATOM     12  H   UNL     1       7.173  -6.285   1.061  0.00  0.00    +0.149 HD
ATOM     13  C   UNL     1       5.541  -7.357   0.333  0.00  0.00    +0.234 C 
ATOM     14  O   UNL     1       4.619  -8.113   0.638  0.00  0.00    -0.274 OA
BRANCH  11  15
ATOM     15  C   UNL     1       6.303  -7.275   2.714  0.00  0.00    +0.149 C 
BRANCH  15  16
ATOM     16  C   UNL     1       6.649  -6.126   3.659  0.00  0.00    +0.237 C 
ATOM     17  O   UNL     1       6.250  -6.049   4.820  0.00  0.00    -0.285 OA
BRANCH  16  18
ATOM     18  C   UNL     1       7.685  -5.089   3.196  0.00  0.00    +0.282 C 
ATOM     19  N   UNL     1       7.849  -4.067   4.110  0.00  0.00    -0.306 N 
ATOM     20  H   UNL     1       7.286  -4.136   4.957  0.00  0.00    +0.149 HD
ATOM     21  O   UNL     1       8.265  -5.209   2.125  0.00  0.00    -0.267 OA
BRANCH  19  22
ATOM     22  C   UNL     1       8.766  -2.991   3.958  0.00  0.00    +0.073 C 
ATOM     23  C   UNL     1       9.996  -2.902   4.819  0.00  0.00    +0.024 C 
ATOM     24  C   UNL     1       8.865  -1.941   5.034  0.00  0.00    +0.024 C 
ENDBRANCH  19  22
ENDBRANCH  16  18
ENDBRANCH  15  16
BRANCH  15  25
ATOM     25  C   UNL     1       7.262  -8.463   2.938  0.00  0.00    +0.030 C 
BRANCH  25  27
ATOM     26  C   UNL     1       5.880  -9.667   4.730  0.00  0.00    +0.004 C 
ATOM     27  C   UNL     1       7.235  -9.103   4.334  0.00  0.00    -0.001 C 
ENDBRANCH  25  27
ENDBRANCH  15  25
ENDBRANCH  11  15
ENDBRANCH   1  13
BRANCH   3  28
ATOM     28  C   UNL     1       2.651  -6.623  -1.375  0.00  0.00    +0.164 C 
BRANCH  28  29
ATOM     29  N   UNL     1       2.289  -5.432  -0.586  0.00  0.00    -0.302 N 
ATOM     30  H   UNL     1       2.989  -5.200   0.114  0.00  0.00    +0.150 HD
ATOM     31  C   UNL     1       1.592  -4.310  -1.013  0.00  0.00    +0.234 C 
ATOM     32  O   UNL     1       1.134  -4.171  -2.142  0.00  0.00    -0.274 OA
BRANCH  31  33
ATOM     33  C   UNL     1       1.626  -3.158   0.050  0.00  0.00    +0.162 C 
BRANCH  33  34
ATOM     34  C   UNL     1       0.336  -2.375   0.421  0.00  0.00    +0.018 C 
ATOM     35  C   UNL     1      -0.749  -3.274   1.028  0.00  0.00    +0.006 C 
ATOM     36  C   UNL     1      -1.446  -4.129  -0.018  0.00  0.00    +0.000 C 
ATOM     37  C   UNL     1      -2.009  -3.310  -1.178  0.00  0.00    +0.000 C 
ATOM     38  C   UNL     1      -1.126  -2.171  -1.692  0.00  0.00    +0.000 C 
ATOM     39  C   UNL     1      -0.315  -1.455  -0.620  0.00  0.00    +0.006 C 
ENDBRANCH  33  34
BRANCH  33  40
ATOM     40  N   UNL     1       2.724  -2.271  -0.319  0.00  0.00    -0.298 N 
ATOM     41  H   UNL     1       2.562  -1.509  -0.975  0.00  0.00    +0.150 HD
ATOM     42  C   UNL     1       4.041  -2.666  -0.153  0.00  0.00    +0.264 C 
ATOM     43  O   UNL     1       4.363  -3.707   0.416  0.00  0.00    -0.268 OA
BRANCH  42  44
ATOM     44  C   UNL     1       5.060  -1.756  -0.737  0.00  0.00    +0.143 A 
ATOM     45  C   UNL     1       6.402  -2.092  -0.645  0.00  0.00    +0.143 A 
ATOM     46  N   UNL     1       7.388  -1.304  -1.161  0.00  0.00    -0.259 NA
ATOM     47  C   UNL     1       6.955  -0.175  -1.764  0.00  0.00    +0.130 A 
ATOM     48  C   UNL     1       5.611   0.164  -1.851  0.00  0.00    +0.131 A 
ATOM     49  N   UNL     1       4.625  -0.615  -1.341  0.00  0.00    -0.247 NA
ENDBRANCH  42  44
ENDBRANCH  33  40
ENDBRANCH  31  33
ENDBRANCH  28  29
BRANCH  28  50
ATOM     50  C   UNL     1       1.525  -7.604  -1.850  0.00  0.00    -0.011 C 
ATOM     51  C   UNL     1       0.813  -8.208  -0.617  0.00  0.00    +0.013 C 
ATOM     52  C   UNL     1       2.183  -8.785  -2.610  0.00  0.00    +0.013 C 
ATOM     53  C   UNL     1       0.452  -6.991  -2.758  0.00  0.00    +0.013 C 
ENDBRANCH  28  50
ENDBRANCH   3  28
TORSDOF 14
