REMARK  Name = 
REMARK  14 active torsions:
REMARK  status: ('A' for Active; 'I' for Inactive)
REMARK    1  A    between atoms: CD1_1  and  CG1_2
REMARK    2  A    between atoms: CG1_2  and  CB_3
REMARK    3  A    between atoms: CB_3  and  CG2_4
REMARK    4  A    between atoms: CB_3  and  CA_5
REMARK    5  A    between atoms: CA_5  and  C_6
REMARK    6  A    between atoms: CA_5  and  N_24
REMARK    7  A    between atoms: CA_12  and  C_13
REMARK    8  A    between atoms: N_15  and  CA_16
REMARK    9  A    between atoms: CA_16  and  CB_17
REMARK   10  A    between atoms: CA_16  and  C_21
REMARK   11  A    between atoms: CB_17  and  CG2_18
REMARK   12  A    between atoms: CB_17  and  CG1_19
REMARK   13  A    between atoms: CG1_19  and  CD1_20
REMARK   14  A    between atoms: C_21  and  OXT_23
REMARK                            x       y       z     vdW  Elec       q    Type
REMARK                         _______ _______ _______ _____ _____    ______ ____
ROOT
ATOM      1  C   ILE A   1       5.069  -0.996   1.249  0.00  0.00    +0.233 C 
ATOM      2  N   PRO A   2       4.788   0.310   1.624  0.00  0.00    -0.289 N 
ATOM      3  CA  PRO A   2       5.735   1.419   1.754  0.00  0.00    +0.162 C 
ATOM      4  CB  PRO A   2       4.921   2.600   2.293  0.00  0.00    +0.033 C 
ATOM      5  CG  PRO A   2       3.470   2.125   2.258  0.00  0.00    +0.021 C 
ATOM      6  CD  PRO A   2       3.582   0.617   2.368  0.00  0.00    +0.108 C 
ATOM      7  O   ILE A   1       4.266  -1.909   1.469  0.00  0.00    -0.274 OA
ENDROOT
BRANCH   3   8
ATOM      8  C   PRO A   2       6.429   1.817   0.449  0.00  0.00    +0.234 C 
ATOM      9  N   ILE A   3       7.786   1.996   0.615  0.00  0.00    -0.301 N 
ATOM     10  H   ILE A   3       8.212   1.905   1.536  0.00  0.00    +0.150 HD
ATOM     11  O   PRO A   2       5.872   1.875  -0.642  0.00  0.00    -0.274 OA
BRANCH   9  12
ATOM     12  CA  ILE A   3       8.718   2.035  -0.511  0.00  0.00    +0.185 C 
BRANCH  12  13
ATOM     13  C   ILE A   3      10.064   1.555   0.053  0.00  0.00    +0.326 C 
ATOM     14  O   ILE A   3      10.398   1.708   1.222  0.00  0.00    -0.249 OA
BRANCH  13  15
ATOM     15  OXT ILE A   3      10.856   0.912  -0.836  0.00  0.00    -0.479 OA
ATOM     16  HXT ILE A   3      10.466   0.780  -1.718  0.00  0.00    +0.295 HD
ENDBRANCH  13  15
ENDBRANCH  12  13
BRANCH  12  17
ATOM     17  CB  ILE A   3       8.758   3.438  -1.138  0.00  0.00    +0.017 C 
ATOM     18  CG2 ILE A   3       9.146   4.506  -0.105  0.00  0.00    +0.010 C 
BRANCH  17  19
ATOM     19  CG1 ILE A   3       9.675   3.536  -2.370  0.00  0.00    +0.002 C 
ATOM     20  CD1 ILE A   3       9.240   2.651  -3.532  0.00  0.00    +0.004 C 
ENDBRANCH  17  19
ENDBRANCH  12  17
ENDBRANCH   9  12
ENDBRANCH   3   8
BRANCH   1  21
ATOM     21  CA  ILE A   1       6.471  -1.304   0.635  0.00  0.00    +0.141 C 
BRANCH  21  22
ATOM     22  N   ILE A   1       7.338  -1.869   1.688  0.00  0.00    -0.320 NA
ATOM     23  H1  ILE A   1       7.304  -1.265   2.508  0.00  0.00    +0.119 HD
ATOM     24  H2  ILE A   1       6.922  -2.751   1.992  0.00  0.00    +0.119 HD
ENDBRANCH  21  22
BRANCH  21  25
ATOM     25  CB  ILE A   1       6.462  -2.127  -0.683  0.00  0.00    +0.011 C 
ATOM     26  CG2 ILE A   1       6.000  -3.575  -0.512  0.00  0.00    +0.009 C 
BRANCH  25  28
ATOM     27  CD1 ILE A   1       7.993  -2.764  -2.681  0.00  0.00    +0.004 C 
ATOM     28  CG1 ILE A   1       7.869  -2.055  -1.339  0.00  0.00    +0.002 C 
ENDBRANCH  25  28
ENDBRANCH  21  25
ENDBRANCH   1  21
TORSDOF 10
