REMARK  Name = 
REMARK  14 active torsions:
REMARK  status: ('A' for Active; 'I' for Inactive)
REMARK    1  A    between atoms: CD1_1  and  CG1_2
REMARK    2  A    between atoms: CG1_2  and  CB_3
REMARK    3  A    between atoms: CB_3  and  CG2_4
REMARK    4  A    between atoms: CB_3  and  CA_5
REMARK    5  A    between atoms: CA_5  and  C_6
REMARK    6  A    between atoms: CA_5  and  N_24
REMARK    7  A    between atoms: CA_12  and  C_13
REMARK    8  A    between atoms: N_15  and  CA_16
REMARK    9  A    between atoms: CA_16  and  CB_17
REMARK   10  A    between atoms: CA_16  and  C_21
REMARK   11  A    between atoms: CB_17  and  CG2_18
REMARK   12  A    between atoms: CB_17  and  CG1_19
REMARK   13  A    between atoms: CG1_19  and  CD1_20
REMARK   14  A    between atoms: C_21  and  OXT_23
REMARK                            x       y       z     vdW  Elec       q    Type
REMARK                         _______ _______ _______ _____ _____    ______ ____
ROOT
ATOM      1  C   ILE A   1       4.898   0.691   1.286  0.00  0.00    +0.233 C 
ATOM      2  N   PRO A   2       4.991   1.547   0.208  0.00  0.00    -0.289 N 
ATOM      3  CA  PRO A   2       4.393   2.870   0.311  0.00  0.00    +0.162 C 
ATOM      4  CB  PRO A   2       4.595   3.516  -1.066  0.00  0.00    +0.033 C 
ATOM      5  CG  PRO A   2       5.540   2.567  -1.802  0.00  0.00    +0.021 C 
ATOM      6  CD  PRO A   2       5.250   1.214  -1.177  0.00  0.00    +0.108 C 
ATOM      7  O   ILE A   1       4.525   1.103   2.388  0.00  0.00    -0.274 OA
ENDROOT
BRANCH   3   8
ATOM      8  C   PRO A   2       4.997   3.754   1.415  0.00  0.00    +0.234 C 
ATOM      9  N   ILE A   3       4.055   4.551   2.026  0.00  0.00    -0.301 N 
ATOM     10  H   ILE A   3       3.068   4.410   1.823  0.00  0.00    +0.150 HD
ATOM     11  O   PRO A   2       6.192   3.791   1.695  0.00  0.00    -0.274 OA
BRANCH   9  12
ATOM     12  CA  ILE A   3       4.354   5.382   3.186  0.00  0.00    +0.185 C 
BRANCH  12  13
ATOM     13  C   ILE A   3       3.033   5.507   3.965  0.00  0.00    +0.326 C 
ATOM     14  O   ILE A   3       1.932   5.513   3.430  0.00  0.00    -0.249 OA
BRANCH  13  15
ATOM     15  OXT ILE A   3       3.180   5.597   5.306  0.00  0.00    -0.479 OA
ATOM     16  HXT ILE A   3       4.106   5.517   5.618  0.00  0.00    +0.295 HD
ENDBRANCH  13  15
ENDBRANCH  12  13
BRANCH  12  17
ATOM     17  CB  ILE A   3       4.957   6.745   2.770  0.00  0.00    +0.017 C 
ATOM     18  CG2 ILE A   3       4.019   7.531   1.844  0.00  0.00    +0.010 C 
BRANCH  17  19
ATOM     19  CG1 ILE A   3       5.383   7.558   4.009  0.00  0.00    +0.002 C 
ATOM     20  CD1 ILE A   3       6.076   8.874   3.685  0.00  0.00    +0.004 C 
ENDBRANCH  17  19
ENDBRANCH  12  17
ENDBRANCH   9  12
ENDBRANCH   3   8
BRANCH   1  21
ATOM     21  CA  ILE A   1       5.355  -0.776   1.083  0.00  0.00    +0.141 C 
BRANCH  21  22
ATOM     22  N   ILE A   1       6.831  -0.815   1.204  0.00  0.00    -0.320 NA
ATOM     23  H1  ILE A   1       7.232  -0.085   0.614  0.00  0.00    +0.119 HD
ATOM     24  H2  ILE A   1       7.073  -0.534   2.158  0.00  0.00    +0.119 HD
ENDBRANCH  21  22
BRANCH  21  25
ATOM     25  CB  ILE A   1       4.688  -1.714   2.131  0.00  0.00    +0.011 C 
ATOM     26  CG2 ILE A   1       5.165  -3.164   1.962  0.00  0.00    +0.009 C 
BRANCH  25  28
ATOM     27  CD1 ILE A   1       2.413  -2.397   3.125  0.00  0.00    +0.004 C 
ATOM     28  CG1 ILE A   1       3.143  -1.636   2.027  0.00  0.00    +0.002 C 
ENDBRANCH  25  28
ENDBRANCH  21  25
ENDBRANCH   1  21
TORSDOF 10
