REMARK  Name = 
REMARK  15 active torsions:
REMARK  status: ('A' for Active; 'I' for Inactive)
REMARK    1  A    between atoms: C_1  and  C_2
REMARK    2  A    between atoms: C_2  and  C_3
REMARK    3  A    between atoms: C_3  and  C_4
REMARK    4  A    between atoms: C_4  and  C_5
REMARK    5  A    between atoms: C_5  and  C_6
REMARK    6  A    between atoms: C_6  and  C_7
REMARK    7  A    between atoms: C_7  and  C_8
REMARK    8  A    between atoms: C_8  and  C_9
REMARK    9  A    between atoms: C_9  and  C_10
REMARK   10  A    between atoms: N_12  and  C_13
REMARK   11  A    between atoms: C_13  and  C_14
REMARK   12  A    between atoms: C_13  and  C_21
REMARK   13  A    between atoms: C_14  and  N_15
REMARK   14  A    between atoms: C_21  and  C_22
REMARK   15  A    between atoms: C_21  and  O_28
REMARK                            x       y       z     vdW  Elec       q    Type
REMARK                         _______ _______ _______ _____ _____    ______ ____
ROOT
ATOM      1  C   UNL     1      12.699  -5.093   4.893  0.00  0.00    +0.120 C 
ENDROOT
BRANCH   1   3
ATOM      2  C   UNL     1      10.574  -4.605   3.695  0.00  0.00    +0.213 C 
ATOM      3  N   UNL     1      11.226  -5.045   4.830  0.00  0.00    -0.308 N 
ATOM      4  H   UNL     1      10.713  -5.046   5.705  0.00  0.00    +0.149 HD
ATOM      5  O   UNL     1      11.166  -4.230   2.690  0.00  0.00    -0.276 OA
BRANCH   2   6
ATOM      6  C   UNL     1       9.060  -4.654   3.816  0.00  0.00    +0.096 C 
BRANCH   6   7
ATOM      7  C   UNL     1       8.370  -4.304   2.497  0.00  0.00    +0.009 C 
BRANCH   7   8
ATOM      8  C   UNL     1       6.847  -4.374   2.610  0.00  0.00    +0.000 C 
BRANCH   8   9
ATOM      9  C   UNL     1       6.180  -4.016   1.280  0.00  0.00    +0.000 C 
BRANCH   9  10
ATOM     10  C   UNL     1       4.655  -4.078   1.381  0.00  0.00    +0.000 C 
BRANCH  10  11
ATOM     11  C   UNL     1       3.996  -3.718   0.047  0.00  0.00    -0.000 C 
BRANCH  11  12
ATOM     12  C   UNL     1       2.472  -3.776   0.153  0.00  0.00    -0.000 C 
BRANCH  12  14
ATOM     13  C   UNL     1       0.289  -3.480  -1.064  0.00  0.00    +0.004 C 
ATOM     14  C   UNL     1       1.804  -3.419  -1.173  0.00  0.00    -0.003 C 
ENDBRANCH  12  14
ENDBRANCH  11  12
ENDBRANCH  10  11
ENDBRANCH   9  10
ENDBRANCH   8   9
ENDBRANCH   7   8
ENDBRANCH   6   7
ENDBRANCH   2   6
ENDBRANCH   1   3
BRANCH   1  15
ATOM     15  C   UNL     1      13.207  -6.233   5.826  0.00  0.00    +0.166 C 
BRANCH  15  16
ATOM     16  C   UNL     1      12.736  -6.148   7.267  0.00  0.00    -0.017 A 
ATOM     17  C   UNL     1      13.519  -5.465   8.211  0.00  0.00    +0.006 A 
ATOM     18  C   UNL     1      13.119  -5.378   9.545  0.00  0.00    +0.000 A 
ATOM     19  C   UNL     1      11.932  -5.977   9.955  0.00  0.00    +0.000 A 
ATOM     20  C   UNL     1      11.140  -6.654   9.034  0.00  0.00    +0.000 A 
ATOM     21  C   UNL     1      11.537  -6.739   7.699  0.00  0.00    +0.006 A 
ENDBRANCH  15  16
BRANCH  15  22
ATOM     22  O   UNL     1      12.832  -7.510   5.285  0.00  0.00    -0.385 OA
ATOM     23  H   UNL     1      11.898  -7.440   5.027  0.00  0.00    +0.210 HD
ENDBRANCH  15  22
ENDBRANCH   1  15
BRANCH   1  24
ATOM     24  C   UNL     1      13.313  -3.702   5.233  0.00  0.00    +0.109 C 
BRANCH  24  25
ATOM     25  N   UNL     1      14.790  -3.692   5.289  0.00  0.00    -0.296 NA
ATOM     26  C   UNL     1      15.329  -2.411   5.795  0.00  0.00    +0.112 C 
ATOM     27  C   UNL     1      15.280  -1.256   4.779  0.00  0.00    +0.175 C 
ATOM     28  O   UNL     1      15.928  -1.608   3.551  0.00  0.00    -0.377 OA
ATOM     29  C   UNL     1      15.340  -2.788   2.987  0.00  0.00    +0.175 C 
ATOM     30  C   UNL     1      15.426  -3.964   3.977  0.00  0.00    +0.112 C 
ENDBRANCH  24  25
ENDBRANCH   1  24
TORSDOF 14
