REMARK  Name = 
REMARK  5 active torsions:
REMARK  status: ('A' for Active; 'I' for Inactive)
REMARK    1  A    between atoms: C3*_2  and  O3*_19
REMARK    2  A    between atoms: C4*_3  and  C5*_17
REMARK    3  A    between atoms: C1*_5  and  N_6
REMARK    4  A    between atoms: C_8  and  C_14
REMARK    5  A    between atoms: C5*_17  and  O5*_18
REMARK                            x       y       z     vdW  Elec       q    Type
REMARK                         _______ _______ _______ _____ _____    ______ ____
ROOT
ATOM      1  N   UNL     1       1.392  -1.813  -1.043  0.00  0.00    -0.273 N 
ATOM      2  C   UNL     1       1.404  -3.190  -0.879  0.00  0.00    +0.331 A 
ATOM      3  O   UNL     1       0.941  -3.768   0.103  0.00  0.00    -0.246 OA
ATOM      4  N   UNL     1       1.932  -3.905  -1.918  0.00  0.00    -0.274 N 
ATOM      5  H   UNL     1       1.882  -4.909  -1.838  0.00  0.00    +0.173 HD
ATOM      6  C   UNL     1       2.211  -3.410  -3.161  0.00  0.00    +0.261 A 
ATOM      7  O   UNL     1       2.404  -4.153  -4.118  0.00  0.00    -0.267 OA
ATOM      8  C   UNL     1       2.237  -1.922  -3.287  0.00  0.00    +0.056 A 
ATOM      9  C   UNL     1       1.830  -1.226  -2.216  0.00  0.00    +0.106 A 
ENDROOT
BRANCH   1  11
ATOM     10  C2* UNL     1      -0.798  -1.037  -0.164  0.00  0.00    +0.088 C 
ATOM     11  C1* UNL     1       0.722  -1.025  -0.012  0.00  0.00    +0.226 C 
ATOM     12  O4* UNL     1       1.148   0.352  -0.046  0.00  0.00    -0.348 OA
ATOM     13  C4* UNL     1      -0.013   1.204  -0.182  0.00  0.00    +0.175 C 
ATOM     14  C3* UNL     1      -1.194   0.354   0.269  0.00  0.00    +0.150 C 
BRANCH  14  15
ATOM     15  O3* UNL     1      -1.337   0.391   1.689  0.00  0.00    -0.389 OA
ATOM     16  H3* UNL     1      -0.457   0.311   2.100  0.00  0.00    +0.210 HD
ENDBRANCH  14  15
BRANCH  13  17
ATOM     17  C5* UNL     1      -0.159   1.672  -1.639  0.00  0.00    +0.190 C 
BRANCH  17  18
ATOM     18  O5* UNL     1       0.987   2.405  -2.070  0.00  0.00    -0.392 OA
ATOM     19  H5* UNL     1       1.133   3.131  -1.439  0.00  0.00    +0.210 HD
ENDBRANCH  17  18
ENDBRANCH  13  17
ENDBRANCH   1  11
BRANCH   8  20
ATOM     20  C   UNL     1       2.541  -1.313  -4.572  0.00  0.00    +0.022 C 
ATOM     21  C   UNL     1       3.020  -0.078  -4.765  0.00  0.00    +0.052 C 
ATOM     22 BR   UNL     1       3.335   0.655  -6.441  0.00  0.00    -0.059 Br
ENDBRANCH   8  20
TORSDOF 5
