REMARK  Name = 
REMARK  6 active torsions:
REMARK  status: ('A' for Active; 'I' for Inactive)
REMARK    1  A    between atoms: C6_3  and  N6_23
REMARK    2  A    between atoms: N9_7  and  C1*_10
REMARK    3  A    between atoms: C2*_12  and  O2*_22
REMARK    4  A    between atoms: C3*_14  and  O3*_21
REMARK    5  A    between atoms: C4*_16  and  C5*_19
REMARK    6  A    between atoms: C5*_19  and  O5*_20
REMARK                            x       y       z     vdW  Elec       q    Type
REMARK                         _______ _______ _______ _____ _____    ______ ____
ROOT
ATOM      1  C2    A A   1      -1.861   0.540  -0.387  0.00  0.00    +0.225 A 
ATOM      2  N3    A A   1      -0.838   1.397  -0.171  0.00  0.00    -0.216 NA
ATOM      3  C4    A A   1       0.238   0.754   0.319  0.00  0.00    +0.167 A 
ATOM      4  N9    A A   1       1.474   1.263   0.617  0.00  0.00    -0.286 N 
ATOM      5  C8    A A   1       2.239   0.208   1.073  0.00  0.00    +0.203 A 
ATOM      6  N7    A A   1       1.600  -0.940   1.012  0.00  0.00    -0.231 NA
ATOM      7  C5    A A   1       0.337  -0.607   0.580  0.00  0.00    +0.147 A 
ATOM      8  C6    A A   1      -0.786  -1.399   0.286  0.00  0.00    +0.147 A 
ATOM      9  N1    A A   1      -1.885  -0.798  -0.218  0.00  0.00    -0.219 NA
ENDROOT
BRANCH   4  10
ATOM     10  C1*   A A   1       2.033   2.573   0.379  0.00  0.00    +0.253 C 
ATOM     11  O4*   A A   1       2.519   3.097   1.631  0.00  0.00    -0.346 OA
ATOM     12  C4*   A A   1       2.467   4.541   1.552  0.00  0.00    +0.177 C 
ATOM     13  C3*   A A   1       2.048   4.904   0.118  0.00  0.00    +0.178 C 
ATOM     14  C2*   A A   1       1.221   3.695  -0.299  0.00  0.00    +0.195 C 
BRANCH  13  15
ATOM     15  O3*   A A   1       3.210   5.009  -0.711  0.00  0.00    -0.386 OA
ATOM     16  H3*   A A   1       2.940   5.450  -1.537  0.00  0.00    +0.210 HD
ENDBRANCH  13  15
BRANCH  14  17
ATOM     17  O2*   A A   1      -0.097   3.914   0.198  0.00  0.00    -0.385 OA
ATOM     18  H2*   A A   1      -0.601   3.085   0.049  0.00  0.00    +0.210 HD
ENDBRANCH  14  17
BRANCH  12  19
ATOM     19  C5*   A A   1       1.482   5.054   2.614  0.00  0.00    +0.190 C 
BRANCH  19  20
ATOM     20  O5*   A A   1       1.908   4.734   3.941  0.00  0.00    -0.392 OA
ATOM     21  H5*   A A   1       2.876   4.650   3.942  0.00  0.00    +0.210 HD
ENDBRANCH  19  20
ENDBRANCH  12  19
ENDBRANCH   4  10
BRANCH   8  22
ATOM     22  N6    A A   1      -0.792  -2.778   0.419  0.00  0.00    -0.341 N 
ATOM     23  H61   A A   1       0.127  -3.202   0.486  0.00  0.00    +0.144 HD
ATOM     24  H62   A A   1      -1.494  -3.234  -0.148  0.00  0.00    +0.144 HD
ENDBRANCH   8  22
TORSDOF 6
REMARK  Name = 
REMARK  6 active torsions:
REMARK  status: ('A' for Active; 'I' for Inactive)
REMARK    1  A    between atoms: C6_3  and  N6_23
REMARK    2  A    between atoms: N9_7  and  C1*_10
REMARK    3  A    between atoms: C2*_12  and  O2*_22
REMARK    4  A    between atoms: C3*_14  and  O3*_21
REMARK    5  A    between atoms: C4*_16  and  C5*_19
REMARK    6  A    between atoms: C5*_19  and  O5*_20
REMARK                            x       y       z     vdW  Elec       q    Type
REMARK                         _______ _______ _______ _____ _____    ______ ____
ROOT
ATOM      1  O   HOH     1       1.650  -0.346  -2.364  0.00  0.00    -0.410 OA
ATOM      2  H   HOH     0       0.726  -0.638  -2.431  0.00  0.00    +0.205 HD
ATOM      3  H   HOH     0       1.994  -0.892  -1.635  0.00  0.00    +0.205 HD
ENDROOT
TORSDOF 0
