REMARK  Name = 
REMARK  6 active torsions:
REMARK  status: ('A' for Active; 'I' for Inactive)
REMARK    1  A    between atoms: C6_3  and  N6_23
REMARK    2  A    between atoms: N9_7  and  C1*_10
REMARK    3  A    between atoms: C2*_12  and  O2*_22
REMARK    4  A    between atoms: C3*_14  and  O3*_21
REMARK    5  A    between atoms: C4*_16  and  C5*_19
REMARK    6  A    between atoms: C5*_19  and  O5*_20
REMARK                            x       y       z     vdW  Elec       q    Type
REMARK                         _______ _______ _______ _____ _____    ______ ____
ROOT
ATOM      1  C2    A A   1      -1.934   0.544  -0.433  0.00  0.00    +0.225 A 
ATOM      2  N3    A A   1      -0.891   1.380  -0.229  0.00  0.00    -0.216 NA
ATOM      3  C4    A A   1       0.184   0.713   0.231  0.00  0.00    +0.167 A 
ATOM      4  N9    A A   1       1.433   1.200   0.516  0.00  0.00    -0.286 N 
ATOM      5  C8    A A   1       2.196   0.127   0.922  0.00  0.00    +0.203 A 
ATOM      6  N7    A A   1       1.537  -1.012   0.862  0.00  0.00    -0.231 NA
ATOM      7  C5    A A   1       0.272  -0.653   0.457  0.00  0.00    +0.147 A 
ATOM      8  C6    A A   1      -0.872  -1.423   0.178  0.00  0.00    +0.147 A 
ATOM      9  N1    A A   1      -1.973  -0.794  -0.284  0.00  0.00    -0.219 NA
ENDROOT
BRANCH   4  10
ATOM     10  C1*   A A   1       2.001   2.510   0.299  0.00  0.00    +0.253 C 
ATOM     11  O4*   A A   1       2.513   2.996   1.559  0.00  0.00    -0.346 OA
ATOM     12  C4*   A A   1       2.495   4.443   1.512  0.00  0.00    +0.177 C 
ATOM     13  C3*   A A   1       2.044   4.845   0.099  0.00  0.00    +0.178 C 
ATOM     14  C2*   A A   1       1.190   3.659  -0.327  0.00  0.00    +0.195 C 
BRANCH  13  15
ATOM     15  O3*   A A   1       3.188   4.957  -0.756  0.00  0.00    -0.386 OA
ATOM     16  H3*   A A   1       2.908   5.435  -1.558  0.00  0.00    +0.210 HD
ENDBRANCH  13  15
BRANCH  14  17
ATOM     17  O2*   A A   1      -0.112   3.883   0.213  0.00  0.00    -0.385 OA
ATOM     18  H2*   A A   1      -0.631   3.065   0.057  0.00  0.00    +0.210 HD
ENDBRANCH  14  17
BRANCH  12  19
ATOM     19  C5*   A A   1       1.551   4.960   2.609  0.00  0.00    +0.190 C 
BRANCH  19  20
ATOM     20  O5*   A A   1       2.033   4.642   3.917  0.00  0.00    -0.392 OA
ATOM     21  H5*   A A   1       2.989   4.814   3.940  0.00  0.00    +0.210 HD
ENDBRANCH  19  20
ENDBRANCH  12  19
ENDBRANCH   4  10
BRANCH   8  22
ATOM     22  N6    A A   1      -0.902  -2.804   0.295  0.00  0.00    -0.341 N 
ATOM     23  H61   A A   1       0.012  -3.242   0.321  0.00  0.00    +0.144 HD
ATOM     24  H62   A A   1      -1.627  -3.236  -0.260  0.00  0.00    +0.144 HD
ENDBRANCH   8  22
TORSDOF 6
REMARK  Name = 
REMARK  6 active torsions:
REMARK  status: ('A' for Active; 'I' for Inactive)
REMARK    1  A    between atoms: C6_3  and  N6_23
REMARK    2  A    between atoms: N9_7  and  C1*_10
REMARK    3  A    between atoms: C2*_12  and  O2*_22
REMARK    4  A    between atoms: C3*_14  and  O3*_21
REMARK    5  A    between atoms: C4*_16  and  C5*_19
REMARK    6  A    between atoms: C5*_19  and  O5*_20
REMARK                            x       y       z     vdW  Elec       q    Type
REMARK                         _______ _______ _______ _____ _____    ______ ____
ROOT
ATOM      1  O   HOH     1       1.630   0.184  -2.527  0.00  0.00    -0.410 OA
ATOM      2  H   HOH     0       0.658   0.137  -2.523  0.00  0.00    +0.205 HD
ATOM      3  H   HOH     0       1.882  -0.629  -2.054  0.00  0.00    +0.205 HD
ENDROOT
TORSDOF 0
