REMARK  Name = 
REMARK  6 active torsions:
REMARK  status: ('A' for Active; 'I' for Inactive)
REMARK    1  A    between atoms: C_1  and  C_2
REMARK    2  A    between atoms: C_9  and  O_12
REMARK    3  A    between atoms: C_10  and  O_11
REMARK    4  A    between atoms: C_19  and  O_21
REMARK    5  A    between atoms: O_21  and  C_22
REMARK    6  A    between atoms: C_22  and  C_23
REMARK                            x       y       z     vdW  Elec       q    Type
REMARK                         _______ _______ _______ _____ _____    ______ ____
ROOT
ATOM      1  C   UNL     1       1.466  -0.795  -0.072  0.00  0.00    +0.014 C 
ATOM      2  C   UNL     1       2.755  -0.024  -0.430  0.00  0.00    -0.000 C 
ATOM      3  C   UNL     1       3.226   0.886   0.767  0.00  0.00    +0.149 C 
ATOM      4  C   UNL     1       4.589   0.341   1.221  0.00  0.00    +0.144 C 
ATOM      5  C   UNL     1       4.672  -1.053   0.623  0.00  0.00    +0.038 C 
ATOM      6  C   UNL     1       3.967  -0.977  -0.743  0.00  0.00    +0.004 C 
ATOM      7  C   UNL     1       4.857  -0.688  -2.043  0.00  0.00    +0.001 C 
ATOM      8  C   UNL     1       6.354  -1.097  -1.942  0.00  0.00    +0.009 C 
ATOM      9  C   UNL     1       7.309  -0.474  -2.966  0.00  0.00    +0.036 C 
ATOM     10  C   UNL     1       7.084   1.002  -3.142  0.00  0.00    -0.040 A 
ATOM     11  C   UNL     1       8.146   1.914  -3.332  0.00  0.00    +0.049 A 
ATOM     12  C   UNL     1       7.888   3.264  -3.621  0.00  0.00    +0.121 A 
ATOM     13  C   UNL     1       6.578   3.684  -3.782  0.00  0.00    +0.046 A 
ATOM     14  C   UNL     1       5.552   2.777  -3.678  0.00  0.00    +0.008 A 
ATOM     15  C   UNL     1       5.775   1.462  -3.237  0.00  0.00    -0.041 A 
ATOM     16  C   UNL     1       4.578   0.620  -2.853  0.00  0.00    +0.023 C 
ATOM     17  C   UNL     1       3.594   1.549  -2.142  0.00  0.00    +0.009 C 
ATOM     18  C   UNL     1       2.390   0.815  -1.643  0.00  0.00    +0.010 C 
ENDROOT
BRANCH   3  19
ATOM     19  O   UNL     1       2.281   0.907   1.839  0.00  0.00    -0.389 OA
ATOM     20  H   UNL     1       2.406   0.114   2.384  0.00  0.00    +0.210 HD
ENDBRANCH   3  19
BRANCH   4  21
ATOM     21  O   UNL     1       5.635   1.196   0.749  0.00  0.00    -0.389 OA
ATOM     22  H   UNL     1       6.209   0.724   0.126  0.00  0.00    +0.210 HD
ENDBRANCH   4  21
BRANCH  12  23
ATOM     23  O   UNL     1       8.960   4.107  -3.776  0.00  0.00    -0.487 OA
BRANCH  23  24
ATOM     24  C   UNL     1       8.610   5.387  -4.317  0.00  0.00    +0.264 C 
BRANCH  24  25
ATOM     25  C   UNL     1       9.835   6.116  -4.780  0.00  0.00    -0.010 A 
ATOM     26  C   UNL     1      10.748   6.618  -3.849  0.00  0.00    +0.007 A 
ATOM     27  C   UNL     1      11.873   7.309  -4.282  0.00  0.00    +0.000 A 
ATOM     28  C   UNL     1      12.089   7.503  -5.647  0.00  0.00    +0.000 A 
ATOM     29  C   UNL     1      11.179   7.011  -6.581  0.00  0.00    +0.000 A 
ATOM     30  C   UNL     1      10.052   6.320  -6.151  0.00  0.00    +0.007 A 
ENDBRANCH  24  25
ENDBRANCH  23  24
ENDBRANCH  12  23
TORSDOF 5
