REMARK  Name = 
REMARK  6 active torsions:
REMARK  status: ('A' for Active; 'I' for Inactive)
REMARK    1  A    between atoms: C_1  and  C_2
REMARK    2  A    between atoms: C_9  and  O_12
REMARK    3  A    between atoms: C_10  and  O_11
REMARK    4  A    between atoms: C_19  and  O_21
REMARK    5  A    between atoms: O_21  and  C_22
REMARK    6  A    between atoms: C_22  and  C_23
REMARK                            x       y       z     vdW  Elec       q    Type
REMARK                         _______ _______ _______ _____ _____    ______ ____
ROOT
ATOM      1  C   UNL     1       1.399  -0.874   0.002  0.00  0.00    +0.014 C 
ATOM      2  C   UNL     1       2.683  -0.097  -0.365  0.00  0.00    -0.000 C 
ATOM      3  C   UNL     1       3.155   0.809   0.833  0.00  0.00    +0.149 C 
ATOM      4  C   UNL     1       4.520   0.259   1.286  0.00  0.00    +0.144 C 
ATOM      5  C   UNL     1       4.590  -1.141   0.689  0.00  0.00    +0.038 C 
ATOM      6  C   UNL     1       3.889  -1.053  -0.679  0.00  0.00    +0.004 C 
ATOM      7  C   UNL     1       4.782  -0.764  -1.979  0.00  0.00    +0.001 C 
ATOM      8  C   UNL     1       6.277  -1.173  -1.864  0.00  0.00    +0.009 C 
ATOM      9  C   UNL     1       7.238  -0.547  -2.878  0.00  0.00    +0.036 C 
ATOM     10  C   UNL     1       7.011   0.927  -3.051  0.00  0.00    -0.040 A 
ATOM     11  C   UNL     1       8.067   1.856  -3.142  0.00  0.00    +0.049 A 
ATOM     12  C   UNL     1       7.805   3.209  -3.402  0.00  0.00    +0.121 A 
ATOM     13  C   UNL     1       6.531   3.592  -3.786  0.00  0.00    +0.046 A 
ATOM     14  C   UNL     1       5.501   2.673  -3.714  0.00  0.00    +0.008 A 
ATOM     15  C   UNL     1       5.705   1.379  -3.211  0.00  0.00    -0.041 A 
ATOM     16  C   UNL     1       4.505   0.541  -2.805  0.00  0.00    +0.023 C 
ATOM     17  C   UNL     1       3.531   1.478  -2.088  0.00  0.00    +0.009 C 
ATOM     18  C   UNL     1       2.322   0.746  -1.578  0.00  0.00    +0.010 C 
ENDROOT
BRANCH   3  19
ATOM     19  O   UNL     1       2.210   0.831   1.905  0.00  0.00    -0.389 OA
ATOM     20  H   UNL     1       2.326   0.032   2.443  0.00  0.00    +0.210 HD
ENDBRANCH   3  19
BRANCH   4  21
ATOM     21  O   UNL     1       5.566   1.105   0.821  0.00  0.00    -0.389 OA
ATOM     22  H   UNL     1       6.123   0.639   0.181  0.00  0.00    +0.210 HD
ENDBRANCH   4  21
BRANCH  12  23
ATOM     23  O   UNL     1       8.839   4.102  -3.274  0.00  0.00    -0.487 OA
BRANCH  23  24
ATOM     24  C   UNL     1       8.402   5.427  -2.920  0.00  0.00    +0.264 C 
BRANCH  24  25
ATOM     25  C   UNL     1       9.538   6.224  -2.334  0.00  0.00    -0.010 A 
ATOM     26  C   UNL     1      10.241   5.730  -1.226  0.00  0.00    +0.007 A 
ATOM     27  C   UNL     1      11.258   6.476  -0.641  0.00  0.00    +0.000 A 
ATOM     28  C   UNL     1      11.575   7.736  -1.152  0.00  0.00    +0.000 A 
ATOM     29  C   UNL     1      10.874   8.246  -2.247  0.00  0.00    +0.000 A 
ATOM     30  C   UNL     1       9.856   7.495  -2.835  0.00  0.00    +0.007 A 
ENDBRANCH  24  25
ENDBRANCH  23  24
ENDBRANCH  12  23
TORSDOF 5
