REMARK  Name = 
REMARK  11 active torsions:
REMARK  status: ('A' for Active; 'I' for Inactive)
REMARK    1  A    between atoms: C_1  and  C_2
REMARK    2  A    between atoms: C_2  and  O_4
REMARK    3  A    between atoms: O_4  and  C_5
REMARK    4  A    between atoms: C_5  and  C_6
REMARK    5  A    between atoms: C_6  and  C_7
REMARK    6  A    between atoms: C_6  and  C_19
REMARK    7  A    between atoms: C_7  and  C_8
REMARK    8  A    between atoms: C_8  and  N_9
REMARK    9  A    between atoms: C_19  and  O_20
REMARK   10  A    between atoms: O_20  and  C_21
REMARK   11  A    between atoms: C_21  and  C_23
REMARK                            x       y       z     vdW  Elec       q    Type
REMARK                         _______ _______ _______ _____ _____    ______ ____
ROOT
ATOM      1  C   UNL     1       5.119   3.581   3.530  0.00  0.00    +0.125 C 
ENDROOT
BRANCH   1   2
ATOM      2  N   UNL     1       4.565   3.579   4.866  0.00  0.00    -0.315 N 
ATOM      3  C   UNL     1       3.448   4.245   5.282  0.00  0.00    +0.165 A 
ATOM      4  C   UNL     1       3.398   4.019   6.647  0.00  0.00    +0.126 A 
ATOM      5  C   UNL     1       2.333   4.608   7.314  0.00  0.00    +0.145 A 
ATOM      6  N   UNL     1       1.443   5.361   6.616  0.00  0.00    -0.221 NA
ATOM      7  C   UNL     1       1.629   5.524   5.292  0.00  0.00    +0.215 A 
ATOM      8  N   UNL     1       0.708   6.315   4.636  0.00  0.00    -0.327 N 
ATOM      9  H   UNL     1       0.660   6.060   3.661  0.00  0.00    +0.145 HD
ATOM     10  H   UNL     1      -0.156   6.337   5.161  0.00  0.00    +0.145 HD
ATOM     11  N   UNL     1       4.456   3.245   7.062  0.00  0.00    -0.233 NA
ATOM     12  N   UNL     1       2.597   4.973   4.544  0.00  0.00    -0.195 NA
ATOM     13  C   UNL     1       5.153   3.019   5.969  0.00  0.00    +0.201 A 
ENDBRANCH   1   2
BRANCH   1  14
ATOM     14  C   UNL     1       4.732   2.344   2.716  0.00  0.00    +0.032 C 
BRANCH  14  15
ATOM     15  C   UNL     1       5.267   2.345   1.261  0.00  0.00    +0.066 C 
BRANCH  15  16
ATOM     16  C   UNL     1       4.743   1.115   0.495  0.00  0.00    +0.239 C 
BRANCH  16  17
ATOM     17  O   UNL     1       3.308   1.097   0.437  0.00  0.00    -0.464 OA
BRANCH  17  19
ATOM     18  C   UNL     1       1.266   1.665  -0.572  0.00  0.00    +0.136 C 
ATOM     19  C   UNL     1       2.755   1.825  -0.572  0.00  0.00    +0.304 C 
ATOM     20  O   UNL     1       3.375   2.489  -1.390  0.00  0.00    -0.251 OA
ENDBRANCH  17  19
ENDBRANCH  16  17
ENDBRANCH  15  16
BRANCH  15  21
ATOM     21  C   UNL     1       6.806   2.358   1.159  0.00  0.00    +0.239 C 
BRANCH  21  22
ATOM     22  O   UNL     1       7.389   3.512   1.782  0.00  0.00    -0.464 OA
BRANCH  22  23
ATOM     23  C   UNL     1       7.317   4.681   1.088  0.00  0.00    +0.304 C 
ATOM     24  C   UNL     1       7.766   5.827   1.946  0.00  0.00    +0.136 C 
ATOM     25  O   UNL     1       6.896   4.800  -0.051  0.00  0.00    -0.251 OA
ENDBRANCH  22  23
ENDBRANCH  21  22
ENDBRANCH  15  21
ENDBRANCH  14  15
ENDBRANCH   1  14
TORSDOF 9
