REMARK  Name = 
REMARK  18 active torsions:
REMARK  status: ('A' for Active; 'I' for Inactive)
REMARK    1  A    between atoms: C_1  and  C_2
REMARK    2  A    between atoms: C_2  and  C_3
REMARK    3  A    between atoms: C_3  and  C_4
REMARK    4  A    between atoms: C_4  and  C_5
REMARK    5  A    between atoms: C_5  and  C_6
REMARK    6  A    between atoms: C_6  and  C_7
REMARK    7  A    between atoms: C_7  and  C_8
REMARK    8  A    between atoms: C_8  and  C_9
REMARK    9  A    between atoms: C_9  and  C_10
REMARK   10  A    between atoms: C_10  and  O_12
REMARK   11  A    between atoms: O_12  and  C_13
REMARK   12  A    between atoms: C_13  and  C_14
REMARK   13  A    between atoms: C_14  and  N_15
REMARK   14  A    between atoms: N_18  and  C_21
REMARK   15  A    between atoms: C_21  and  C_22
REMARK   16  A    between atoms: C_22  and  C_23
REMARK   17  A    between atoms: C_23  and  N_24
REMARK   18  A    between atoms: C_35  and  C_38
REMARK                            x       y       z     vdW  Elec       q    Type
REMARK                         _______ _______ _______ _____ _____    ______ ____
ROOT
ATOM      1  C   UNL     1      16.699   4.643  -9.269  0.00  0.00    +0.086 C 
ENDROOT
BRANCH   1   5
ATOM      2  N   UNL     1      14.576   5.443  -6.336  0.00  0.00    -0.297 NA
ATOM      3  C   UNL     1      15.013   6.426  -7.363  0.00  0.00    +0.100 C 
ATOM      4  C   UNL     1      14.750   6.005  -8.836  0.00  0.00    +0.100 C 
ATOM      5  N   UNL     1      15.231   4.647  -9.177  0.00  0.00    -0.300 NA
ATOM      6  C   UNL     1      14.720   3.698  -8.168  0.00  0.00    +0.100 C 
ATOM      7  C   UNL     1      15.077   4.105  -6.722  0.00  0.00    +0.100 C 
BRANCH   2   8
ATOM      8  C   UNL     1      13.107   5.471  -6.224  0.00  0.00    +0.125 C 
BRANCH   8   9
ATOM      9  C   UNL     1      12.515   4.504  -5.188  0.00  0.00    +0.247 C 
BRANCH   9  10
ATOM     10  O   UNL     1      11.082   4.570  -5.233  0.00  0.00    -0.463 OA
BRANCH  10  11
ATOM     11  C   UNL     1      10.531   3.866  -6.261  0.00  0.00    +0.307 C 
ATOM     12  O   UNL     1      11.157   3.221  -7.088  0.00  0.00    -0.251 OA
BRANCH  11  13
ATOM     13  C   UNL     1       9.035   3.979  -6.230  0.00  0.00    +0.120 C 
BRANCH  13  14
ATOM     14  C   UNL     1       8.447   2.584  -6.099  0.00  0.00    +0.011 C 
BRANCH  14  15
ATOM     15  C   UNL     1       6.927   2.631  -6.054  0.00  0.00    +0.001 C 
BRANCH  15  16
ATOM     16  C   UNL     1       6.360   1.222  -5.924  0.00  0.00    +0.000 C 
BRANCH  16  17
ATOM     17  C   UNL     1       4.837   1.250  -5.881  0.00  0.00    +0.000 C 
BRANCH  17  18
ATOM     18  C   UNL     1       4.273  -0.161  -5.751  0.00  0.00    -0.000 C 
BRANCH  18  19
ATOM     19  C   UNL     1       2.748  -0.133  -5.705  0.00  0.00    -0.000 C 
BRANCH  19  21
ATOM     20  C   UNL     1       0.657  -1.512  -5.528  0.00  0.00    +0.004 C 
ATOM     21  C   UNL     1       2.175  -1.542  -5.574  0.00  0.00    -0.003 C 
ENDBRANCH  19  21
ENDBRANCH  18  19
ENDBRANCH  17  18
ENDBRANCH  16  17
ENDBRANCH  15  16
ENDBRANCH  14  15
ENDBRANCH  13  14
ENDBRANCH  11  13
ENDBRANCH  10  11
ENDBRANCH   9  10
ENDBRANCH   8   9
ENDBRANCH   2   8
ENDBRANCH   1   5
BRANCH   1  22
ATOM     22  C   UNL     1      17.277   3.304  -9.723  0.00  0.00    +0.035 C 
BRANCH  22  23
ATOM     23  C   UNL     1      16.806   2.872 -11.121  0.00  0.00    +0.112 C 
BRANCH  23  24
ATOM     24  N   UNL     1      17.174   3.845 -12.186  0.00  0.00    -0.298 N 
ATOM     25  C   UNL     1      16.154   4.718 -12.680  0.00  0.00    +0.048 A 
ATOM     26  C   UNL     1      14.771   4.475 -12.490  0.00  0.00    +0.037 A 
ATOM     27  C   UNL     1      13.752   5.334 -12.958  0.00  0.00    +0.057 A 
ATOM     28  C   UNL     1      14.112   6.470 -13.676  0.00  0.00    +0.013 A 
ATOM     29  C   UNL     1      15.456   6.736 -13.903  0.00  0.00    +0.017 A 
ATOM     30  C   UNL     1      16.467   5.882 -13.413  0.00  0.00    +0.034 A 
ATOM     31  S   UNL     1      18.122   6.420 -13.770  0.00  0.00    -0.086 S 
ATOM     32  C   UNL     1      19.112   5.158 -13.019  0.00  0.00    +0.034 A 
ATOM     33  C   UNL     1      20.506   5.366 -13.086  0.00  0.00    +0.017 A 
ATOM     34  C   UNL     1      21.401   4.460 -12.528  0.00  0.00    +0.001 A 
ATOM     35  C   UNL     1      20.912   3.311 -11.937  0.00  0.00    +0.002 A 
ATOM     36  C   UNL     1      19.533   3.087 -11.895  0.00  0.00    +0.024 A 
ATOM     37  C   UNL     1      18.584   4.026 -12.374  0.00  0.00    +0.048 A 
BRANCH  27  38
ATOM     38  C   UNL     1      12.296   5.044 -12.688  0.00  0.00    +0.417 C 
ATOM     39  F   UNL     1      11.578   4.890 -13.836  0.00  0.00    -0.166 F 
ATOM     40  F   UNL     1      11.683   6.049 -12.001  0.00  0.00    -0.166 F 
ATOM     41  F   UNL     1      12.080   3.911 -11.963  0.00  0.00    -0.166 F 
ENDBRANCH  27  38
ENDBRANCH  23  24
ENDBRANCH  22  23
ENDBRANCH   1  22
TORSDOF 17
