REMARK  Name = 
REMARK  18 active torsions:
REMARK  status: ('A' for Active; 'I' for Inactive)
REMARK    1  A    between atoms: C_1  and  C_2
REMARK    2  A    between atoms: C_2  and  C_3
REMARK    3  A    between atoms: C_3  and  C_4
REMARK    4  A    between atoms: C_4  and  C_5
REMARK    5  A    between atoms: C_5  and  C_6
REMARK    6  A    between atoms: C_6  and  C_7
REMARK    7  A    between atoms: C_7  and  C_8
REMARK    8  A    between atoms: C_8  and  C_9
REMARK    9  A    between atoms: C_9  and  C_10
REMARK   10  A    between atoms: C_10  and  O_12
REMARK   11  A    between atoms: O_12  and  C_13
REMARK   12  A    between atoms: C_13  and  C_14
REMARK   13  A    between atoms: C_14  and  N_15
REMARK   14  A    between atoms: N_18  and  C_21
REMARK   15  A    between atoms: C_21  and  C_22
REMARK   16  A    between atoms: C_22  and  C_23
REMARK   17  A    between atoms: C_23  and  N_24
REMARK   18  A    between atoms: C_35  and  C_38
REMARK                            x       y       z     vdW  Elec       q    Type
REMARK                         _______ _______ _______ _____ _____    ______ ____
ROOT
ATOM      1  C   UNL     1      16.882   7.393  -4.575  0.00  0.00    +0.086 C 
ENDROOT
BRANCH   1   5
ATOM      2  N   UNL     1      14.707   8.107  -1.647  0.00  0.00    -0.297 NA
ATOM      3  C   UNL     1      15.143   9.123  -2.641  0.00  0.00    +0.100 C 
ATOM      4  C   UNL     1      14.918   8.735  -4.129  0.00  0.00    +0.100 C 
ATOM      5  N   UNL     1      15.413   7.389  -4.495  0.00  0.00    -0.300 NA
ATOM      6  C   UNL     1      14.900   6.412  -3.515  0.00  0.00    +0.100 C 
ATOM      7  C   UNL     1      15.240   6.789  -2.058  0.00  0.00    +0.100 C 
BRANCH   2   8
ATOM      8  C   UNL     1      13.236   8.102  -1.555  0.00  0.00    +0.125 C 
BRANCH   8   9
ATOM      9  C   UNL     1      12.655   7.091  -0.555  0.00  0.00    +0.247 C 
BRANCH   9  10
ATOM     10  O   UNL     1      11.220   7.125  -0.605  0.00  0.00    -0.463 OA
BRANCH  10  11
ATOM     11  C   UNL     1      10.686   6.429  -1.650  0.00  0.00    +0.307 C 
ATOM     12  O   UNL     1      11.331   5.825  -2.502  0.00  0.00    -0.251 OA
BRANCH  11  13
ATOM     13  C   UNL     1       9.190   6.488  -1.608  0.00  0.00    +0.120 C 
BRANCH  13  14
ATOM     14  C   UNL     1       8.645   5.073  -1.510  0.00  0.00    +0.011 C 
BRANCH  14  15
ATOM     15  C   UNL     1       7.124   5.071  -1.473  0.00  0.00    +0.001 C 
BRANCH  15  16
ATOM     16  C   UNL     1       6.598   3.643  -1.376  0.00  0.00    +0.000 C 
BRANCH  16  17
ATOM     17  C   UNL     1       5.075   3.628  -1.347  0.00  0.00    +0.000 C 
BRANCH  17  18
ATOM     18  C   UNL     1       4.548   2.200  -1.251  0.00  0.00    -0.000 C 
BRANCH  18  19
ATOM     19  C   UNL     1       3.022   2.187  -1.223  0.00  0.00    -0.000 C 
BRANCH  19  21
ATOM     20  C   UNL     1       0.964   0.754  -1.097  0.00  0.00    +0.004 C 
ATOM     21  C   UNL     1       2.483   0.763  -1.126  0.00  0.00    -0.003 C 
ENDBRANCH  19  21
ENDBRANCH  18  19
ENDBRANCH  17  18
ENDBRANCH  16  17
ENDBRANCH  15  16
ENDBRANCH  14  15
ENDBRANCH  13  14
ENDBRANCH  11  13
ENDBRANCH  10  11
ENDBRANCH   9  10
ENDBRANCH   8   9
ENDBRANCH   2   8
ENDBRANCH   1   5
BRANCH   1  22
ATOM     22  C   UNL     1      17.462   6.067  -5.065  0.00  0.00    +0.035 C 
BRANCH  22  23
ATOM     23  C   UNL     1      16.992   5.673  -6.475  0.00  0.00    +0.112 C 
BRANCH  23  24
ATOM     24  N   UNL     1      17.374   6.671  -7.512  0.00  0.00    -0.298 N 
ATOM     25  C   UNL     1      16.369   7.587  -7.960  0.00  0.00    +0.048 A 
ATOM     26  C   UNL     1      14.983   7.361  -7.773  0.00  0.00    +0.037 A 
ATOM     27  C   UNL     1      13.980   8.267  -8.182  0.00  0.00    +0.057 A 
ATOM     28  C   UNL     1      14.357   9.430  -8.845  0.00  0.00    +0.013 A 
ATOM     29  C   UNL     1      15.705   9.677  -9.074  0.00  0.00    +0.017 A 
ATOM     30  C   UNL     1      16.702   8.778  -8.638  0.00  0.00    +0.034 A 
ATOM     31  S   UNL     1      18.364   9.297  -8.982  0.00  0.00    -0.086 S 
ATOM     32  C   UNL     1      19.334   7.992  -8.278  0.00  0.00    +0.034 A 
ATOM     33  C   UNL     1      20.730   8.185  -8.326  0.00  0.00    +0.017 A 
ATOM     34  C   UNL     1      21.610   7.245  -7.802  0.00  0.00    +0.001 A 
ATOM     35  C   UNL     1      21.103   6.076  -7.268  0.00  0.00    +0.002 A 
ATOM     36  C   UNL     1      19.720   5.869  -7.244  0.00  0.00    +0.024 A 
ATOM     37  C   UNL     1      18.788   6.840  -7.687  0.00  0.00    +0.048 A 
BRANCH  27  38
ATOM     38  C   UNL     1      12.521   7.996  -7.906  0.00  0.00    +0.417 C 
ATOM     39  F   UNL     1      11.783   7.913  -9.050  0.00  0.00    -0.166 F 
ATOM     40  F   UNL     1      11.940   8.983  -7.166  0.00  0.00    -0.166 F 
ATOM     41  F   UNL     1      12.286   6.838  -7.230  0.00  0.00    -0.166 F 
ENDBRANCH  27  38
ENDBRANCH  23  24
ENDBRANCH  22  23
ENDBRANCH   1  22
TORSDOF 17
