REMARK  Name = 
REMARK  1 active torsions:
REMARK  status: ('A' for Active; 'I' for Inactive)
REMARK    1  A    between atoms: C_1  and  P_4
REMARK                            x       y       z     vdW  Elec       q    Type
REMARK                         _______ _______ _______ _____ _____    ______ ____
ROOT
ATOM      1  P   UNL     1       2.869  -0.021   0.090  0.00  0.00    +0.153 P 
ATOM      2  O   UNL     1       4.599  -0.021   0.090  0.00  0.00    -0.353 OA
ATOM      3  O   UNL     1       2.774   0.620  -1.333  0.00  0.00    -0.353 OA
ATOM      4  O   UNL     1       2.774  -1.570   0.280  0.00  0.00    -0.455 OA
ENDROOT
BRANCH   1   5
ATOM      5  C   UNL     1       1.039  -0.021   0.090  0.00  0.00    +0.102 C 
ATOM      6  O   UNL     1       0.466   0.682   1.044  0.00  0.00    -0.542 OA
ATOM      7  O   UNL     1       0.256  -0.645  -0.756  0.00  0.00    -0.542 OA
ENDBRANCH   1   5
TORSDOF 1
