REMARK  Name = 
REMARK  1 active torsions:
REMARK  status: ('A' for Active; 'I' for Inactive)
REMARK    1  A    between atoms: C_1  and  P_4
REMARK                            x       y       z     vdW  Elec       q    Type
REMARK                         _______ _______ _______ _____ _____    ______ ____
ROOT
ATOM      1  P   UNL     1       2.874  -0.065   0.062  0.00  0.00    +0.153 P 
ATOM      2  O   UNL     1       4.604  -0.065   0.062  0.00  0.00    -0.353 OA
ATOM      3  O   UNL     1       2.778   1.271  -0.744  0.00  0.00    -0.353 OA
ATOM      4  O   UNL     1       2.778  -1.447  -0.662  0.00  0.00    -0.455 OA
ENDROOT
BRANCH   1   5
ATOM      5  C   UNL     1       1.044  -0.065   0.062  0.00  0.00    +0.102 C 
ATOM      6  O   UNL     1       0.470  -0.030   1.247  0.00  0.00    -0.542 OA
ATOM      7  O   UNL     1       0.261  -0.097  -0.989  0.00  0.00    -0.542 OA
ENDBRANCH   1   5
TORSDOF 1
