REMARK  Name = 
REMARK  4 active torsions:
REMARK  status: ('A' for Active; 'I' for Inactive)
REMARK    1  A    between atoms: C_1  and  O_3
REMARK    2  A    between atoms: C_1  and  P_4
REMARK    3  A    between atoms: P_4  and  O_6
REMARK    4  A    between atoms: P_4  and  O_7
REMARK                            x       y       z     vdW  Elec       q    Type
REMARK                         _______ _______ _______ _____ _____    ______ ____
ROOT
ATOM      1  P   UNL     1       2.772   0.062   0.052  0.00  0.00    +0.434 P 
ATOM      2  O   UNL     1       2.806  -0.965   1.206  0.00  0.00    -0.247 OA
ENDROOT
BRANCH   1   3
ATOM      3  C   UNL     1       0.942   0.062   0.052  0.00  0.00    +0.418 C 
ATOM      4  O   UNL     1       0.346   0.887  -0.629  0.00  0.00    -0.237 OA
BRANCH   3   5
ATOM      5  O   UNL     1       0.294  -0.851   0.844  0.00  0.00    -0.472 OA
ATOM      6  H   UNL     1       1.011  -1.330   1.333  0.00  0.00    +0.296 HD
ENDBRANCH   3   5
ENDBRANCH   1   3
BRANCH   1   7
ATOM      7  O   UNL     1       4.502   0.062   0.052  0.00  0.00    -0.316 OA
ATOM      8  H   UNL     1       4.769  -0.734   0.552  0.00  0.00    +0.220 HD
ENDBRANCH   1   7
BRANCH   1   9
ATOM      9  O   UNL     1       2.881  -0.884  -1.293  0.00  0.00    -0.316 OA
ATOM     10  H   UNL     1       3.018  -1.822  -1.070  0.00  0.00    +0.220 HD
ENDBRANCH   1   9
TORSDOF 4
