REMARK  Name = 
REMARK  4 active torsions:
REMARK  status: ('A' for Active; 'I' for Inactive)
REMARK    1  A    between atoms: C_1  and  O_3
REMARK    2  A    between atoms: C_1  and  P_4
REMARK    3  A    between atoms: P_4  and  O_6
REMARK    4  A    between atoms: P_4  and  O_7
REMARK                            x       y       z     vdW  Elec       q    Type
REMARK                         _______ _______ _______ _____ _____    ______ ____
ROOT
ATOM      1  P   UNL     1       2.751   0.038   0.048  0.00  0.00    +0.434 P 
ATOM      2  O   UNL     1       2.785   0.676   1.455  0.00  0.00    -0.247 OA
ENDROOT
BRANCH   1   3
ATOM      3  C   UNL     1       0.921   0.038   0.048  0.00  0.00    +0.418 C 
ATOM      4  O   UNL     1       0.326  -0.241  -0.984  0.00  0.00    -0.237 OA
BRANCH   3   5
ATOM      5  O   UNL     1       0.273   0.382   1.207  0.00  0.00    -0.472 OA
ATOM      6  H   UNL     1       0.990   0.631   1.845  0.00  0.00    +0.296 HD
ENDBRANCH   3   5
ENDBRANCH   1   3
BRANCH   1   7
ATOM      7  O   UNL     1       4.481   0.038   0.048  0.00  0.00    -0.316 OA
ATOM      8  H   UNL     1       4.748   0.174   0.978  0.00  0.00    +0.220 HD
ENDBRANCH   1   7
BRANCH   1   9
ATOM      9  O   UNL     1       2.861  -1.575   0.369  0.00  0.00    -0.316 OA
ATOM     10  H   UNL     1       3.002  -1.750   1.317  0.00  0.00    +0.220 HD
ENDBRANCH   1   9
TORSDOF 4
