REMARK  Name = 
REMARK  12 active torsions:
REMARK  status: ('A' for Active; 'I' for Inactive)
REMARK    1  A    between atoms: C_1  and  C_2
REMARK    2  A    between atoms: C_2  and  C_3
REMARK    3  A    between atoms: C_3  and  C_4
REMARK    4  A    between atoms: C_3  and  C_6
REMARK    5  A    between atoms: C_4  and  C_5
REMARK    6  A    between atoms: C_6  and  C_7
REMARK    7  A    between atoms: C_6  and  N_20
REMARK    8  A    between atoms: C_8  and  N_16
REMARK    9  A    between atoms: C_10  and  C_13
REMARK   10  A    between atoms: C_11  and  O_12
REMARK   11  A    between atoms: C_13  and  O_15
REMARK   12  A    between atoms: C_21  and  C_23
REMARK                            x       y       z     vdW  Elec       q    Type
REMARK                         _______ _______ _______ _____ _____    ______ ____
ROOT
ATOM      1  C   UNL     1       4.970  -0.882  -1.315  0.00  0.00    +0.079 C 
ATOM      2  C   UNL     1       4.539  -1.739  -0.122  0.00  0.00    +0.137 C 
ATOM      3  C   UNL     1       5.696  -2.672   0.254  0.00  0.00    +0.130 C 
ATOM      4  C   UNL     1       6.807  -2.346  -0.748  0.00  0.00    +0.062 C 
ATOM      5  C   UNL     1       6.513  -0.935  -1.260  0.00  0.00    +0.196 C 
ENDROOT
BRANCH   5   6
ATOM      6  N   UNL     1       7.062   0.049  -0.322  0.00  0.00    -0.110 NA
ATOM      7  C   UNL     1       8.230   0.536  -0.539  0.00  0.00    +0.377 C 
ATOM      8  N   UNL     1       8.763   1.398   0.354  0.00  0.00    -0.289 N 
ATOM      9  H   UNL     1       9.445   2.077   0.053  0.00  0.00    +0.255 HD
ATOM     10  H   UNL     1       8.125   1.712   1.073  0.00  0.00    +0.255 HD
ATOM     11  N   UNL     1       9.108   0.277  -1.535  0.00  0.00    -0.289 N 
ATOM     12  H   UNL     1       9.720   1.025  -1.824  0.00  0.00    +0.255 HD
ATOM     13  H   UNL     1       8.802  -0.306  -2.301  0.00  0.00    +0.255 HD
ENDBRANCH   5   6
BRANCH   2  14
ATOM     14  O   UNL     1       3.369  -2.502  -0.433  0.00  0.00    -0.391 OA
ATOM     15  H   UNL     1       3.290  -2.590  -1.405  0.00  0.00    +0.210 HD
ENDBRANCH   2  14
BRANCH   3  16
ATOM     16  C   UNL     1       5.397  -4.164   0.304  0.00  0.00    +0.310 C 
ATOM     17  O   UNL     1       6.239  -5.026   0.101  0.00  0.00    -0.251 OA
BRANCH  16  18
ATOM     18  O   UNL     1       4.142  -4.493   0.683  0.00  0.00    -0.480 OA
ATOM     19  H   UNL     1       3.531  -3.718   0.601  0.00  0.00    +0.295 HD
ENDBRANCH  16  18
ENDBRANCH   3  16
BRANCH   1  20
ATOM     20  C   UNL     1       4.371   0.560  -1.412  0.00  0.00    +0.085 C 
BRANCH  20  21
ATOM     21  N   UNL     1       4.945   1.222  -2.607  0.00  0.00    -0.312 N 
ATOM     22  H   UNL     1       5.632   1.944  -2.436  0.00  0.00    +0.149 HD
ATOM     23  C   UNL     1       4.711   0.813  -3.901  0.00  0.00    +0.210 C 
ATOM     24  C   UNL     1       5.415   1.634  -4.951  0.00  0.00    +0.109 C 
ATOM     25  O   UNL     1       3.984  -0.125  -4.204  0.00  0.00    -0.276 OA
ENDBRANCH  20  21
BRANCH  20  26
ATOM     26  C   UNL     1       2.794   0.724  -1.395  0.00  0.00    +0.009 C 
BRANCH  26  28
ATOM     27  C   UNL     1       0.595   0.377  -0.040  0.00  0.00    +0.004 C 
ATOM     28  C   UNL     1       2.116   0.290  -0.069  0.00  0.00    +0.002 C 
ENDBRANCH  26  28
BRANCH  26  29
ATOM     29  C   UNL     1       2.358   2.182  -1.733  0.00  0.00    +0.002 C 
ATOM     30  C   UNL     1       2.823   3.233  -0.731  0.00  0.00    +0.004 C 
ENDBRANCH  26  29
ENDBRANCH  20  26
ENDBRANCH   1  20
TORSDOF 9
