REMARK  Name = 
REMARK  12 active torsions:
REMARK  status: ('A' for Active; 'I' for Inactive)
REMARK    1  A    between atoms: C_1  and  C_2
REMARK    2  A    between atoms: C_2  and  C_3
REMARK    3  A    between atoms: C_3  and  C_4
REMARK    4  A    between atoms: C_3  and  C_6
REMARK    5  A    between atoms: C_4  and  C_5
REMARK    6  A    between atoms: C_6  and  C_7
REMARK    7  A    between atoms: C_6  and  N_20
REMARK    8  A    between atoms: C_8  and  N_16
REMARK    9  A    between atoms: C_10  and  C_13
REMARK   10  A    between atoms: C_11  and  O_12
REMARK   11  A    between atoms: C_13  and  O_15
REMARK   12  A    between atoms: C_21  and  C_23
REMARK                            x       y       z     vdW  Elec       q    Type
REMARK                         _______ _______ _______ _____ _____    ______ ____
ROOT
ATOM      1  C   UNL     1       4.891  -0.830   1.085  0.00  0.00    +0.079 C 
ATOM      2  C   UNL     1       6.395  -0.550   0.871  0.00  0.00    +0.137 C 
ATOM      3  C   UNL     1       7.109  -0.676   2.221  0.00  0.00    +0.130 C 
ATOM      4  C   UNL     1       6.001  -0.846   3.261  0.00  0.00    +0.062 C 
ATOM      5  C   UNL     1       4.777  -1.377   2.523  0.00  0.00    +0.196 C 
ENDROOT
BRANCH   5   6
ATOM      6  N   UNL     1       4.735  -2.841   2.603  0.00  0.00    -0.110 NA
ATOM      7  C   UNL     1       3.992  -3.373   3.513  0.00  0.00    +0.377 C 
ATOM      8  N   UNL     1       3.845  -4.720   3.548  0.00  0.00    -0.289 N 
ATOM      9  H   UNL     1       2.925  -5.056   3.783  0.00  0.00    +0.255 HD
ATOM     10  H   UNL     1       4.209  -5.171   2.720  0.00  0.00    +0.255 HD
ATOM     11  N   UNL     1       3.269  -2.803   4.499  0.00  0.00    -0.289 N 
ATOM     12  H   UNL     1       2.425  -3.260   4.810  0.00  0.00    +0.255 HD
ATOM     13  H   UNL     1       3.214  -1.798   4.547  0.00  0.00    +0.255 HD
ENDBRANCH   5   6
BRANCH   2  14
ATOM     14  O   UNL     1       6.589   0.733   0.266  0.00  0.00    -0.391 OA
ATOM     15  H   UNL     1       5.998   1.383   0.696  0.00  0.00    +0.210 HD
ENDBRANCH   2  14
BRANCH   3  16
ATOM     16  C   UNL     1       8.057   0.443   2.624  0.00  0.00    +0.310 C 
ATOM     17  O   UNL     1       8.325   0.706   3.789  0.00  0.00    -0.251 OA
BRANCH  16  18
ATOM     18  O   UNL     1       8.636   1.109   1.605  0.00  0.00    -0.480 OA
ATOM     19  H   UNL     1       8.215   0.914   0.734  0.00  0.00    +0.295 HD
ENDBRANCH  16  18
ENDBRANCH   3  16
BRANCH   1  20
ATOM     20  C   UNL     1       4.276  -1.608  -0.120  0.00  0.00    +0.085 C 
BRANCH  20  21
ATOM     21  N   UNL     1       4.949  -2.893  -0.303  0.00  0.00    -0.312 N 
ATOM     22  H   UNL     1       5.110  -3.442   0.538  0.00  0.00    +0.149 HD
ATOM     23  C   UNL     1       5.324  -3.370  -1.538  0.00  0.00    +0.210 C 
ATOM     24  C   UNL     1       6.081  -4.671  -1.504  0.00  0.00    +0.109 C 
ATOM     25  O   UNL     1       5.103  -2.783  -2.593  0.00  0.00    -0.276 OA
ENDBRANCH  20  21
BRANCH  20  26
ATOM     26  C   UNL     1       2.705  -1.768  -0.167  0.00  0.00    +0.009 C 
BRANCH  26  28
ATOM     27  C   UNL     1       0.747  -3.060   1.073  0.00  0.00    +0.004 C 
ATOM     28  C   UNL     1       2.193  -2.608   1.014  0.00  0.00    +0.002 C 
ENDBRANCH  26  28
BRANCH  26  29
ATOM     29  C   UNL     1       2.057  -0.371  -0.303  0.00  0.00    +0.002 C 
ATOM     30  C   UNL     1       0.556  -0.361  -0.544  0.00  0.00    +0.004 C 
ENDBRANCH  26  29
ENDBRANCH  20  26
ENDBRANCH   1  20
TORSDOF 9
