REMARK  Name = 
REMARK  2 active torsions:
REMARK  status: ('A' for Active; 'I' for Inactive)
REMARK    1  A    between atoms: C_2  and  S_9
REMARK    2  A    between atoms: N_5  and  O_8
REMARK                            x       y       z     vdW  Elec       q    Type
REMARK                         _______ _______ _______ _____ _____    ______ ____
ROOT
ATOM      1  C   UNL     1      -0.710  -0.877  -0.345  0.00  0.00    +0.133 C 
ATOM      2  C   UNL     1       0.753  -0.753  -0.026  0.00  0.00    +0.247 C 
ATOM      3  O   UNL     1       1.434  -1.581   0.568  0.00  0.00    -0.273 OA
ATOM      4  N   UNL     1       1.081   0.521  -0.365  0.00  0.00    -0.115 N 
ATOM      5  C   UNL     1       0.012   1.369  -0.241  0.00  0.00    +0.269 C 
ATOM      6  O   UNL     1       0.103   2.587  -0.269  0.00  0.00    -0.271 OA
ATOM      7  C   UNL     1      -1.188   0.520   0.060  0.00  0.00    +0.215 C 
ENDROOT
BRANCH   7   8
ATOM      8  S   UNL     1      -1.446   0.568   1.827  0.00  0.00    -0.068 S 
ATOM      9  O   UNL     1      -2.413  -0.496   2.048  0.00  0.00    -0.724 OA
ATOM     10  O   UNL     1      -1.903   1.915   2.105  0.00  0.00    -0.185 OA
ATOM     11  O   UNL     1      -0.125   0.241   2.388  0.00  0.00    -0.185 OA
ENDBRANCH   7   8
BRANCH   4  12
ATOM     12  O   UNL     1       2.366   1.032  -0.155  0.00  0.00    -0.285 OA
ATOM     13  H   UNL     1       2.187   1.990  -0.035  0.00  0.00    +0.242 HD
ENDBRANCH   4  12
TORSDOF 2
REMARK  Name = 
REMARK  2 active torsions:
REMARK  status: ('A' for Active; 'I' for Inactive)
REMARK    1  A    between atoms: C_2  and  S_9
REMARK    2  A    between atoms: N_5  and  O_8
REMARK                            x       y       z     vdW  Elec       q    Type
REMARK                         _______ _______ _______ _____ _____    ______ ____
ROOT
ATOM      1 NA   UNL     1       1.471  -0.935   2.895  0.00  0.00    +0.000 Na
ENDROOT
TORSDOF 0
