REMARK  Name = 
REMARK  5 active torsions:
REMARK  status: ('A' for Active; 'I' for Inactive)
REMARK    1  A    between atoms: C_1  and  C_2
REMARK    2  A    between atoms: N_4  and  C_10
REMARK    3  A    between atoms: C_12  and  O_17
REMARK    4  A    between atoms: C_13  and  C_15
REMARK    5  A    between atoms: C_15  and  O_16
REMARK                            x       y       z     vdW  Elec       q    Type
REMARK                         _______ _______ _______ _____ _____    ______ ____
ROOT
ATOM      1  C   UNL     1       5.395   2.501  -0.434  0.00  0.00    +0.260 C 
ATOM      2  O   UNL     1       6.539   2.573   0.445  0.00  0.00    -0.345 OA
ATOM      3  C   UNL     1       6.724   3.969   0.791  0.00  0.00    +0.178 C 
ATOM      4  C   UNL     1       5.757   4.788  -0.083  0.00  0.00    +0.184 C 
ATOM      5  C   UNL     1       4.622   3.809  -0.272  0.00  0.00    +0.246 C 
ATOM      6  F   UNL     1       3.874   3.787   0.869  0.00  0.00    -0.238 F 
ENDROOT
BRANCH   1  15
ATOM      7  C   UNL     1       3.550  -0.954   2.656  0.00  0.00    +0.051 C 
ATOM      8  C   UNL     1       3.719  -0.317   1.317  0.00  0.00    +0.030 A 
ATOM      9  C   UNL     1       2.948  -0.893   0.189  0.00  0.00    +0.257 A 
ATOM     10  O   UNL     1       2.207  -1.858   0.336  0.00  0.00    -0.267 OA
ATOM     11  N   UNL     1       3.101  -0.274  -1.016  0.00  0.00    -0.275 N 
ATOM     12  H   UNL     1       2.557  -0.633  -1.786  0.00  0.00    +0.173 HD
ATOM     13  C   UNL     1       3.856   0.836  -1.260  0.00  0.00    +0.331 A 
ATOM     14  O   UNL     1       3.843   1.370  -2.367  0.00  0.00    -0.246 OA
ATOM     15  N   UNL     1       4.608   1.302  -0.191  0.00  0.00    -0.271 N 
ATOM     16  C   UNL     1       4.506   0.738   1.065  0.00  0.00    +0.102 A 
ENDBRANCH   1  15
BRANCH   4  17
ATOM     17  O   UNL     1       6.258   5.168  -1.366  0.00  0.00    -0.386 OA
ATOM     18  H   UNL     1       7.176   4.836  -1.468  0.00  0.00    +0.210 HD
ENDBRANCH   4  17
BRANCH   3  19
ATOM     19  C   UNL     1       8.200   4.312   0.615  0.00  0.00    +0.190 C 
BRANCH  19  20
ATOM     20  O   UNL     1       8.592   4.038  -0.735  0.00  0.00    -0.392 OA
ATOM     21  H   UNL     1       8.580   3.063  -0.820  0.00  0.00    +0.210 HD
ENDBRANCH  19  20
ENDBRANCH   3  19
TORSDOF 4
