REMARK  Name = 
REMARK  5 active torsions:
REMARK  status: ('A' for Active; 'I' for Inactive)
REMARK    1  A    between atoms: C_1  and  C_2
REMARK    2  A    between atoms: N_4  and  C_10
REMARK    3  A    between atoms: C_12  and  O_17
REMARK    4  A    between atoms: C_13  and  C_15
REMARK    5  A    between atoms: C_15  and  O_16
REMARK                            x       y       z     vdW  Elec       q    Type
REMARK                         _______ _______ _______ _____ _____    ______ ____
ROOT
ATOM      1  C   UNL     1       5.392   2.547  -0.322  0.00  0.00    +0.260 C 
ATOM      2  O   UNL     1       6.537   2.620   0.556  0.00  0.00    -0.345 OA
ATOM      3  C   UNL     1       6.723   4.017   0.899  0.00  0.00    +0.178 C 
ATOM      4  C   UNL     1       5.755   4.835   0.025  0.00  0.00    +0.184 C 
ATOM      5  C   UNL     1       4.621   3.856  -0.165  0.00  0.00    +0.246 C 
ATOM      6  F   UNL     1       3.869   3.836   0.973  0.00  0.00    -0.238 F 
ENDROOT
BRANCH   1  15
ATOM      7  C   UNL     1       3.541  -0.909   2.767  0.00  0.00    +0.051 C 
ATOM      8  C   UNL     1       3.715  -0.271   1.429  0.00  0.00    +0.030 A 
ATOM      9  C   UNL     1       2.942  -0.846   0.302  0.00  0.00    +0.257 A 
ATOM     10  O   UNL     1       2.192  -1.804   0.451  0.00  0.00    -0.267 OA
ATOM     11  N   UNL     1       3.103  -0.236  -0.903  0.00  0.00    -0.275 N 
ATOM     12  H   UNL     1       2.562  -0.592  -1.676  0.00  0.00    +0.173 HD
ATOM     13  C   UNL     1       3.855   0.880  -1.147  0.00  0.00    +0.331 A 
ATOM     14  O   UNL     1       3.839   1.412  -2.255  0.00  0.00    -0.246 OA
ATOM     15  N   UNL     1       4.605   1.347  -0.079  0.00  0.00    -0.271 N 
ATOM     16  C   UNL     1       4.502   0.784   1.179  0.00  0.00    +0.102 A 
ENDBRANCH   1  15
BRANCH   4  17
ATOM     17  O   UNL     1       6.256   5.218  -1.257  0.00  0.00    -0.386 OA
ATOM     18  H   UNL     1       7.168   4.871  -1.367  0.00  0.00    +0.210 HD
ENDBRANCH   4  17
BRANCH   3  19
ATOM     19  C   UNL     1       8.199   4.359   0.720  0.00  0.00    +0.190 C 
BRANCH  19  20
ATOM     20  O   UNL     1       8.589   4.082  -0.630  0.00  0.00    -0.392 OA
ATOM     21  H   UNL     1       8.573   3.107  -0.713  0.00  0.00    +0.210 HD
ENDBRANCH  19  20
ENDBRANCH   3  19
TORSDOF 4
