REMARK  Name = 
REMARK  5 active torsions:
REMARK  status: ('A' for Active; 'I' for Inactive)
REMARK    1  A    between atoms: C_1  and  C_2
REMARK    2  A    between atoms: N_4  and  C_10
REMARK    3  A    between atoms: C_13  and  N_20
REMARK    4  A    between atoms: C_15  and  C_18
REMARK    5  A    between atoms: C_18  and  O_19
REMARK                            x       y       z     vdW  Elec       q    Type
REMARK                         _______ _______ _______ _____ _____    ______ ____
ROOT
ATOM      1  C   UNL     1       5.331   2.529  -0.364  0.00  0.00    +0.226 C 
ATOM      2  O   UNL     1       6.277   2.610   0.719  0.00  0.00    -0.349 OA
ATOM      3  C   UNL     1       6.580   4.008   0.940  0.00  0.00    +0.177 C 
ATOM      4  C   UNL     1       5.658   4.831   0.028  0.00  0.00    +0.226 C 
ATOM      5  C   UNL     1       4.566   3.844  -0.334  0.00  0.00    +0.091 C 
ENDROOT
BRANCH   1  14
ATOM      6  C   UNL     1       3.165  -0.976   2.447  0.00  0.00    +0.051 C 
ATOM      7  C   UNL     1       3.457  -0.316   1.139  0.00  0.00    +0.030 A 
ATOM      8  C   UNL     1       2.813  -0.873  -0.071  0.00  0.00    +0.257 A 
ATOM      9  O   UNL     1       2.049  -1.832  -0.018  0.00  0.00    -0.267 OA
ATOM     10  N   UNL     1       3.113  -0.248  -1.245  0.00  0.00    -0.275 N 
ATOM     11  H   UNL     1       2.670  -0.603  -2.077  0.00  0.00    +0.173 HD
ATOM     12  C   UNL     1       3.872   0.882  -1.389  0.00  0.00    +0.331 A 
ATOM     13  O   UNL     1       3.975   1.423  -2.489  0.00  0.00    -0.246 OA
ATOM     14  N   UNL     1       4.484   1.349  -0.232  0.00  0.00    -0.274 N 
ATOM     15  C   UNL     1       4.262   0.744   0.990  0.00  0.00    +0.101 A 
ENDBRANCH   1  14
BRANCH   4  16
ATOM     16  N   UNL     1       6.376   5.200  -1.211  0.00  0.00    +0.082 NA
ATOM     17  N   UNL     1       6.898   6.331  -1.229  0.00  0.00    -0.014 NA
ATOM     18  N   UNL     1       7.382   7.363  -1.233  0.00  0.00    -0.328 NA
ENDBRANCH   4  16
BRANCH   3  19
ATOM     19  C   UNL     1       6.379   4.308   2.428  0.00  0.00    +0.189 C 
BRANCH  19  20
ATOM     20  O   UNL     1       5.025   4.094   2.820  0.00  0.00    -0.392 OA
ATOM     21  H   UNL     1       4.856   3.144   2.696  0.00  0.00    +0.210 HD
ENDBRANCH  19  20
ENDBRANCH   3  19
TORSDOF 4
