REMARK  Name = 
REMARK  5 active torsions:
REMARK  status: ('A' for Active; 'I' for Inactive)
REMARK    1  A    between atoms: C_1  and  C_2
REMARK    2  A    between atoms: N_4  and  C_10
REMARK    3  A    between atoms: C_13  and  N_20
REMARK    4  A    between atoms: C_15  and  C_18
REMARK    5  A    between atoms: C_18  and  O_19
REMARK                            x       y       z     vdW  Elec       q    Type
REMARK                         _______ _______ _______ _____ _____    ______ ____
ROOT
ATOM      1  C   UNL     1       5.411   2.418  -0.398  0.00  0.00    +0.226 C 
ATOM      2  O   UNL     1       6.309   2.523   0.720  0.00  0.00    -0.349 OA
ATOM      3  C   UNL     1       6.710   3.911   0.808  0.00  0.00    +0.177 C 
ATOM      4  C   UNL     1       5.718   4.731  -0.036  0.00  0.00    +0.226 C 
ATOM      5  C   UNL     1       4.637   3.725  -0.390  0.00  0.00    +0.091 C 
ENDROOT
BRANCH   1  14
ATOM      6  C   UNL     1       3.165  -1.106   2.335  0.00  0.00    +0.051 C 
ATOM      7  C   UNL     1       3.523  -0.451   1.041  0.00  0.00    +0.030 A 
ATOM      8  C   UNL     1       3.013  -1.074  -0.201  0.00  0.00    +0.257 A 
ATOM      9  O   UNL     1       2.317  -2.083  -0.186  0.00  0.00    -0.267 OA
ATOM     10  N   UNL     1       3.362  -0.456  -1.365  0.00  0.00    -0.275 N 
ATOM     11  H   UNL     1       3.013  -0.859  -2.220  0.00  0.00    +0.173 HD
ATOM     12  C   UNL     1       4.082   0.702  -1.480  0.00  0.00    +0.331 A 
ATOM     13  O   UNL     1       4.254   1.215  -2.583  0.00  0.00    -0.246 OA
ATOM     14  N   UNL     1       4.578   1.225  -0.293  0.00  0.00    -0.274 N 
ATOM     15  C   UNL     1       4.277   0.650   0.927  0.00  0.00    +0.101 A 
ENDBRANCH   1  14
BRANCH   4  16
ATOM     16  N   UNL     1       6.368   5.183  -1.283  0.00  0.00    +0.082 NA
ATOM     17  N   UNL     1       6.881   6.317  -1.249  0.00  0.00    -0.014 NA
ATOM     18  N   UNL     1       7.357   7.352  -1.202  0.00  0.00    -0.328 NA
ENDBRANCH   4  16
BRANCH   3  19
ATOM     19  C   UNL     1       6.721   4.313   2.281  0.00  0.00    +0.189 C 
BRANCH  19  20
ATOM     20  O   UNL     1       5.411   4.213   2.837  0.00  0.00    -0.392 OA
ATOM     21  H   UNL     1       5.147   3.282   2.728  0.00  0.00    +0.210 HD
ENDBRANCH  19  20
ENDBRANCH   3  19
TORSDOF 4
