REMARK  Name = 
REMARK  17 active torsions:
REMARK  status: ('A' for Active; 'I' for Inactive)
REMARK    1  A    between atoms: C_1  and  C_2
REMARK    2  A    between atoms: C_2  and  C_3
REMARK    3  A    between atoms: C_2  and  C_4
REMARK    4  A    between atoms: C_2  and  N_5
REMARK    5  A    between atoms: C_6  and  C_8
REMARK    6  A    between atoms: N_17  and  C_18
REMARK    7  A    between atoms: C_18  and  C_19
REMARK    8  A    between atoms: C_19  and  C_20
REMARK    9  A    between atoms: C_19  and  O_49
REMARK   10  A    between atoms: C_20  and  C_21
REMARK   11  A    between atoms: C_20  and  N_28
REMARK   12  A    between atoms: C_21  and  C_22
REMARK   13  A    between atoms: C_29  and  C_31
REMARK   14  A    between atoms: C_31  and  C_32
REMARK   15  A    between atoms: C_31  and  N_36
REMARK   16  A    between atoms: C_32  and  C_33
REMARK   17  A    between atoms: C_37  and  C_39
REMARK                            x       y       z     vdW  Elec       q    Type
REMARK                         _______ _______ _______ _____ _____    ______ ____
ROOT
ATOM      1  C   UNL     1       6.985   4.188   1.408  0.00  0.00    +0.107 C 
ENDROOT
BRANCH   1   2
ATOM      2  N   UNL     1       6.426   3.222   0.432  0.00  0.00    -0.308 N 
ATOM      3  H   UNL     1       6.560   2.230   0.644  0.00  0.00    +0.149 HD
ATOM      4  C   UNL     1       5.629   3.549  -0.651  0.00  0.00    +0.234 C 
ATOM      5  O   UNL     1       5.261   4.704  -0.869  0.00  0.00    -0.274 OA
BRANCH   4   6
ATOM      6  C   UNL     1       5.173   2.350  -1.552  0.00  0.00    +0.168 C 
BRANCH   6   7
ATOM      7  N   UNL     1       4.105   1.612  -0.881  0.00  0.00    -0.298 N 
ATOM      8  H   UNL     1       3.140   1.897  -1.026  0.00  0.00    +0.150 HD
ATOM      9  C   UNL     1       4.339   0.828   0.240  0.00  0.00    +0.263 C 
ATOM     10  O   UNL     1       5.460   0.608   0.673  0.00  0.00    -0.269 OA
BRANCH   9  11
ATOM     11  C   UNL     1       3.127   0.352   0.949  0.00  0.00    +0.126 A 
ATOM     12  C   UNL     1       3.265  -0.120   2.238  0.00  0.00    +0.033 A 
ATOM     13  C   UNL     1       2.110  -0.355   2.962  0.00  0.00    +0.012 A 
ATOM     14  C   UNL     1       0.863  -0.113   2.368  0.00  0.00    +0.000 A 
ATOM     15  C   UNL     1       0.826   0.283   1.011  0.00  0.00    +0.072 A 
ATOM     16  C   UNL     1      -0.416   0.468   0.420  0.00  0.00    +0.028 A 
ATOM     17  C   UNL     1      -1.598   0.359   1.157  0.00  0.00    +0.002 A 
ATOM     18  C   UNL     1      -1.546   0.035   2.509  0.00  0.00    +0.001 A 
ATOM     19  C   UNL     1      -0.319  -0.226   3.110  0.00  0.00    +0.010 A 
ATOM     20  N   UNL     1       1.941   0.525   0.301  0.00  0.00    -0.242 NA
ENDBRANCH   9  11
ENDBRANCH   6   7
BRANCH   6  21
ATOM     21  C   UNL     1       6.355   1.495  -2.019  0.00  0.00    +0.127 C 
BRANCH  21  22
ATOM     22  C   UNL     1       6.100   0.460  -3.091  0.00  0.00    +0.213 C 
ATOM     23  N   UNL     1       4.882  -0.136  -3.143  0.00  0.00    -0.329 N 
ATOM     24  H   UNL     1       4.788  -0.926  -3.770  0.00  0.00    +0.145 HD
ATOM     25  H   UNL     1       4.193  -0.021  -2.408  0.00  0.00    +0.145 HD
ATOM     26  O   UNL     1       6.988   0.092  -3.856  0.00  0.00    -0.276 OA
ENDBRANCH  21  22
ENDBRANCH   6  21
ENDBRANCH   4   6
ENDBRANCH   1   2
BRANCH   1  27
ATOM     27  C   UNL     1       7.401   3.438   2.717  0.00  0.00    +0.149 C 
BRANCH  27  28
ATOM     28  O   UNL     1       8.433   2.461   2.448  0.00  0.00    -0.389 OA
ATOM     29  H   UNL     1       9.225   2.919   2.118  0.00  0.00    +0.210 HD
ENDBRANCH  27  28
BRANCH  27  30
ATOM     30  C   UNL     1       7.855   4.309   3.925  0.00  0.00    +0.118 C 
BRANCH  30  32
ATOM     31  C   UNL     1       7.584   6.407   5.172  0.00  0.00    +0.143 C 
ATOM     32  N   UNL     1       6.888   5.325   4.405  0.00  0.00    -0.289 NA
ATOM     33  C   UNL     1       5.779   4.752   5.207  0.00  0.00    +0.089 C 
ATOM     34  C   UNL     1       6.073   4.399   6.685  0.00  0.00    +0.006 C 
ATOM     35  C   UNL     1       6.795   5.541   7.418  0.00  0.00    -0.005 C 
ATOM     36  C   UNL     1       7.141   5.118   8.857  0.00  0.00    +0.004 C 
ATOM     37  C   UNL     1       5.863   4.771   9.631  0.00  0.00    +0.000 C 
ATOM     38  C   UNL     1       5.039   3.708   8.908  0.00  0.00    +0.000 C 
ATOM     39  C   UNL     1       4.772   4.077   7.446  0.00  0.00    +0.005 C 
ATOM     40  C   UNL     1       8.007   5.986   6.600  0.00  0.00    +0.032 C 
BRANCH  31  43
ATOM     41  N   UNL     1       5.906   7.905   4.079  0.00  0.00    -0.309 N 
ATOM     42  H   UNL     1       5.792   7.078   3.499  0.00  0.00    +0.149 HD
ATOM     43  C   UNL     1       6.753   7.740   5.164  0.00  0.00    +0.231 C 
ATOM     44  O   UNL     1       6.924   8.612   6.016  0.00  0.00    -0.274 OA
BRANCH  41  46
ATOM     45  C   UNL     1       6.142  10.300   3.482  0.00  0.00    +0.031 C 
ATOM     46  C   UNL     1       5.163   9.140   3.737  0.00  0.00    +0.026 C 
ATOM     47  C   UNL     1       4.363   8.918   2.438  0.00  0.00    +0.031 C 
ATOM     48  C   UNL     1       4.154   9.546   4.828  0.00  0.00    +0.031 C 
ENDBRANCH  41  46
ENDBRANCH  31  43
ENDBRANCH  30  32
ENDBRANCH  27  30
ENDBRANCH   1  27
BRANCH   1  49
ATOM     49  C   UNL     1       8.080   5.103   0.775  0.00  0.00    +0.060 C 
BRANCH  49  50
ATOM     50  C   UNL     1       9.373   4.472   0.294  0.00  0.00    -0.046 A 
ATOM     51  C   UNL     1      10.614   4.932   0.755  0.00  0.00    +0.004 A 
ATOM     52  C   UNL     1      11.802   4.341   0.317  0.00  0.00    +0.000 A 
ATOM     53  C   UNL     1      11.772   3.285  -0.596  0.00  0.00    +0.000 A 
ATOM     54  C   UNL     1      10.554   2.835  -1.085  0.00  0.00    +0.000 A 
ATOM     55  C   UNL     1       9.372   3.439  -0.652  0.00  0.00    +0.004 A 
ENDBRANCH  49  50
ENDBRANCH   1  49
TORSDOF 14
