REMARK  Name = 
REMARK  17 active torsions:
REMARK  status: ('A' for Active; 'I' for Inactive)
REMARK    1  A    between atoms: C_1  and  C_2
REMARK    2  A    between atoms: C_2  and  C_3
REMARK    3  A    between atoms: C_2  and  C_4
REMARK    4  A    between atoms: C_2  and  N_5
REMARK    5  A    between atoms: C_6  and  C_8
REMARK    6  A    between atoms: N_17  and  C_18
REMARK    7  A    between atoms: C_18  and  C_19
REMARK    8  A    between atoms: C_19  and  C_20
REMARK    9  A    between atoms: C_19  and  O_49
REMARK   10  A    between atoms: C_20  and  C_21
REMARK   11  A    between atoms: C_20  and  N_28
REMARK   12  A    between atoms: C_21  and  C_22
REMARK   13  A    between atoms: C_29  and  C_31
REMARK   14  A    between atoms: C_31  and  C_32
REMARK   15  A    between atoms: C_31  and  N_36
REMARK   16  A    between atoms: C_32  and  C_33
REMARK   17  A    between atoms: C_37  and  C_39
REMARK                            x       y       z     vdW  Elec       q    Type
REMARK                         _______ _______ _______ _____ _____    ______ ____
ROOT
ATOM      1  C   UNL     1       7.021   4.208   1.623  0.00  0.00    +0.107 C 
ENDROOT
BRANCH   1   2
ATOM      2  N   UNL     1       6.497   3.266   0.604  0.00  0.00    -0.308 N 
ATOM      3  H   UNL     1       6.643   2.273   0.796  0.00  0.00    +0.149 HD
ATOM      4  C   UNL     1       5.671   3.610  -0.449  0.00  0.00    +0.234 C 
ATOM      5  O   UNL     1       5.246   4.749  -0.610  0.00  0.00    -0.274 OA
BRANCH   4   6
ATOM      6  C   UNL     1       5.221   2.423  -1.371  0.00  0.00    +0.168 C 
BRANCH   6   7
ATOM      7  N   UNL     1       4.165   1.653  -0.700  0.00  0.00    -0.298 N 
ATOM      8  H   UNL     1       3.195   1.923  -0.848  0.00  0.00    +0.150 HD
ATOM      9  C   UNL     1       4.423   0.868   0.397  0.00  0.00    +0.263 C 
ATOM     10  O   UNL     1       5.554   0.651   0.833  0.00  0.00    -0.269 OA
BRANCH   9  11
ATOM     11  C   UNL     1       3.221   0.341   1.093  0.00  0.00    +0.126 A 
ATOM     12  C   UNL     1       3.377  -0.178   2.367  0.00  0.00    +0.033 A 
ATOM     13  C   UNL     1       2.228  -0.460   3.086  0.00  0.00    +0.012 A 
ATOM     14  C   UNL     1       0.978  -0.216   2.508  0.00  0.00    +0.000 A 
ATOM     15  C   UNL     1       0.924   0.232   1.168  0.00  0.00    +0.072 A 
ATOM     16  C   UNL     1      -0.325   0.420   0.590  0.00  0.00    +0.028 A 
ATOM     17  C   UNL     1      -1.501   0.257   1.329  0.00  0.00    +0.002 A 
ATOM     18  C   UNL     1      -1.435  -0.120   2.667  0.00  0.00    +0.001 A 
ATOM     19  C   UNL     1      -0.198  -0.385   3.250  0.00  0.00    +0.010 A 
ATOM     20  N   UNL     1       2.029   0.520   0.465  0.00  0.00    -0.242 NA
ENDBRANCH   9  11
ENDBRANCH   6   7
BRANCH   6  21
ATOM     21  C   UNL     1       6.402   1.581  -1.864  0.00  0.00    +0.127 C 
BRANCH  21  22
ATOM     22  C   UNL     1       6.130   0.577  -2.956  0.00  0.00    +0.213 C 
ATOM     23  N   UNL     1       4.930  -0.049  -2.992  0.00  0.00    -0.329 N 
ATOM     24  H   UNL     1       4.827  -0.814  -3.648  0.00  0.00    +0.145 HD
ATOM     25  H   UNL     1       4.240   0.049  -2.256  0.00  0.00    +0.145 HD
ATOM     26  O   UNL     1       7.005   0.249  -3.763  0.00  0.00    -0.276 OA
ENDBRANCH  21  22
ENDBRANCH   6  21
ENDBRANCH   4   6
ENDBRANCH   1   2
BRANCH   1  27
ATOM     27  C   UNL     1       7.457   3.416   2.903  0.00  0.00    +0.149 C 
BRANCH  27  28
ATOM     28  O   UNL     1       8.516   2.491   2.610  0.00  0.00    -0.389 OA
ATOM     29  H   UNL     1       9.298   2.987   2.309  0.00  0.00    +0.210 HD
ENDBRANCH  27  28
BRANCH  27  30
ATOM     30  C   UNL     1       7.862   4.256   4.152  0.00  0.00    +0.118 C 
BRANCH  30  32
ATOM     31  C   UNL     1       7.511   6.325   5.432  0.00  0.00    +0.143 C 
ATOM     32  N   UNL     1       6.861   5.231   4.643  0.00  0.00    -0.289 NA
ATOM     33  C   UNL     1       5.763   4.613   5.427  0.00  0.00    +0.089 C 
ATOM     34  C   UNL     1       6.048   4.255   6.905  0.00  0.00    +0.006 C 
ATOM     35  C   UNL     1       6.757   5.390   7.658  0.00  0.00    -0.005 C 
ATOM     36  C   UNL     1       7.108   4.935   9.089  0.00  0.00    +0.004 C 
ATOM     37  C   UNL     1       5.828   4.582   9.854  0.00  0.00    +0.000 C 
ATOM     38  C   UNL     1       4.992   3.540   9.111  0.00  0.00    +0.000 C 
ATOM     39  C   UNL     1       4.738   3.929   7.653  0.00  0.00    +0.005 C 
ATOM     40  C   UNL     1       7.954   5.880   6.847  0.00  0.00    +0.032 C 
BRANCH  31  43
ATOM     41  N   UNL     1       5.749   7.760   4.374  0.00  0.00    -0.309 N 
ATOM     42  H   UNL     1       5.666   6.936   3.786  0.00  0.00    +0.149 HD
ATOM     43  C   UNL     1       6.612   7.617   5.453  0.00  0.00    +0.231 C 
ATOM     44  O   UNL     1       6.744   8.477   6.322  0.00  0.00    -0.274 OA
BRANCH  41  46
ATOM     45  C   UNL     1       5.790  10.194   3.904  0.00  0.00    +0.031 C 
ATOM     46  C   UNL     1       4.909   8.946   4.084  0.00  0.00    +0.026 C 
ATOM     47  C   UNL     1       4.140   8.737   2.760  0.00  0.00    +0.031 C 
ATOM     48  C   UNL     1       3.857   9.203   5.178  0.00  0.00    +0.031 C 
ENDBRANCH  41  46
ENDBRANCH  31  43
ENDBRANCH  30  32
ENDBRANCH  27  30
ENDBRANCH   1  27
BRANCH   1  49
ATOM     49  C   UNL     1       8.083   5.182   1.032  0.00  0.00    +0.060 C 
BRANCH  49  50
ATOM     50  C   UNL     1       9.399   4.620   0.525  0.00  0.00    -0.046 A 
ATOM     51  C   UNL     1      10.617   5.123   1.005  0.00  0.00    +0.004 A 
ATOM     52  C   UNL     1      11.835   4.621   0.533  0.00  0.00    +0.000 A 
ATOM     53  C   UNL     1      11.855   3.614  -0.429  0.00  0.00    +0.000 A 
ATOM     54  C   UNL     1      10.657   3.124  -0.936  0.00  0.00    +0.000 A 
ATOM     55  C   UNL     1       9.445   3.633  -0.467  0.00  0.00    +0.004 A 
ENDBRANCH  49  50
ENDBRANCH   1  49
TORSDOF 14
