REMARK  Name = 
REMARK  4 active torsions:
REMARK  status: ('A' for Active; 'I' for Inactive)
REMARK    1  A    between atoms: C3*_2  and  O3*_17
REMARK    2  A    between atoms: C4*_3  and  C5*_15
REMARK    3  A    between atoms: C1*_5  and  N_6
REMARK    4  A    between atoms: C5*_15  and  O5*_16
REMARK                            x       y       z     vdW  Elec       q    Type
REMARK                         _______ _______ _______ _____ _____    ______ ____
ROOT
ATOM      1  C2* UNL     1      -0.788  -1.025  -0.178  0.00  0.00    +0.088 C 
ATOM      2  C1* UNL     1       0.733  -1.005  -0.042  0.00  0.00    +0.226 C 
ATOM      3  O4* UNL     1       1.154   0.371  -0.097  0.00  0.00    -0.348 OA
ATOM      4  C4* UNL     1      -0.013   1.219  -0.202  0.00  0.00    +0.175 C 
ATOM      5  C3* UNL     1      -1.184   0.363   0.263  0.00  0.00    +0.150 C 
ENDROOT
BRANCH   2   6
ATOM      6  N   UNL     1       1.395  -1.804  -1.069  0.00  0.00    -0.273 N 
ATOM      7  C   UNL     1       1.421  -3.179  -0.875  0.00  0.00    +0.331 A 
ATOM      8  O   UNL     1       0.968  -3.740   0.120  0.00  0.00    -0.246 OA
ATOM      9  N   UNL     1       1.960  -3.911  -1.897  0.00  0.00    -0.274 N 
ATOM     10  H   UNL     1       1.926  -4.913  -1.793  0.00  0.00    +0.173 HD
ATOM     11  C   UNL     1       2.264  -3.439  -3.145  0.00  0.00    +0.267 A 
ATOM     12  O   UNL     1       2.483  -4.211  -4.073  0.00  0.00    -0.267 OA
ATOM     13  C   UNL     1       2.270  -1.959  -3.291  0.00  0.00    +0.094 A 
ATOM     14  I   UNL     1       2.833  -1.104  -5.058  0.00  0.00    -0.037 I 
ATOM     15  C   UNL     1       1.846  -1.235  -2.248  0.00  0.00    +0.113 A 
ENDBRANCH   2   6
BRANCH   5  16
ATOM     16  O3* UNL     1      -1.310   0.396   1.686  0.00  0.00    -0.389 OA
ATOM     17  H3* UNL     1      -0.422   0.322   2.086  0.00  0.00    +0.210 HD
ENDBRANCH   5  16
BRANCH   4  18
ATOM     18  C5* UNL     1      -0.183   1.695  -1.653  0.00  0.00    +0.190 C 
BRANCH  18  19
ATOM     19  O5* UNL     1       0.948   2.443  -2.094  0.00  0.00    -0.392 OA
ATOM     20  H5* UNL     1       1.125   3.141  -1.439  0.00  0.00    +0.210 HD
ENDBRANCH  18  19
ENDBRANCH   4  18
TORSDOF 4
