REMARK  Name = 
REMARK  17 active torsions:
REMARK  status: ('A' for Active; 'I' for Inactive)
REMARK    1  A    between atoms: C_1  and  C_2
REMARK    2  A    between atoms: C_2  and  C_3
REMARK    3  A    between atoms: C_2  and  C_4
REMARK    4  A    between atoms: C_2  and  N_5
REMARK    5  A    between atoms: C_6  and  C_8
REMARK    6  A    between atoms: N_10  and  C_39
REMARK    7  A    between atoms: N_13  and  C_14
REMARK    8  A    between atoms: C_14  and  C_15
REMARK    9  A    between atoms: C_15  and  C_16
REMARK   10  A    between atoms: C_15  and  O_38
REMARK   11  A    between atoms: C_16  and  C_17
REMARK   12  A    between atoms: C_17  and  C_18
REMARK   13  A    between atoms: C_17  and  C_25
REMARK   14  A    between atoms: C_18  and  C_19
REMARK   15  A    between atoms: N_27  and  C_28
REMARK   16  A    between atoms: C_29  and  O_37
REMARK   17  A    between atoms: C_39  and  C_40
REMARK                            x       y       z     vdW  Elec       q    Type
REMARK                         _______ _______ _______ _____ _____    ______ ____
ROOT
ATOM      1  C   UNL     1       6.491   5.259   1.203  0.00  0.00    +0.129 C 
ENDROOT
BRANCH   1   2
ATOM      2  O   UNL     1       7.526   6.252   1.279  0.00  0.00    -0.391 OA
ATOM      3  H   UNL     1       8.294   5.955   0.758  0.00  0.00    +0.210 HD
ENDBRANCH   1   2
BRANCH   1   4
ATOM      4  C   UNL     1       6.582   4.542  -0.187  0.00  0.00    +0.116 C 
BRANCH   4   6
ATOM      5  C   UNL     1       5.935   2.894  -1.879  0.00  0.00    +0.157 C 
ATOM      6  N   UNL     1       5.529   3.555  -0.571  0.00  0.00    -0.287 NA
ATOM      7  C   UNL     1       4.226   4.239  -0.732  0.00  0.00    +0.100 C 
ATOM      8  C   UNL     1       4.019   5.056  -2.046  0.00  0.00    +0.100 C 
ATOM      9  N   UNL     1       4.457   4.304  -3.218  0.00  0.00    -0.295 NA
ATOM     10  C   UNL     1       5.831   3.818  -3.105  0.00  0.00    +0.113 C 
BRANCH   5  13
ATOM     11  N   UNL     1       3.878   1.504  -2.501  0.00  0.00    -0.309 N 
ATOM     12  H   UNL     1       3.408   2.397  -2.452  0.00  0.00    +0.149 HD
ATOM     13  C   UNL     1       5.236   1.525  -2.208  0.00  0.00    +0.232 C 
ATOM     14  O   UNL     1       5.946   0.525  -2.346  0.00  0.00    -0.274 OA
BRANCH  11  16
ATOM     15  C   UNL     1       3.820  -0.867  -3.409  0.00  0.00    +0.031 C 
ATOM     16  C   UNL     1       3.032   0.312  -2.812  0.00  0.00    +0.026 C 
ATOM     17  C   UNL     1       2.316  -0.165  -1.540  0.00  0.00    +0.031 C 
ATOM     18  C   UNL     1       1.948   0.688  -3.849  0.00  0.00    +0.031 C 
ENDBRANCH  11  16
ENDBRANCH   5  13
BRANCH   9  19
ATOM     19  C   UNL     1       4.054   4.748  -4.540  0.00  0.00    +0.121 C 
BRANCH  19  20
ATOM     20  C   UNL     1       4.951   5.705  -5.275  0.00  0.00    -0.015 A 
ATOM     21  C   UNL     1       5.036   7.057  -4.940  0.00  0.00    +0.008 A 
ATOM     22  C   UNL     1       5.799   7.916  -5.727  0.00  0.00    +0.020 A 
ATOM     23  C   UNL     1       6.465   7.394  -6.823  0.00  0.00    +0.111 A 
ATOM     24  N   UNL     1       6.431   6.091  -7.166  0.00  0.00    -0.263 NA
ATOM     25  C   UNL     1       5.678   5.280  -6.388  0.00  0.00    +0.115 A 
ENDBRANCH  19  20
ENDBRANCH   9  19
ENDBRANCH   4   6
ENDBRANCH   1   4
BRANCH   1  26
ATOM     26  C   UNL     1       6.626   4.286   2.382  0.00  0.00    +0.045 C 
BRANCH  26  27
ATOM     27  C   UNL     1       6.662   4.924   3.793  0.00  0.00    +0.082 C 
BRANCH  27  28
ATOM     28  C   UNL     1       7.215   3.873   4.768  0.00  0.00    +0.217 C 
ATOM     29  N   UNL     1       6.326   2.961   5.272  0.00  0.00    -0.306 N 
ATOM     30  H   UNL     1       5.365   3.241   5.398  0.00  0.00    +0.149 HD
ATOM     31  O   UNL     1       8.419   3.801   4.987  0.00  0.00    -0.275 OA
BRANCH  29  32
ATOM     32  C   UNL     1       6.785   1.820   6.071  0.00  0.00    +0.132 C 
ATOM     33  C   UNL     1       7.027   0.593   5.226  0.00  0.00    -0.022 A 
ATOM     34  C   UNL     1       6.205  -0.471   5.593  0.00  0.00    -0.040 A 
ATOM     35  C   UNL     1       6.266  -1.686   4.923  0.00  0.00    +0.004 A 
ATOM     36  C   UNL     1       7.193  -1.849   3.904  0.00  0.00    +0.000 A 
ATOM     37  C   UNL     1       8.066  -0.801   3.566  0.00  0.00    +0.000 A 
ATOM     38  C   UNL     1       5.360  -0.150   6.785  0.00  0.00    +0.069 C 
ATOM     39  C   UNL     1       7.982   0.427   4.226  0.00  0.00    +0.006 A 
ATOM     40  C   UNL     1       5.708   1.323   7.086  0.00  0.00    +0.143 C 
BRANCH  40  41
ATOM     41  O   UNL     1       4.519   2.123   7.035  0.00  0.00    -0.389 OA
ATOM     42  H   UNL     1       4.033   1.871   6.231  0.00  0.00    +0.210 HD
ENDBRANCH  40  41
ENDBRANCH  29  32
ENDBRANCH  27  28
BRANCH  27  43
ATOM     43  C   UNL     1       5.484   5.780   4.313  0.00  0.00    +0.048 C 
BRANCH  43  44
ATOM     44  C   UNL     1       4.020   5.364   4.368  0.00  0.00    -0.047 A 
ATOM     45  C   UNL     1       3.389   4.585   3.400  0.00  0.00    +0.003 A 
ATOM     46  C   UNL     1       2.000   4.402   3.407  0.00  0.00    +0.000 A 
ATOM     47  C   UNL     1       1.209   5.005   4.379  0.00  0.00    +0.000 A 
ATOM     48  C   UNL     1       1.809   5.780   5.363  0.00  0.00    +0.000 A 
ATOM     49  C   UNL     1       3.198   5.955   5.356  0.00  0.00    +0.003 A 
ENDBRANCH  43  44
ENDBRANCH  27  43
ENDBRANCH  26  27
ENDBRANCH   1  26
TORSDOF 14
