REMARK  Name = 
REMARK  6 active torsions:
REMARK  status: ('A' for Active; 'I' for Inactive)
REMARK    1  A    between atoms: C_3  and  C_19
REMARK    2  A    between atoms: N_5  and  C1*_6
REMARK    3  A    between atoms: C2*_8  and  O2*_18
REMARK    4  A    between atoms: C3*_10  and  O3*_17
REMARK    5  A    between atoms: C4*_12  and  C5*_15
REMARK    6  A    between atoms: C5*_15  and  O5*_16
REMARK                            x       y       z     vdW  Elec       q    Type
REMARK                         _______ _______ _______ _____ _____    ______ ____
ROOT
ATOM      1  C1* UNL     1      -0.840  -2.480   0.082  0.00  0.00    +0.270 C 
ATOM      2  O4* UNL     1      -1.065  -2.958   1.429  0.00  0.00    -0.344 OA
ATOM      3  C4* UNL     1      -1.064  -4.408   1.371  0.00  0.00    +0.177 C 
ATOM      4  C3* UNL     1      -0.655  -4.810  -0.052  0.00  0.00    +0.178 C 
ATOM      5  C2* UNL     1       0.012  -3.555  -0.594  0.00  0.00    +0.196 C 
ENDROOT
BRANCH   1   7
ATOM      6  C   UNL     1       0.913  -0.791   0.744  0.00  0.00    +0.223 A 
ATOM      7  N   UNL     1      -0.240  -1.158   0.128  0.00  0.00    -0.220 N 
ATOM      8  N   UNL     1      -0.855  -0.090  -0.435  0.00  0.00    -0.142 NA
ATOM      9  C   UNL     1      -0.008   0.916  -0.115  0.00  0.00    +0.236 A 
ATOM     10  N   UNL     1       1.094   0.500   0.606  0.00  0.00    -0.211 NA
BRANCH   9  11
ATOM     11  C   UNL     1      -0.250   2.326  -0.494  0.00  0.00    +0.281 C 
ATOM     12  N   UNL     1      -1.403   2.546  -1.209  0.00  0.00    -0.323 N 
ATOM     13  H   UNL     1      -1.634   3.486  -1.488  0.00  0.00    +0.145 HD
ATOM     14  H   UNL     1      -2.011   1.767  -1.427  0.00  0.00    +0.145 HD
ATOM     15  O   UNL     1       0.488   3.266  -0.208  0.00  0.00    -0.267 OA
ENDBRANCH   9  11
ENDBRANCH   1   7
BRANCH   4  16
ATOM     16  O3* UNL     1      -1.836  -5.069  -0.833  0.00  0.00    -0.386 OA
ATOM     17  H3* UNL     1      -1.562  -5.652  -1.566  0.00  0.00    +0.210 HD
ENDBRANCH   4  16
BRANCH   5  18
ATOM     18  O2* UNL     1      -0.012  -3.532  -2.019  0.00  0.00    -0.385 OA
ATOM     19  H2* UNL     1      -0.946  -3.605  -2.292  0.00  0.00    +0.210 HD
ENDBRANCH   5  18
BRANCH   3  20
ATOM     20  C5* UNL     1      -0.112  -4.950   2.437  0.00  0.00    +0.190 C 
BRANCH  20  21
ATOM     21  O5* UNL     1       1.219  -4.501   2.198  0.00  0.00    -0.392 OA
ATOM     22  H5* UNL     1       1.368  -3.746   2.798  0.00  0.00    +0.210 HD
ENDBRANCH  20  21
ENDBRANCH   3  20
TORSDOF 6
