REMARK  Name = 
REMARK  6 active torsions:
REMARK  status: ('A' for Active; 'I' for Inactive)
REMARK    1  A    between atoms: C_3  and  C_19
REMARK    2  A    between atoms: N_5  and  C1*_6
REMARK    3  A    between atoms: C2*_8  and  O2*_18
REMARK    4  A    between atoms: C3*_10  and  O3*_17
REMARK    5  A    between atoms: C4*_12  and  C5*_15
REMARK    6  A    between atoms: C5*_15  and  O5*_16
REMARK                            x       y       z     vdW  Elec       q    Type
REMARK                         _______ _______ _______ _____ _____    ______ ____
ROOT
ATOM      1  C1* UNL     1      -0.829  -2.445   0.030  0.00  0.00    +0.270 C 
ATOM      2  O4* UNL     1      -0.989  -2.923   1.383  0.00  0.00    -0.344 OA
ATOM      3  C4* UNL     1      -1.033  -4.374   1.303  0.00  0.00    +0.177 C 
ATOM      4  C3* UNL     1      -0.659  -4.761  -0.137  0.00  0.00    +0.178 C 
ATOM      5  C2* UNL     1       0.007  -3.503  -0.680  0.00  0.00    +0.196 C 
ENDROOT
BRANCH   1   7
ATOM      6  C   UNL     1      -0.915  -0.028  -0.555  0.00  0.00    +0.223 A 
ATOM      7  N   UNL     1      -0.294  -1.097   0.014  0.00  0.00    -0.220 N 
ATOM      8  N   UNL     1       0.888  -0.735   0.572  0.00  0.00    -0.142 NA
ATOM      9  C   UNL     1       0.921   0.594   0.296  0.00  0.00    +0.236 A 
ATOM     10  N   UNL     1      -0.185   1.045  -0.399  0.00  0.00    -0.211 NA
BRANCH   9  11
ATOM     11  C   UNL     1       2.025   1.499   0.695  0.00  0.00    +0.281 C 
ATOM     12  N   UNL     1       3.048   0.896   1.381  0.00  0.00    -0.323 N 
ATOM     13  H   UNL     1       3.831   1.458   1.676  0.00  0.00    +0.145 HD
ATOM     14  H   UNL     1       3.004  -0.097   1.565  0.00  0.00    +0.145 HD
ATOM     15  O   UNL     1       2.065   2.701   0.452  0.00  0.00    -0.267 OA
ENDBRANCH   9  11
ENDBRANCH   1   7
BRANCH   4  16
ATOM     16  O3* UNL     1      -1.862  -4.985  -0.902  0.00  0.00    -0.386 OA
ATOM     17  H3* UNL     1      -1.649  -5.671  -1.564  0.00  0.00    +0.210 HD
ENDBRANCH   4  16
BRANCH   5  18
ATOM     18  O2* UNL     1      -0.073  -3.449  -2.104  0.00  0.00    -0.385 OA
ATOM     19  H2* UNL     1      -0.993  -3.670  -2.345  0.00  0.00    +0.210 HD
ENDBRANCH   5  18
BRANCH   3  20
ATOM     20  C5* UNL     1      -0.071  -4.949   2.340  0.00  0.00    +0.190 C 
BRANCH  20  21
ATOM     21  O5* UNL     1       1.271  -4.583   2.034  0.00  0.00    -0.392 OA
ATOM     22  H5* UNL     1       1.321  -3.613   2.141  0.00  0.00    +0.210 HD
ENDBRANCH  20  21
ENDBRANCH   3  20
TORSDOF 6
