REMARK  Name = 
REMARK  3 active torsions:
REMARK  status: ('A' for Active; 'I' for Inactive)
REMARK    1  A    between atoms: C_2  and  N_8
REMARK    2  A    between atoms: C_4  and  C_6
REMARK    3  A    between atoms: C_6  and  O_7
REMARK                            x       y       z     vdW  Elec       q    Type
REMARK                         _______ _______ _______ _____ _____    ______ ____
ROOT
ATOM      1  N   UNL     1      -1.189   0.366   1.834  0.00  0.00    -0.272 N 
ATOM      2  C   UNL     1      -2.297  -0.292   2.386  0.00  0.00    +0.352 A 
ATOM      3  O   UNL     1      -3.095  -0.893   1.669  0.00  0.00    -0.244 OA
ATOM      4  N   UNL     1      -2.482  -0.246   3.749  0.00  0.00    -0.178 NA
ATOM      5  C   UNL     1      -1.701   0.481   4.481  0.00  0.00    +0.123 A 
ATOM      6  N   UNL     1      -1.953   0.522   5.824  0.00  0.00    -0.343 N 
ATOM      7  H   UNL     1      -2.593  -0.202   6.136  0.00  0.00    +0.144 HD
ATOM      8  H   UNL     1      -1.176   0.684   6.454  0.00  0.00    +0.144 HD
ATOM      9  C   UNL     1      -0.582   1.264   3.939  0.00  0.00    +0.061 A 
ATOM     10  C   UNL     1      -0.404   1.180   2.624  0.00  0.00    +0.096 A 
ENDROOT
BRANCH   1  15
ATOM     11  C   UNL     1      -0.937  -1.052  -0.290  0.00  0.00    +0.126 C 
ATOM     12  S   UNL     1       0.800  -1.501  -0.120  0.00  0.00    -0.123 S 
ATOM     13  C   UNL     1       1.289   0.234   0.025  0.00  0.00    +0.203 C 
ATOM     14  O   UNL     1       0.123   1.075  -0.054  0.00  0.00    -0.340 OA
ATOM     15  C   UNL     1      -1.042   0.334   0.370  0.00  0.00    +0.235 C 
BRANCH  13  16
ATOM     16  C   UNL     1       2.290   0.637  -1.065  0.00  0.00    +0.198 C 
BRANCH  16  17
ATOM     17  O   UNL     1       1.782   0.411  -2.383  0.00  0.00    -0.392 OA
ATOM     18  H   UNL     1       1.417  -0.492  -2.385  0.00  0.00    +0.210 HD
ENDBRANCH  16  17
ENDBRANCH  13  16
ENDBRANCH   1  15
TORSDOF 3
