REMARK  Name = 
REMARK  3 active torsions:
REMARK  status: ('A' for Active; 'I' for Inactive)
REMARK    1  A    between atoms: C_2  and  N_8
REMARK    2  A    between atoms: C_4  and  C_6
REMARK    3  A    between atoms: C_6  and  O_7
REMARK                            x       y       z     vdW  Elec       q    Type
REMARK                         _______ _______ _______ _____ _____    ______ ____
ROOT
ATOM      1  N   UNL     1      -1.190   0.349   1.837  0.00  0.00    -0.272 N 
ATOM      2  C   UNL     1      -2.300  -0.312   2.380  0.00  0.00    +0.352 A 
ATOM      3  O   UNL     1      -3.096  -0.907   1.658  0.00  0.00    -0.244 OA
ATOM      4  N   UNL     1      -2.490  -0.274   3.743  0.00  0.00    -0.178 NA
ATOM      5  C   UNL     1      -1.711   0.444   4.487  0.00  0.00    +0.123 A 
ATOM      6  N   UNL     1      -1.965   0.473   5.830  0.00  0.00    -0.343 N 
ATOM      7  H   UNL     1      -2.606  -0.253   6.129  0.00  0.00    +0.144 HD
ATOM      8  H   UNL     1      -1.189   0.629   6.461  0.00  0.00    +0.144 HD
ATOM      9  C   UNL     1      -0.587   1.228   3.950  0.00  0.00    +0.061 A 
ATOM     10  C   UNL     1      -0.404   1.156   2.636  0.00  0.00    +0.096 A 
ENDROOT
BRANCH   1  15
ATOM     11  C   UNL     1      -0.933  -1.052  -0.296  0.00  0.00    +0.126 C 
ATOM     12  S   UNL     1       0.803  -1.504  -0.124  0.00  0.00    -0.123 S 
ATOM     13  C   UNL     1       1.293   0.231   0.030  0.00  0.00    +0.203 C 
ATOM     14  O   UNL     1       0.128   1.073  -0.042  0.00  0.00    -0.340 OA
ATOM     15  C   UNL     1      -1.038   0.329   0.373  0.00  0.00    +0.235 C 
BRANCH  13  16
ATOM     16  C   UNL     1       2.291   0.639  -1.062  0.00  0.00    +0.198 C 
BRANCH  16  17
ATOM     17  O   UNL     1       1.779   0.420  -2.379  0.00  0.00    -0.392 OA
ATOM     18  H   UNL     1       1.413  -0.484  -2.384  0.00  0.00    +0.210 HD
ENDBRANCH  16  17
ENDBRANCH  13  16
ENDBRANCH   1  15
TORSDOF 3
