REMARK  Name = 
REMARK  24 active torsions:
REMARK  status: ('A' for Active; 'I' for Inactive)
REMARK    1  A    between atoms: C_1  and  C_2
REMARK    2  A    between atoms: C_2  and  C_3
REMARK    3  A    between atoms: C_2  and  C_4
REMARK    4  A    between atoms: C_6  and  C_9
REMARK    5  A    between atoms: C_9  and  N_10
REMARK    6  A    between atoms: N_10  and  C_11
REMARK    7  A    between atoms: N_14  and  C_15
REMARK    8  A    between atoms: C_15  and  C_17
REMARK    9  A    between atoms: C_15  and  C_20
REMARK   10  A    between atoms: C_17  and  C_18
REMARK   11  A    between atoms: C_17  and  C_19
REMARK   12  A    between atoms: N_22  and  C_23
REMARK   13  A    between atoms: C_23  and  C_25
REMARK   14  A    between atoms: C_23  and  C_32
REMARK   15  A    between atoms: C_25  and  C_26
REMARK   16  A    between atoms: C_32  and  C_33
REMARK   17  A    between atoms: C_33  and  C_35
REMARK   18  A    between atoms: C_33  and  O_54
REMARK   19  A    between atoms: C_35  and  C_37
REMARK   20  A    between atoms: C_35  and  N_44
REMARK   21  A    between atoms: C_37  and  C_38
REMARK   22  A    between atoms: C_45  and  O_47
REMARK   23  A    between atoms: O_47  and  C_48
REMARK   24  A    between atoms: C_48  and  C_49
REMARK                            x       y       z     vdW  Elec       q    Type
REMARK                         _______ _______ _______ _____ _____    ______ ____
ROOT
ATOM      1  C   UNL     1       5.642  12.742   9.567  0.00  0.00    +0.080 C 
ENDROOT
BRANCH   1   3
ATOM      2  C   UNL     1       4.529  13.996   7.588  0.00  0.00    +0.234 C 
ATOM      3  N   UNL     1       4.659  12.973   8.487  0.00  0.00    -0.311 N 
ATOM      4  H   UNL     1       4.029  12.216   8.243  0.00  0.00    +0.149 HD
ATOM      5  O   UNL     1       3.556  14.003   6.829  0.00  0.00    -0.274 OA
BRANCH   2   6
ATOM      6  C   UNL     1       5.644  15.053   7.505  0.00  0.00    +0.163 C 
BRANCH   6   9
ATOM      7  N   UNL     1       7.919  13.414   4.992  0.00  0.00    -0.283 N 
ATOM      8  C   UNL     1       6.809  13.500   5.842  0.00  0.00    +0.303 C 
ATOM      9  N   UNL     1       6.630  14.741   6.439  0.00  0.00    -0.288 N 
ATOM     10  H   UNL     1       7.495  15.235   6.588  0.00  0.00    +0.151 HD
ATOM     11  O   UNL     1       6.052  12.549   5.993  0.00  0.00    -0.253 OA
ATOM     12  C   UNL     1       8.413  14.614   4.341  0.00  0.00    +0.134 C 
BRANCH   7  13
ATOM     13  C   UNL     1       8.016  12.213   4.154  0.00  0.00    +0.164 C 
BRANCH  13  17
ATOM     14  C   UNL     1       8.939   9.162   5.912  0.00  0.00    +0.081 A 
ATOM     15  S   UNL     1      10.008   8.794   4.605  0.00  0.00    -0.080 S 
ATOM     16  C   UNL     1       9.731  10.349   3.986  0.00  0.00    +0.071 A 
ATOM     17  C   UNL     1       8.737  11.006   4.697  0.00  0.00    +0.066 A 
ATOM     18  N   UNL     1       8.349  10.344   5.861  0.00  0.00    -0.247 NA
BRANCH  14  20
ATOM     19  C   UNL     1      10.358   8.936   7.719  0.00  0.00    +0.014 C 
ATOM     20  C   UNL     1       9.120   8.330   7.133  0.00  0.00    +0.038 C 
ATOM     21  C   UNL     1       7.970   8.260   8.136  0.00  0.00    +0.014 C 
ENDBRANCH  14  20
ENDBRANCH  13  17
ENDBRANCH   7  13
ENDBRANCH   6   9
BRANCH   6  22
ATOM     22  C   UNL     1       4.991  16.464   7.305  0.00  0.00    +0.012 C 
ATOM     23  C   UNL     1       6.007  17.611   7.237  0.00  0.00    +0.009 C 
ATOM     24  C   UNL     1       3.984  16.791   8.426  0.00  0.00    +0.009 C 
ENDBRANCH   6  22
ENDBRANCH   2   6
ENDBRANCH   1   3
BRANCH   1  25
ATOM     25  C   UNL     1       6.953  12.056   9.084  0.00  0.00    +0.055 C 
BRANCH  25  26
ATOM     26  C   UNL     1       8.143  11.949  10.130  0.00  0.00    +0.137 C 
BRANCH  26  27
ATOM     27  O   UNL     1       8.446  13.290  10.504  0.00  0.00    -0.390 OA
ATOM     28  H   UNL     1       8.712  13.296  11.437  0.00  0.00    +0.210 HD
ENDBRANCH  26  27
BRANCH  26  29
ATOM     29  C   UNL     1       9.422  11.180   9.536  0.00  0.00    +0.109 C 
BRANCH  29  30
ATOM     30  N   UNL     1       9.727  11.776   8.236  0.00  0.00    -0.275 N 
ATOM     31  H   UNL     1       9.117  11.552   7.441  0.00  0.00    +0.152 HD
ATOM     32  C   UNL     1      10.836  12.440   7.917  0.00  0.00    +0.401 C 
ATOM     33  O   UNL     1      11.651  12.879   8.668  0.00  0.00    -0.226 OA
BRANCH  32  34
ATOM     34  O   UNL     1      10.942  12.564   6.533  0.00  0.00    -0.445 OA
BRANCH  34  35
ATOM     35  C   UNL     1      12.037  13.346   6.086  0.00  0.00    +0.278 C 
BRANCH  35  36
ATOM     36  C   UNL     1      11.518  14.748   5.939  0.00  0.00    +0.046 A 
ATOM     37  S   UNL     1      12.123  15.824   4.750  0.00  0.00    -0.077 S 
ATOM     38  C   UNL     1      10.882  16.939   5.159  0.00  0.00    +0.156 A 
ATOM     39  N   UNL     1      10.132  16.618   6.190  0.00  0.00    -0.255 NA
ATOM     40  C   UNL     1      10.493  15.370   6.634  0.00  0.00    +0.125 A 
ENDBRANCH  35  36
ENDBRANCH  34  35
ENDBRANCH  32  34
ENDBRANCH  29  30
BRANCH  29  41
ATOM     41  C   UNL     1      10.727  10.659  10.493  0.00  0.00    +0.060 C 
BRANCH  41  42
ATOM     42  C   UNL     1      11.768   9.467  10.106  0.00  0.00    -0.046 A 
ATOM     43  C   UNL     1      11.482   8.089  10.388  0.00  0.00    +0.004 A 
ATOM     44  C   UNL     1      12.073   7.025   9.636  0.00  0.00    +0.000 A 
ATOM     45  C   UNL     1      13.050   7.289   8.677  0.00  0.00    +0.000 A 
ATOM     46  C   UNL     1      13.482   8.608   8.519  0.00  0.00    +0.000 A 
ATOM     47  C   UNL     1      12.863   9.680   9.233  0.00  0.00    +0.004 A 
ENDBRANCH  41  42
ENDBRANCH  29  41
ENDBRANCH  26  29
ENDBRANCH  25  26
ENDBRANCH   1  25
BRANCH   1  48
ATOM     48  C   UNL     1       4.943  12.010  10.733  0.00  0.00    +0.057 C 
BRANCH  48  49
ATOM     49  C   UNL     1       4.322  10.660  10.446  0.00  0.00    -0.046 A 
ATOM     50  C   UNL     1       2.994  10.565   9.996  0.00  0.00    +0.004 A 
ATOM     51  C   UNL     1       2.384   9.320   9.842  0.00  0.00    +0.000 A 
ATOM     52  C   UNL     1       3.087   8.156  10.144  0.00  0.00    +0.000 A 
ATOM     53  C   UNL     1       4.416   8.235  10.554  0.00  0.00    +0.000 A 
ATOM     54  C   UNL     1       5.034   9.479  10.692  0.00  0.00    +0.004 A 
ENDBRANCH  48  49
ENDBRANCH   1  48
TORSDOF 19
