REMARK  Name = 
REMARK  5 active torsions:
REMARK  status: ('A' for Active; 'I' for Inactive)
REMARK    1  A    between atoms: C5M_1  and  C5_2
REMARK    2  A    between atoms: N1_4  and  C1*_10
REMARK    3  A    between atoms: C3*_12  and  O3*_17
REMARK    4  A    between atoms: C4*_13  and  C5*_15
REMARK    5  A    between atoms: C5*_15  and  O5*_16
REMARK                            x       y       z     vdW  Elec       q    Type
REMARK                         _______ _______ _______ _____ _____    ______ ____
ROOT
ATOM      1  C5M   T A   1       0.890   0.038   0.118  0.00  0.00    +0.019 C 
ATOM      2  C5    T A   1       2.403  -0.052  -0.058  0.00  0.00    +0.090 C 
ATOM      3  C4    T A   1       2.872   0.937  -1.100  0.00  0.00    +0.225 C 
ATOM      4  O4    T A   1       2.986   2.135  -0.859  0.00  0.00    -0.275 OA
ATOM      5  N3    T A   1       3.064   0.452  -2.367  0.00  0.00    -0.240 N 
ATOM      6  H3    T A   1       3.192   1.155  -3.080  0.00  0.00    +0.159 HD
ATOM      7  C2    T A   1       2.639  -0.767  -2.822  0.00  0.00    +0.310 C 
ATOM      8  O2    T A   1       2.392  -0.929  -4.014  0.00  0.00    -0.252 OA
ATOM      9  N1    T A   1       2.463  -1.729  -1.850  0.00  0.00    -0.259 N 
ATOM     10  C6    T A   1       2.855  -1.441  -0.480  0.00  0.00    +0.124 C 
ENDROOT
BRANCH   9  11
ATOM     11  C1*   T A   1       1.683  -2.905  -2.163  0.00  0.00    +0.212 C 
ATOM     12  O4*   T A   1       0.415  -2.756  -1.505  0.00  0.00    -0.350 OA
ATOM     13  C4*   T A   1      -0.001  -4.056  -1.031  0.00  0.00    +0.174 C 
ATOM     14  C3*   T A   1       0.997  -5.069  -1.611  0.00  0.00    +0.150 C 
ATOM     15  C2*   T A   1       2.258  -4.240  -1.712  0.00  0.00    +0.086 C 
BRANCH  14  16
ATOM     16  O3*   T A   1       0.680  -5.552  -2.914  0.00  0.00    -0.389 OA
ATOM     17  H3*   T A   1      -0.103  -5.067  -3.255  0.00  0.00    +0.210 HD
ENDBRANCH  14  16
BRANCH  13  18
ATOM     18  C5*   T A   1      -1.460  -4.251  -1.429  0.00  0.00    +0.190 C 
BRANCH  18  19
ATOM     19  O5*   T A   1      -1.600  -4.084  -2.843  0.00  0.00    -0.392 OA
ATOM     20  H5*   T A   1      -1.409  -3.139  -3.014  0.00  0.00    +0.210 HD
ENDBRANCH  18  19
ENDBRANCH  13  18
ENDBRANCH   9  11
TORSDOF 4
