REMARK  Name = 
REMARK  5 active torsions:
REMARK  status: ('A' for Active; 'I' for Inactive)
REMARK    1  A    between atoms: C5M_1  and  C5_2
REMARK    2  A    between atoms: N1_4  and  C1*_10
REMARK    3  A    between atoms: C3*_12  and  O3*_17
REMARK    4  A    between atoms: C4*_13  and  C5*_15
REMARK    5  A    between atoms: C5*_15  and  O5*_16
REMARK                            x       y       z     vdW  Elec       q    Type
REMARK                         _______ _______ _______ _____ _____    ______ ____
ROOT
ATOM      1  C5M   T A   1       1.025   0.158   0.191  0.00  0.00    +0.019 C 
ATOM      2  C5    T A   1       2.539   0.062   0.027  0.00  0.00    +0.090 C 
ATOM      3  C4    T A   1       3.018   1.044  -1.016  0.00  0.00    +0.225 C 
ATOM      4  O4    T A   1       3.143   2.244  -0.775  0.00  0.00    -0.275 OA
ATOM      5  N3    T A   1       3.208   0.557  -2.282  0.00  0.00    -0.240 N 
ATOM      6  H3    T A   1       3.348   1.254  -2.998  0.00  0.00    +0.159 HD
ATOM      7  C2    T A   1       2.792  -0.668  -2.737  0.00  0.00    +0.310 C 
ATOM      8  O2    T A   1       2.567  -0.839  -3.927  0.00  0.00    -0.252 OA
ATOM      9  N1    T A   1       2.603  -1.622  -1.758  0.00  0.00    -0.259 N 
ATOM     10  C6    T A   1       2.989  -1.330  -0.387  0.00  0.00    +0.124 C 
ENDROOT
BRANCH   9  11
ATOM     11  C1*   T A   1       1.821  -2.797  -2.071  0.00  0.00    +0.212 C 
ATOM     12  O4*   T A   1       0.552  -2.647  -1.415  0.00  0.00    -0.350 OA
ATOM     13  C4*   T A   1       0.135  -3.947  -0.941  0.00  0.00    +0.174 C 
ATOM     14  C3*   T A   1       1.134  -4.960  -1.517  0.00  0.00    +0.150 C 
ATOM     15  C2*   T A   1       2.396  -4.132  -1.619  0.00  0.00    +0.086 C 
BRANCH  14  16
ATOM     16  O3*   T A   1       0.819  -5.445  -2.820  0.00  0.00    -0.389 OA
ATOM     17  H3*   T A   1       0.042  -4.956  -3.166  0.00  0.00    +0.210 HD
ENDBRANCH  14  16
BRANCH  13  18
ATOM     18  C5*   T A   1      -1.323  -4.143  -1.339  0.00  0.00    +0.190 C 
BRANCH  18  19
ATOM     19  O5*   T A   1      -1.462  -3.978  -2.753  0.00  0.00    -0.392 OA
ATOM     20  H5*   T A   1      -1.273  -3.033  -2.926  0.00  0.00    +0.210 HD
ENDBRANCH  18  19
ENDBRANCH  13  18
ENDBRANCH   9  11
TORSDOF 4
