REMARK  Name = 
REMARK  19 active torsions:
REMARK  status: ('A' for Active; 'I' for Inactive)
REMARK    1  A    between atoms: C_1  and  C_2
REMARK    2  A    between atoms: C_2  and  C_3
REMARK    3  A    between atoms: C_2  and  C_4
REMARK    4  A    between atoms: C_2  and  N_5
REMARK    5  A    between atoms: C_6  and  C_8
REMARK    6  A    between atoms: N_20  and  C_21
REMARK    7  A    between atoms: C_21  and  C_22
REMARK    8  A    between atoms: C_22  and  C_24
REMARK    9  A    between atoms: C_22  and  O_55
REMARK   10  A    between atoms: C_24  and  C_26
REMARK   11  A    between atoms: C_24  and  N_33
REMARK   12  A    between atoms: C_26  and  C_27
REMARK   13  A    between atoms: C_34  and  C_36
REMARK   14  A    between atoms: C_36  and  C_38
REMARK   15  A    between atoms: C_36  and  N_42
REMARK   16  A    between atoms: C_38  and  C_39
REMARK   17  A    between atoms: C_43  and  C_45
REMARK   18  A    between atoms: C_56  and  S_57
REMARK   19  A    between atoms: S_57  and  O_60
REMARK                            x       y       z     vdW  Elec       q    Type
REMARK                         _______ _______ _______ _____ _____    ______ ____
ROOT
ATOM      1  C   UNL     1       1.845   2.336   2.605  0.00  0.00    +0.107 C 
ENDROOT
BRANCH   1   2
ATOM      2  N   UNL     1       3.142   1.799   2.067  0.00  0.00    -0.308 N 
ATOM      3  H   UNL     1       3.577   1.086   2.635  0.00  0.00    +0.149 HD
ATOM      4  C   UNL     1       3.602   1.905   0.772  0.00  0.00    +0.234 C 
ATOM      5  O   UNL     1       3.001   2.531  -0.107  0.00  0.00    -0.274 OA
BRANCH   4   6
ATOM      6  C   UNL     1       4.912   1.195   0.349  0.00  0.00    +0.168 C 
BRANCH   6   7
ATOM      7  N   UNL     1       5.749   2.138  -0.391  0.00  0.00    -0.298 N 
ATOM      8  H   UNL     1       5.531   3.133  -0.347  0.00  0.00    +0.150 HD
ATOM      9  C   UNL     1       6.460   1.683  -1.476  0.00  0.00    +0.263 C 
ATOM     10  O   UNL     1       6.671   0.490  -1.683  0.00  0.00    -0.269 OA
BRANCH   9  11
ATOM     11  C   UNL     1       6.923   2.703  -2.452  0.00  0.00    +0.126 A 
ATOM     12  C   UNL     1       7.125   2.270  -3.752  0.00  0.00    +0.033 A 
ATOM     13  C   UNL     1       7.539   3.199  -4.686  0.00  0.00    +0.012 A 
ATOM     14  C   UNL     1       7.744   4.522  -4.293  0.00  0.00    +0.000 A 
ATOM     15  C   UNL     1       7.519   4.877  -2.943  0.00  0.00    +0.072 A 
ATOM     16  C   UNL     1       7.762   6.196  -2.575  0.00  0.00    +0.028 A 
ATOM     17  C   UNL     1       8.190   7.149  -3.509  0.00  0.00    +0.002 A 
ATOM     18  C   UNL     1       8.379   6.791  -4.837  0.00  0.00    +0.001 A 
ATOM     19  C   UNL     1       8.161   5.480  -5.230  0.00  0.00    +0.010 A 
ATOM     20  N   UNL     1       7.102   3.984  -2.029  0.00  0.00    -0.242 NA
ENDBRANCH   9  11
ENDBRANCH   6   7
BRANCH   6  21
ATOM     21  C   UNL     1       5.716   0.305   1.283  0.00  0.00    +0.127 C 
BRANCH  21  22
ATOM     22  C   UNL     1       6.581   1.098   2.218  0.00  0.00    +0.213 C 
ATOM     23  N   UNL     1       7.915   0.819   2.172  0.00  0.00    -0.329 N 
ATOM     24  H   UNL     1       8.513   1.403   2.740  0.00  0.00    +0.145 HD
ATOM     25  H   UNL     1       8.329   0.401   1.347  0.00  0.00    +0.145 HD
ATOM     26  O   UNL     1       6.125   1.890   3.032  0.00  0.00    -0.276 OA
ENDBRANCH  21  22
ENDBRANCH   6  21
ENDBRANCH   4   6
ENDBRANCH   1   2
BRANCH   1  27
ATOM     27  C   UNL     1       1.342   3.611   1.859  0.00  0.00    +0.149 C 
BRANCH  27  28
ATOM     28  O   UNL     1       2.175   4.732   2.152  0.00  0.00    -0.389 OA
ATOM     29  H   UNL     1       2.010   5.369   1.434  0.00  0.00    +0.210 HD
ENDBRANCH  27  28
BRANCH  27  30
ATOM     30  C   UNL     1      -0.143   3.998   2.075  0.00  0.00    +0.118 C 
BRANCH  30  32
ATOM     31  C   UNL     1      -2.124   5.273   1.371  0.00  0.00    +0.143 C 
ATOM     32  N   UNL     1      -0.670   5.015   1.089  0.00  0.00    -0.289 NA
ATOM     33  C   UNL     1      -0.503   4.579  -0.317  0.00  0.00    +0.089 C 
ATOM     34  C   UNL     1      -1.281   3.298  -0.673  0.00  0.00    +0.006 C 
ATOM     35  C   UNL     1      -2.777   3.527  -0.456  0.00  0.00    -0.005 C 
ATOM     36  C   UNL     1      -3.432   4.384  -1.554  0.00  0.00    +0.004 C 
ATOM     37  C   UNL     1      -2.701   4.587  -2.888  0.00  0.00    +0.000 C 
ATOM     38  C   UNL     1      -1.359   3.899  -3.117  0.00  0.00    +0.000 C 
ATOM     39  C   UNL     1      -1.030   2.823  -2.105  0.00  0.00    +0.005 C 
ATOM     40  C   UNL     1      -3.035   4.084   0.966  0.00  0.00    +0.032 C 
BRANCH  31  43
ATOM     41  N   UNL     1      -1.751   7.593   0.459  0.00  0.00    -0.309 N 
ATOM     42  H   UNL     1      -0.789   7.269   0.451  0.00  0.00    +0.149 HD
ATOM     43  C   UNL     1      -2.674   6.630   0.809  0.00  0.00    +0.231 C 
ATOM     44  O   UNL     1      -3.887   6.841   0.755  0.00  0.00    -0.274 OA
BRANCH  41  46
ATOM     45  C   UNL     1      -3.034   9.750   0.679  0.00  0.00    +0.031 C 
ATOM     46  C   UNL     1      -2.076   8.896  -0.175  0.00  0.00    +0.026 C 
ATOM     47  C   UNL     1      -0.773   9.701  -0.340  0.00  0.00    +0.031 C 
ATOM     48  C   UNL     1      -2.704   8.699  -1.567  0.00  0.00    +0.031 C 
ENDBRANCH  41  46
ENDBRANCH  31  43
ENDBRANCH  30  32
ENDBRANCH  27  30
ENDBRANCH   1  27
BRANCH   1  49
ATOM     49  C   UNL     1       1.949   2.601   4.133  0.00  0.00    +0.060 C 
BRANCH  49  50
ATOM     50  C   UNL     1       2.179   1.366   4.984  0.00  0.00    -0.046 A 
ATOM     51  C   UNL     1       1.108   0.632   5.515  0.00  0.00    +0.004 A 
ATOM     52  C   UNL     1       1.346  -0.510   6.287  0.00  0.00    +0.000 A 
ATOM     53  C   UNL     1       2.652  -0.928   6.539  0.00  0.00    +0.000 A 
ATOM     54  C   UNL     1       3.722  -0.187   6.045  0.00  0.00    +0.000 A 
ATOM     55  C   UNL     1       3.487   0.956   5.279  0.00  0.00    +0.004 A 
ENDBRANCH  49  50
ENDBRANCH   1  49
TORSDOF 14
REMARK  Name = 
REMARK  19 active torsions:
REMARK  status: ('A' for Active; 'I' for Inactive)
REMARK    1  A    between atoms: C_1  and  C_2
REMARK    2  A    between atoms: C_2  and  C_3
REMARK    3  A    between atoms: C_2  and  C_4
REMARK    4  A    between atoms: C_2  and  N_5
REMARK    5  A    between atoms: C_6  and  C_8
REMARK    6  A    between atoms: N_20  and  C_21
REMARK    7  A    between atoms: C_21  and  C_22
REMARK    8  A    between atoms: C_22  and  C_24
REMARK    9  A    between atoms: C_22  and  O_55
REMARK   10  A    between atoms: C_24  and  C_26
REMARK   11  A    between atoms: C_24  and  N_33
REMARK   12  A    between atoms: C_26  and  C_27
REMARK   13  A    between atoms: C_34  and  C_36
REMARK   14  A    between atoms: C_36  and  C_38
REMARK   15  A    between atoms: C_36  and  N_42
REMARK   16  A    between atoms: C_38  and  C_39
REMARK   17  A    between atoms: C_43  and  C_45
REMARK   18  A    between atoms: C_56  and  S_57
REMARK   19  A    between atoms: S_57  and  O_60
REMARK                            x       y       z     vdW  Elec       q    Type
REMARK                         _______ _______ _______ _____ _____    ______ ____
ROOT
ATOM      1  C   UNL     1       0.451  -0.431   0.046  0.00  0.00    +0.228 C 
ATOM      2  S   UNL     1       1.809  -1.571  -0.108  0.00  0.00    +0.077 S 
ATOM      3  O   UNL     1       2.390  -1.472  -1.428  0.00  0.00    -0.148 OA
ATOM      4  O   UNL     1       1.461  -2.827   0.512  0.00  0.00    -0.148 OA
ENDROOT
BRANCH   2   5
ATOM      5  O   UNL     1       2.805  -0.862   0.940  0.00  0.00    -0.254 OA
ATOM      6  H   UNL     1       2.885  -1.444   1.723  0.00  0.00    +0.244 HD
ENDBRANCH   2   5
TORSDOF 1
