REMARK  Name = 
REMARK  19 active torsions:
REMARK  status: ('A' for Active; 'I' for Inactive)
REMARK    1  A    between atoms: C_1  and  C_2
REMARK    2  A    between atoms: C_2  and  C_3
REMARK    3  A    between atoms: C_2  and  C_4
REMARK    4  A    between atoms: C_2  and  N_5
REMARK    5  A    between atoms: C_6  and  C_8
REMARK    6  A    between atoms: N_20  and  C_21
REMARK    7  A    between atoms: C_21  and  C_22
REMARK    8  A    between atoms: C_22  and  C_24
REMARK    9  A    between atoms: C_22  and  O_55
REMARK   10  A    between atoms: C_24  and  C_26
REMARK   11  A    between atoms: C_24  and  N_33
REMARK   12  A    between atoms: C_26  and  C_27
REMARK   13  A    between atoms: C_34  and  C_36
REMARK   14  A    between atoms: C_36  and  C_38
REMARK   15  A    between atoms: C_36  and  N_42
REMARK   16  A    between atoms: C_38  and  C_39
REMARK   17  A    between atoms: C_43  and  C_45
REMARK   18  A    between atoms: C_56  and  S_57
REMARK   19  A    between atoms: S_57  and  O_60
REMARK                            x       y       z     vdW  Elec       q    Type
REMARK                         _______ _______ _______ _____ _____    ______ ____
ROOT
ATOM      1  C   UNL     1      -0.004  -3.566  -2.295  0.00  0.00    +0.107 C 
ENDROOT
BRANCH   1   2
ATOM      2  N   UNL     1       1.127  -2.675  -1.923  0.00  0.00    -0.308 N 
ATOM      3  H   UNL     1       1.662  -2.245  -2.656  0.00  0.00    +0.149 HD
ATOM      4  C   UNL     1       1.619  -2.438  -0.672  0.00  0.00    +0.234 C 
ATOM      5  O   UNL     1       2.616  -1.713  -0.553  0.00  0.00    -0.274 OA
BRANCH   4   6
ATOM      6  C   UNL     1       0.947  -3.077   0.583  0.00  0.00    +0.168 C 
BRANCH   6   7
ATOM      7  N   UNL     1       1.337  -4.471   0.754  0.00  0.00    -0.298 N 
ATOM      8  H   UNL     1       0.613  -5.179   0.852  0.00  0.00    +0.150 HD
ATOM      9  C   UNL     1       2.603  -4.878   1.102  0.00  0.00    +0.263 C 
ATOM     10  O   UNL     1       3.546  -4.116   1.270  0.00  0.00    -0.269 OA
BRANCH   9  11
ATOM     11  C   UNL     1       2.763  -6.362   1.260  0.00  0.00    +0.126 A 
ATOM     12  C   UNL     1       3.957  -6.869   1.738  0.00  0.00    +0.033 A 
ATOM     13  C   UNL     1       4.073  -8.236   1.916  0.00  0.00    +0.012 A 
ATOM     14  C   UNL     1       2.988  -9.067   1.617  0.00  0.00    +0.000 A 
ATOM     15  C   UNL     1       1.820  -8.465   1.117  0.00  0.00    +0.072 A 
ATOM     16  C   UNL     1       0.758  -9.303   0.834  0.00  0.00    +0.028 A 
ATOM     17  C   UNL     1       0.791 -10.685   1.017  0.00  0.00    +0.002 A 
ATOM     18  C   UNL     1       1.938 -11.268   1.519  0.00  0.00    +0.001 A 
ATOM     19  C   UNL     1       3.035 -10.462   1.819  0.00  0.00    +0.010 A 
ATOM     20  N   UNL     1       1.693  -7.134   0.927  0.00  0.00    -0.242 NA
ENDBRANCH   9  11
ENDBRANCH   6   7
BRANCH   6  21
ATOM     21  C   UNL     1       1.197  -2.212   1.818  0.00  0.00    +0.127 C 
BRANCH  21  22
ATOM     22  C   UNL     1       0.290  -2.544   2.968  0.00  0.00    +0.213 C 
ATOM     23  N   UNL     1       0.536  -1.796   4.084  0.00  0.00    -0.329 N 
ATOM     24  H   UNL     1      -0.034  -1.956   4.905  0.00  0.00    +0.145 HD
ATOM     25  H   UNL     1       1.333  -1.178   4.162  0.00  0.00    +0.145 HD
ATOM     26  O   UNL     1      -0.624  -3.356   2.919  0.00  0.00    -0.276 OA
ENDBRANCH  21  22
ENDBRANCH   6  21
ENDBRANCH   4   6
ENDBRANCH   1   2
BRANCH   1  27
ATOM     27  C   UNL     1       0.372  -5.063  -2.216  0.00  0.00    +0.149 C 
BRANCH  27  28
ATOM     28  O   UNL     1       0.873  -5.613  -3.425  0.00  0.00    -0.389 OA
ATOM     29  H   UNL     1       1.209  -6.504  -3.221  0.00  0.00    +0.210 HD
ENDBRANCH  27  28
BRANCH  27  30
ATOM     30  C   UNL     1      -0.756  -5.917  -1.566  0.00  0.00    +0.118 C 
BRANCH  30  32
ATOM     31  C   UNL     1      -2.899  -6.981  -1.230  0.00  0.00    +0.143 C 
ATOM     32  N   UNL     1      -2.071  -6.220  -2.241  0.00  0.00    -0.289 NA
ATOM     33  C   UNL     1      -1.831  -7.021  -3.464  0.00  0.00    +0.089 C 
ATOM     34  C   UNL     1      -1.269  -8.443  -3.223  0.00  0.00    +0.006 C 
ATOM     35  C   UNL     1      -2.160  -9.233  -2.265  0.00  0.00    -0.005 C 
ATOM     36  C   UNL     1      -3.437  -9.793  -2.910  0.00  0.00    +0.004 C 
ATOM     37  C   UNL     1      -3.636  -9.547  -4.407  0.00  0.00    +0.000 C 
ATOM     38  C   UNL     1      -2.383  -9.412  -5.273  0.00  0.00    +0.000 C 
ATOM     39  C   UNL     1      -1.087  -9.271  -4.494  0.00  0.00    +0.005 C 
ATOM     40  C   UNL     1      -2.438  -8.420  -1.006  0.00  0.00    +0.032 C 
BRANCH  31  43
ATOM     41  N   UNL     1      -5.178  -6.722  -2.339  0.00  0.00    -0.309 N 
ATOM     42  H   UNL     1      -4.709  -6.299  -3.130  0.00  0.00    +0.149 HD
ATOM     43  C   UNL     1      -4.432  -6.998  -1.228  0.00  0.00    +0.231 C 
ATOM     44  O   UNL     1      -4.979  -7.370  -0.180  0.00  0.00    -0.274 OA
BRANCH  41  46
ATOM     45  C   UNL     1      -7.303  -6.002  -1.220  0.00  0.00    +0.031 C 
ATOM     46  C   UNL     1      -6.660  -6.859  -2.333  0.00  0.00    +0.026 C 
ATOM     47  C   UNL     1      -7.228  -6.382  -3.678  0.00  0.00    +0.031 C 
ATOM     48  C   UNL     1      -7.095  -8.332  -2.146  0.00  0.00    +0.031 C 
ENDBRANCH  41  46
ENDBRANCH  31  43
ENDBRANCH  30  32
ENDBRANCH  27  30
ENDBRANCH   1  27
BRANCH   1  49
ATOM     49  C   UNL     1      -0.756  -3.141  -3.571  0.00  0.00    +0.060 C 
BRANCH  49  50
ATOM     50  C   UNL     1      -0.172  -3.211  -4.965  0.00  0.00    -0.046 A 
ATOM     51  C   UNL     1       1.187  -3.082  -5.268  0.00  0.00    +0.004 A 
ATOM     52  C   UNL     1       1.617  -2.998  -6.597  0.00  0.00    +0.000 A 
ATOM     53  C   UNL     1       0.697  -3.055  -7.642  0.00  0.00    +0.000 A 
ATOM     54  C   UNL     1      -0.654  -3.225  -7.361  0.00  0.00    +0.000 A 
ATOM     55  C   UNL     1      -1.082  -3.301  -6.036  0.00  0.00    +0.004 A 
ENDBRANCH  49  50
ENDBRANCH   1  49
TORSDOF 14
REMARK  Name = 
REMARK  19 active torsions:
REMARK  status: ('A' for Active; 'I' for Inactive)
REMARK    1  A    between atoms: C_1  and  C_2
REMARK    2  A    between atoms: C_2  and  C_3
REMARK    3  A    between atoms: C_2  and  C_4
REMARK    4  A    between atoms: C_2  and  N_5
REMARK    5  A    between atoms: C_6  and  C_8
REMARK    6  A    between atoms: N_20  and  C_21
REMARK    7  A    between atoms: C_21  and  C_22
REMARK    8  A    between atoms: C_22  and  C_24
REMARK    9  A    between atoms: C_22  and  O_55
REMARK   10  A    between atoms: C_24  and  C_26
REMARK   11  A    between atoms: C_24  and  N_33
REMARK   12  A    between atoms: C_26  and  C_27
REMARK   13  A    between atoms: C_34  and  C_36
REMARK   14  A    between atoms: C_36  and  C_38
REMARK   15  A    between atoms: C_36  and  N_42
REMARK   16  A    between atoms: C_38  and  C_39
REMARK   17  A    between atoms: C_43  and  C_45
REMARK   18  A    between atoms: C_56  and  S_57
REMARK   19  A    between atoms: S_57  and  O_60
REMARK                            x       y       z     vdW  Elec       q    Type
REMARK                         _______ _______ _______ _____ _____    ______ ____
ROOT
ATOM      1  C   UNL     1       0.671   0.872  -0.180  0.00  0.00    +0.228 C 
ATOM      2  S   UNL     1       2.318   1.458   0.168  0.00  0.00    +0.077 S 
ATOM      3  O   UNL     1       2.210   2.666   0.953  0.00  0.00    -0.148 OA
ATOM      4  O   UNL     1       3.116   1.375  -1.032  0.00  0.00    -0.148 OA
ENDROOT
BRANCH   2   5
ATOM      5  O   UNL     1       2.804   0.265   1.144  0.00  0.00    -0.254 OA
ATOM      6  H   UNL     1       3.157  -0.474   0.579  0.00  0.00    +0.244 HD
ENDBRANCH   2   5
TORSDOF 1
