REMARK  Name = 
REMARK  21 active torsions:
REMARK  status: ('A' for Active; 'I' for Inactive)
REMARK    1  A    between atoms: C_1  and  C_2
REMARK    2  A    between atoms: C_2  and  C_3
REMARK    3  A    between atoms: C_2  and  C_4
REMARK    4  A    between atoms: C_9  and  C_12
REMARK    5  A    between atoms: C_18  and  O_21
REMARK    6  A    between atoms: O_21  and  C_22
REMARK    7  A    between atoms: C_23  and  O_25
REMARK    8  A    between atoms: O_25  and  C_26
REMARK    9  A    between atoms: C_29  and  C_50
REMARK   10  A    between atoms: C_33  and  C_35
REMARK   11  A    between atoms: C_35  and  C_37
REMARK   12  A    between atoms: C_35  and  N_41
REMARK   13  A    between atoms: C_37  and  C_38
REMARK   14  A    between atoms: C_37  and  C_39
REMARK   15  A    between atoms: C_37  and  C_40
REMARK   16  A    between atoms: C_42  and  O_44
REMARK   17  A    between atoms: O_44  and  C_45
REMARK   18  A    between atoms: N_52  and  C_53
REMARK   19  A    between atoms: C_53  and  C_59
REMARK   20  A    between atoms: C_55  and  C_57
REMARK   21  A    between atoms: C_59  and  O_61
REMARK                            x       y       z     vdW  Elec       q    Type
REMARK                         _______ _______ _______ _____ _____    ______ ____
ROOT
ATOM      1  C   UNL     1       3.445  -4.433  -4.841  0.00  0.00    +0.193 C 
ATOM      2  C   UNL     1       2.573  -3.943  -3.671  0.00  0.00    +0.153 C 
ATOM      3  N   UNL     1       2.664  -2.481  -3.645  0.00  0.00    -0.285 N 
ATOM      4  C   UNL     1       2.137  -1.820  -2.540  0.00  0.00    +0.237 C 
ATOM      5  O   UNL     1       1.473  -2.429  -1.696  0.00  0.00    -0.274 OA
ATOM      6  C   UNL     1       3.665  -2.018  -4.615  0.00  0.00    +0.166 C 
ATOM      7  C   UNL     1       3.660  -3.154  -5.644  0.00  0.00    +0.078 C 
ENDROOT
BRANCH   6   8
ATOM      8  C   UNL     1       3.519  -0.683  -5.391  0.00  0.00    +0.235 C 
ATOM      9  N   UNL     1       2.533  -0.619  -6.341  0.00  0.00    -0.298 N 
ATOM     10  H   UNL     1       1.915  -1.407  -6.502  0.00  0.00    +0.150 HD
ATOM     11  O   UNL     1       4.251   0.288  -5.179  0.00  0.00    -0.274 OA
BRANCH   9  12
ATOM     12  C   UNL     1       2.351   0.534  -7.191  0.00  0.00    +0.138 C 
ATOM     13  C   UNL     1       0.901   0.902  -7.474  0.00  0.00    +0.048 C 
ATOM     14  C   UNL     1       1.736   1.792  -6.602  0.00  0.00    +0.048 C 
BRANCH  12  15
ATOM     15  C   UNL     1       3.417   0.725  -8.242  0.00  0.00    +0.329 C 
ATOM     16  O   UNL     1       3.340   0.234  -9.355  0.00  0.00    -0.249 OA
BRANCH  15  17
ATOM     17  O   UNL     1       4.490   1.428  -7.795  0.00  0.00    -0.479 OA
ATOM     18  H   UNL     1       4.441   1.548  -6.818  0.00  0.00    +0.295 HD
ENDBRANCH  15  17
ENDBRANCH  12  15
BRANCH  13  19
ATOM     19  C   UNL     1       0.480   1.365  -8.793  0.00  0.00    -0.028 C 
ATOM     20  C   UNL     1      -0.257   2.456  -9.034  0.00  0.00    +0.004 C 
ENDBRANCH  13  19
ENDBRANCH   9  12
ENDBRANCH   6   8
BRANCH   1  21
ATOM     21  O   UNL     1       4.648  -5.078  -4.406  0.00  0.00    -0.486 OA
BRANCH  21  24
ATOM     22  C   UNL     1       8.023  -4.781  -5.579  0.00  0.00    +0.094 A 
ATOM     23  C   UNL     1       6.926  -4.920  -4.740  0.00  0.00    +0.076 A 
ATOM     24  C   UNL     1       5.686  -5.182  -5.307  0.00  0.00    +0.132 A 
ATOM     25  C   UNL     1       5.589  -5.403  -6.706  0.00  0.00    +0.043 A 
ATOM     26  C   UNL     1       4.419  -5.861  -7.351  0.00  0.00    +0.017 A 
ATOM     27  C   UNL     1       4.264  -5.764  -8.730  0.00  0.00    +0.047 A 
ATOM     28  C   UNL     1       5.317  -5.310  -9.511  0.00  0.00    +0.136 A 
ATOM     29  C   UNL     1       6.555  -5.054  -8.887  0.00  0.00    +0.085 A 
ATOM     30 BR   UNL     1       8.065  -4.609  -9.984  0.00  0.00    -0.044 Br
ATOM     31  C   UNL     1       6.721  -5.108  -7.491  0.00  0.00    +0.093 A 
ATOM     32  N   UNL     1       7.922  -4.831  -6.921  0.00  0.00    -0.244 NA
BRANCH  22  39
ATOM     33  C   UNL     1      10.513  -4.518  -0.970  0.00  0.00    +0.221 C 
ATOM     34  N   UNL     1      11.283  -4.204  -2.074  0.00  0.00    -0.264 N 
ATOM     35  H   UNL     1      12.266  -3.995  -1.996  0.00  0.00    +0.157 HD
ATOM     36  C   UNL     1      10.742  -4.267  -3.328  0.00  0.00    +0.165 A 
ATOM     37  S   UNL     1      11.817  -4.063  -4.633  0.00  0.00    -0.060 S 
ATOM     38  C   UNL     1      10.504  -4.331  -5.723  0.00  0.00    +0.078 A 
ATOM     39  C   UNL     1       9.337  -4.518  -5.006  0.00  0.00    +0.098 A 
ATOM     40  N   UNL     1       9.491  -4.456  -3.636  0.00  0.00    -0.223 NA
ATOM     41  O   UNL     1       9.370  -4.968  -0.993  0.00  0.00    -0.275 OA
BRANCH  33  43
ATOM     42  C   UNL     1      11.422  -2.759   0.564  0.00  0.00    +0.017 C 
ATOM     43  C   UNL     1      11.224  -4.258   0.356  0.00  0.00    +0.069 C 
ATOM     44  C   UNL     1      10.414  -4.846   1.513  0.00  0.00    +0.017 C 
ENDBRANCH  33  43
ENDBRANCH  22  39
BRANCH  28  45
ATOM     45  O   UNL     1       5.226  -5.073 -10.855  0.00  0.00    -0.494 OA
ATOM     46  C   UNL     1       4.079  -5.559 -11.537  0.00  0.00    +0.277 C 
ENDBRANCH  28  45
ENDBRANCH  21  24
ENDBRANCH   1  21
BRANCH   4  47
ATOM     47  C   UNL     1       2.283  -0.272  -2.485  0.00  0.00    +0.168 C 
BRANCH  47  48
ATOM     48  N   UNL     1       1.076   0.435  -2.948  0.00  0.00    -0.269 N 
ATOM     49  H   UNL     1       1.050   1.438  -2.841  0.00  0.00    +0.153 HD
ATOM     50  C   UNL     1       0.202  -0.002  -3.903  0.00  0.00    +0.401 C 
ATOM     51  O   UNL     1       0.170  -1.108  -4.411  0.00  0.00    -0.226 OA
BRANCH  50  52
ATOM     52  O   UNL     1      -0.651   1.013  -4.213  0.00  0.00    -0.447 OA
BRANCH  52  53
ATOM     53  C   UNL     1      -1.850   0.619  -4.898  0.00  0.00    +0.178 C 
ATOM     54  C   UNL     1      -2.557   1.826  -5.527  0.00  0.00    +0.045 C 
ATOM     55  C   UNL     1      -4.052   1.648  -5.245  0.00  0.00    +0.004 C 
ATOM     56  C   UNL     1      -4.195   0.299  -4.554  0.00  0.00    +0.004 C 
ATOM     57  C   UNL     1      -2.855   0.085  -3.884  0.00  0.00    +0.045 C 
ENDBRANCH  52  53
ENDBRANCH  50  52
ENDBRANCH  47  48
BRANCH  47  58
ATOM     58  C   UNL     1       2.748   0.246  -1.073  0.00  0.00    -0.011 C 
ATOM     59  C   UNL     1       3.302   1.684  -1.217  0.00  0.00    +0.013 C 
ATOM     60  C   UNL     1       3.902  -0.622  -0.521  0.00  0.00    +0.013 C 
ATOM     61  C   UNL     1       1.607   0.276  -0.039  0.00  0.00    +0.013 C 
ENDBRANCH  47  58
ENDBRANCH   4  47
TORSDOF 15
