REMARK  Name = 
REMARK  10 active torsions:
REMARK  status: ('A' for Active; 'I' for Inactive)
REMARK    1  A    between atoms: C_1  and  C_2
REMARK    2  A    between atoms: N_4  and  C_5
REMARK    3  A    between atoms: C_7  and  N_23
REMARK    4  A    between atoms: C_10  and  C_20
REMARK    5  A    between atoms: C_12  and  C_14
REMARK    6  A    between atoms: C_14  and  C_16
REMARK    7  A    between atoms: C_16  and  C_17
REMARK    8  A    between atoms: C_16  and  O_19
REMARK    9  A    between atoms: C_17  and  O_18
REMARK   10  A    between atoms: C_20  and  O_22
REMARK                            x       y       z     vdW  Elec       q    Type
REMARK                         _______ _______ _______ _____ _____    ______ ____
ROOT
ATOM      1  C   UNL     1       4.695  -0.819   0.976  0.00  0.00    +0.149 C 
ATOM      2  C   UNL     1       5.292  -2.140   1.523  0.00  0.00    +0.211 C 
ATOM      3  O   UNL     1       4.968  -2.349   2.910  0.00  0.00    -0.353 OA
ATOM      4  C   UNL     1       5.400  -1.285   3.767  0.00  0.00    +0.231 C 
ATOM      5  C   UNL     1       4.860   0.067   3.316  0.00  0.00    +0.089 C 
ATOM      6  C   UNL     1       5.224   0.338   1.859  0.00  0.00    +0.214 C 
ENDROOT
BRANCH   6   7
ATOM      7  N   UNL     1       4.621   1.618   1.458  0.00  0.00    -0.108 NA
ATOM      8  C   UNL     1       5.323   2.686   1.579  0.00  0.00    +0.377 C 
ATOM      9  N   UNL     1       4.766   3.873   1.262  0.00  0.00    -0.289 N 
ATOM     10  H   UNL     1       5.369   4.603   0.916  0.00  0.00    +0.255 HD
ATOM     11  H   UNL     1       3.892   3.779   0.761  0.00  0.00    +0.255 HD
ATOM     12  N   UNL     1       6.578   2.856   2.059  0.00  0.00    -0.289 N 
ATOM     13  H   UNL     1       7.146   3.540   1.581  0.00  0.00    +0.255 HD
ATOM     14  H   UNL     1       7.117   2.020   2.257  0.00  0.00    +0.255 HD
ENDBRANCH   6   7
BRANCH   1  17
ATOM     15  C   UNL     1       6.223  -0.331  -2.481  0.00  0.00    +0.109 C 
ATOM     16  C   UNL     1       6.216  -0.528  -0.993  0.00  0.00    +0.210 C 
ATOM     17  N   UNL     1       4.958  -0.609  -0.453  0.00  0.00    -0.306 N 
ATOM     18  H   UNL     1       4.163  -0.680  -1.075  0.00  0.00    +0.149 HD
ATOM     19  O   UNL     1       7.244  -0.623  -0.331  0.00  0.00    -0.276 OA
ENDBRANCH   1  17
BRANCH   2  20
ATOM     20  C   UNL     1       4.788  -3.353   0.731  0.00  0.00    +0.194 C 
ATOM     21  O   UNL     1       3.917  -3.292  -0.144  0.00  0.00    -0.292 OA
BRANCH  20  22
ATOM     22  C   UNL     1       5.441  -4.694   1.046  0.00  0.00    +0.208 C 
BRANCH  22  23
ATOM     23  O   UNL     1       5.512  -5.501  -0.138  0.00  0.00    -0.382 OA
ATOM     24  H   UNL     1       4.732  -5.263  -0.680  0.00  0.00    +0.210 HD
ENDBRANCH  22  23
BRANCH  22  25
ATOM     25  C   UNL     1       4.604  -5.440   2.081  0.00  0.00    +0.195 C 
BRANCH  25  26
ATOM     26  O   UNL     1       5.210  -6.694   2.392  0.00  0.00    -0.392 OA
ATOM     27  H   UNL     1       5.374  -7.132   1.532  0.00  0.00    +0.210 HD
ENDBRANCH  25  26
ENDBRANCH  22  25
ENDBRANCH  20  22
ENDBRANCH   2  20
BRANCH   4  28
ATOM     28  C   UNL     1       6.923  -1.274   3.980  0.00  0.00    +0.334 C 
ATOM     29  O   UNL     1       7.641  -0.289   3.913  0.00  0.00    -0.248 OA
BRANCH  28  30
ATOM     30  O   UNL     1       7.401  -2.514   4.253  0.00  0.00    -0.479 OA
ATOM     31  H   UNL     1       6.690  -3.187   4.275  0.00  0.00    +0.295 HD
ENDBRANCH  28  30
ENDBRANCH   4  28
TORSDOF 9
