REMARK  Name = 
REMARK  10 active torsions:
REMARK  status: ('A' for Active; 'I' for Inactive)
REMARK    1  A    between atoms: C_1  and  C_2
REMARK    2  A    between atoms: N_4  and  C_5
REMARK    3  A    between atoms: C_7  and  N_23
REMARK    4  A    between atoms: C_10  and  C_20
REMARK    5  A    between atoms: C_12  and  C_14
REMARK    6  A    between atoms: C_14  and  C_16
REMARK    7  A    between atoms: C_16  and  C_17
REMARK    8  A    between atoms: C_16  and  O_19
REMARK    9  A    between atoms: C_17  and  O_18
REMARK   10  A    between atoms: C_20  and  O_22
REMARK                            x       y       z     vdW  Elec       q    Type
REMARK                         _______ _______ _______ _____ _____    ______ ____
ROOT
ATOM      1  C   UNL     1       4.521   0.639  -1.078  0.00  0.00    +0.149 C 
ATOM      2  C   UNL     1       5.210  -0.737  -0.972  0.00  0.00    +0.211 C 
ATOM      3  O   UNL     1       4.935  -1.323   0.314  0.00  0.00    -0.353 OA
ATOM      4  C   UNL     1       5.375  -0.567   1.440  0.00  0.00    +0.231 C 
ATOM      5  C   UNL     1       4.778   0.839   1.410  0.00  0.00    +0.089 C 
ATOM      6  C   UNL     1       5.081   1.518   0.073  0.00  0.00    +0.214 C 
ENDROOT
BRANCH   6   7
ATOM      7  N   UNL     1       4.453   2.845   0.077  0.00  0.00    -0.108 NA
ATOM      8  C   UNL     1       5.181   3.886  -0.087  0.00  0.00    +0.377 C 
ATOM      9  N   UNL     1       4.609   5.110  -0.088  0.00  0.00    -0.289 N 
ATOM     10  H   UNL     1       5.149   5.802   0.418  0.00  0.00    +0.255 HD
ATOM     11  H   UNL     1       3.654   5.064   0.249  0.00  0.00    +0.255 HD
ATOM     12  N   UNL     1       6.515   4.017  -0.269  0.00  0.00    -0.289 N 
ATOM     13  H   UNL     1       6.742   4.777  -0.900  0.00  0.00    +0.255 HD
ATOM     14  H   UNL     1       6.978   3.180  -0.620  0.00  0.00    +0.255 HD
ENDBRANCH   6   7
BRANCH   1  17
ATOM     15  C   UNL     1       5.343   2.679  -4.187  0.00  0.00    +0.109 C 
ATOM     16  C   UNL     1       5.665   1.933  -2.917  0.00  0.00    +0.210 C 
ATOM     17  N   UNL     1       4.577   1.287  -2.390  0.00  0.00    -0.306 N 
ATOM     18  H   UNL     1       3.701   1.340  -2.896  0.00  0.00    +0.149 HD
ATOM     19  O   UNL     1       6.773   1.953  -2.393  0.00  0.00    -0.276 OA
ENDBRANCH   1  17
BRANCH   2  20
ATOM     20  C   UNL     1       4.696  -1.778  -1.966  0.00  0.00    +0.194 C 
ATOM     21  O   UNL     1       3.805  -1.557  -2.793  0.00  0.00    -0.292 OA
BRANCH  20  22
ATOM     22  C   UNL     1       5.376  -3.155  -1.928  0.00  0.00    +0.208 C 
BRANCH  22  23
ATOM     23  O   UNL     1       5.353  -3.746  -3.239  0.00  0.00    -0.382 OA
ATOM     24  H   UNL     1       4.595  -3.340  -3.707  0.00  0.00    +0.210 HD
ENDBRANCH  22  23
BRANCH  22  25
ATOM     25  C   UNL     1       4.650  -4.108  -0.976  0.00  0.00    +0.195 C 
BRANCH  25  26
ATOM     26  O   UNL     1       5.273  -5.396  -0.991  0.00  0.00    -0.392 OA
ATOM     27  H   UNL     1       5.413  -5.612  -1.934  0.00  0.00    +0.210 HD
ENDBRANCH  25  26
ENDBRANCH  22  25
ENDBRANCH  20  22
ENDBRANCH   2  20
BRANCH   4  28
ATOM     28  C   UNL     1       6.904  -0.552   1.649  0.00  0.00    +0.334 C 
ATOM     29  O   UNL     1       7.709  -0.971   0.828  0.00  0.00    -0.248 OA
BRANCH  28  30
ATOM     30  O   UNL     1       7.286  -0.047   2.843  0.00  0.00    -0.479 OA
ATOM     31  H   UNL     1       6.563   0.216   3.439  0.00  0.00    +0.295 HD
ENDBRANCH  28  30
ENDBRANCH   4  28
TORSDOF 9
