REMARK  Name = 
REMARK  3 active torsions:
REMARK  status: ('A' for Active; 'I' for Inactive)
REMARK    1  A    between atoms: C_2  and  N_10
REMARK    2  A    between atoms: C_5  and  C_8
REMARK    3  A    between atoms: C_8  and  O_9
REMARK                            x       y       z     vdW  Elec       q    Type
REMARK                         _______ _______ _______ _____ _____    ______ ____
ROOT
ATOM      1  N   UNL     1      -2.461   0.687  -0.384  0.00  0.00    -0.272 N 
ATOM      2  C   UNL     1      -3.626   0.234   0.246  0.00  0.00    +0.352 A 
ATOM      3  O   UNL     1      -3.564  -0.425   1.282  0.00  0.00    -0.244 OA
ATOM      4  N   UNL     1      -4.838   0.512  -0.337  0.00  0.00    -0.178 NA
ATOM      5  C   UNL     1      -4.880   1.130  -1.475  0.00  0.00    +0.123 A 
ATOM      6  N   UNL     1      -6.113   1.342  -2.025  0.00  0.00    -0.343 N 
ATOM      7  H   UNL     1      -6.870   1.211  -1.360  0.00  0.00    +0.144 HD
ATOM      8  H   UNL     1      -6.235   2.137  -2.639  0.00  0.00    +0.144 HD
ATOM      9  C   UNL     1      -3.676   1.598  -2.186  0.00  0.00    +0.061 A 
ATOM     10  C   UNL     1      -2.512   1.340  -1.594  0.00  0.00    +0.096 A 
ENDROOT
BRANCH   1  15
ATOM     11  C   UNL     1      -0.855  -1.181  -0.227  0.00  0.00    +0.126 C 
ATOM     12  S   UNL     1       0.915  -1.331   0.060  0.00  0.00    -0.123 S 
ATOM     13  C   UNL     1       1.137   0.469   0.069  0.00  0.00    +0.203 C 
ATOM     14  O   UNL     1      -0.115   1.107  -0.232  0.00  0.00    -0.340 OA
ATOM     15  C   UNL     1      -1.195   0.254   0.198  0.00  0.00    +0.235 C 
BRANCH  13  16
ATOM     16  C   UNL     1       1.711   0.940   1.419  0.00  0.00    +0.198 C 
BRANCH  16  17
ATOM     17  O   UNL     1       0.902   0.558   2.534  0.00  0.00    -0.392 OA
ATOM     18  H   UNL     1       0.840  -0.415   2.517  0.00  0.00    +0.210 HD
ENDBRANCH  16  17
ENDBRANCH  13  16
ENDBRANCH   1  15
TORSDOF 3
