REMARK  Name = 
REMARK  17 active torsions:
REMARK  status: ('A' for Active; 'I' for Inactive)
REMARK    1  A    between atoms: C_1  and  C_2
REMARK    2  A    between atoms: C_2  and  C_3
REMARK    3  A    between atoms: C_2  and  C_4
REMARK    4  A    between atoms: C_2  and  N_5
REMARK    5  A    between atoms: C_6  and  C_8
REMARK    6  A    between atoms: N_20  and  C_21
REMARK    7  A    between atoms: C_21  and  C_22
REMARK    8  A    between atoms: C_22  and  C_24
REMARK    9  A    between atoms: C_22  and  O_55
REMARK   10  A    between atoms: C_24  and  C_26
REMARK   11  A    between atoms: C_24  and  N_33
REMARK   12  A    between atoms: C_26  and  C_27
REMARK   13  A    between atoms: C_34  and  C_36
REMARK   14  A    between atoms: C_36  and  C_38
REMARK   15  A    between atoms: C_36  and  N_42
REMARK   16  A    between atoms: C_38  and  C_39
REMARK   17  A    between atoms: C_43  and  C_45
REMARK                            x       y       z     vdW  Elec       q    Type
REMARK                         _______ _______ _______ _____ _____    ______ ____
ROOT
ATOM      1  C   UNL     1       5.192   4.596   7.925  0.00  0.00    +0.107 C 
ENDROOT
BRANCH   1   2
ATOM      2  N   UNL     1       4.159   4.522   6.892  0.00  0.00    -0.308 N 
ATOM      3  H   UNL     1       4.268   3.851   6.146  0.00  0.00    +0.149 HD
ATOM      4  C   UNL     1       3.252   5.538   6.636  0.00  0.00    +0.234 C 
ATOM      5  O   UNL     1       3.297   6.639   7.185  0.00  0.00    -0.274 OA
BRANCH   4   6
ATOM      6  C   UNL     1       2.204   5.245   5.516  0.00  0.00    +0.168 C 
BRANCH   6   7
ATOM      7  N   UNL     1       2.070   3.810   5.238  0.00  0.00    -0.298 N 
ATOM      8  H   UNL     1       1.331   3.257   5.665  0.00  0.00    +0.150 HD
ATOM      9  C   UNL     1       2.970   3.162   4.422  0.00  0.00    +0.263 C 
ATOM     10  O   UNL     1       3.955   3.746   3.964  0.00  0.00    -0.269 OA
BRANCH   9  11
ATOM     11  C   UNL     1       2.799   1.703   4.229  0.00  0.00    +0.126 A 
ATOM     12  C   UNL     1       3.736   1.070   3.436  0.00  0.00    +0.033 A 
ATOM     13  C   UNL     1       3.679  -0.304   3.287  0.00  0.00    +0.012 A 
ATOM     14  C   UNL     1       2.703  -1.011   3.979  0.00  0.00    +0.000 A 
ATOM     15  C   UNL     1       1.769  -0.295   4.768  0.00  0.00    +0.072 A 
ATOM     16  C   UNL     1       0.800  -1.038   5.421  0.00  0.00    +0.028 A 
ATOM     17  C   UNL     1       0.764  -2.433   5.352  0.00  0.00    +0.002 A 
ATOM     18  C   UNL     1       1.710  -3.127   4.602  0.00  0.00    +0.001 A 
ATOM     19  C   UNL     1       2.677  -2.414   3.908  0.00  0.00    +0.010 A 
ATOM     20  N   UNL     1       1.812   1.050   4.890  0.00  0.00    -0.242 NA
ENDBRANCH   9  11
ENDBRANCH   6   7
BRANCH   6  21
ATOM     21  C   UNL     1       0.878   5.895   5.877  0.00  0.00    +0.127 C 
BRANCH  21  22
ATOM     22  C   UNL     1      -0.061   5.875   4.701  0.00  0.00    +0.213 C 
ATOM     23  N   UNL     1       0.081   6.868   3.784  0.00  0.00    -0.329 N 
ATOM     24  H   UNL     1      -0.568   6.880   3.012  0.00  0.00    +0.145 HD
ATOM     25  H   UNL     1       0.617   7.709   3.971  0.00  0.00    +0.145 HD
ATOM     26  O   UNL     1      -0.909   4.983   4.541  0.00  0.00    -0.276 OA
ENDBRANCH  21  22
ENDBRANCH   6  21
ENDBRANCH   4   6
ENDBRANCH   1   2
BRANCH   1  27
ATOM     27  C   UNL     1       6.315   3.422   7.858  0.00  0.00    +0.149 C 
BRANCH  27  28
ATOM     28  O   UNL     1       7.377   3.797   8.765  0.00  0.00    -0.389 OA
ATOM     29  H   UNL     1       8.064   4.281   8.271  0.00  0.00    +0.210 HD
ENDBRANCH  27  28
BRANCH  27  30
ATOM     30  C   UNL     1       6.959   3.112   6.395  0.00  0.00    +0.118 C 
BRANCH  30  32
ATOM     31  C   UNL     1       8.904   1.870   5.279  0.00  0.00    +0.143 C 
ATOM     32  N   UNL     1       7.554   1.801   5.908  0.00  0.00    -0.289 NA
ATOM     33  C   UNL     1       7.263   0.558   6.611  0.00  0.00    +0.089 C 
ATOM     34  C   UNL     1       7.631  -0.745   5.812  0.00  0.00    +0.006 C 
ATOM     35  C   UNL     1       9.129  -0.793   5.499  0.00  0.00    -0.005 C 
ATOM     36  C   UNL     1       9.503  -1.977   4.568  0.00  0.00    +0.004 C 
ATOM     37  C   UNL     1       8.694  -1.991   3.276  0.00  0.00    +0.000 C 
ATOM     38  C   UNL     1       7.214  -2.084   3.604  0.00  0.00    +0.000 C 
ATOM     39  C   UNL     1       6.748  -0.987   4.571  0.00  0.00    +0.005 C 
ATOM     40  C   UNL     1       9.671   0.540   4.966  0.00  0.00    +0.032 C 
BRANCH  31  43
ATOM     41  N   UNL     1       7.764   2.348   3.099  0.00  0.00    -0.309 N 
ATOM     42  H   UNL     1       6.974   1.936   3.579  0.00  0.00    +0.149 HD
ATOM     43  C   UNL     1       8.860   2.615   3.904  0.00  0.00    +0.231 C 
ATOM     44  O   UNL     1       9.828   3.271   3.518  0.00  0.00    -0.274 OA
BRANCH  41  46
ATOM     45  C   UNL     1       8.698   1.948   0.831  0.00  0.00    +0.031 C 
ATOM     46  C   UNL     1       7.651   2.707   1.666  0.00  0.00    +0.026 C 
ATOM     47  C   UNL     1       6.268   2.306   1.128  0.00  0.00    +0.031 C 
ATOM     48  C   UNL     1       7.808   4.220   1.440  0.00  0.00    +0.031 C 
ENDBRANCH  41  46
ENDBRANCH  31  43
ENDBRANCH  30  32
ENDBRANCH  27  30
ENDBRANCH   1  27
BRANCH   1  49
ATOM     49  C   UNL     1       4.500   4.817   9.339  0.00  0.00    +0.060 C 
BRANCH  49  50
ATOM     50  C   UNL     1       3.567   3.786   9.947  0.00  0.00    -0.046 A 
ATOM     51  C   UNL     1       2.165   3.856   9.801  0.00  0.00    +0.004 A 
ATOM     52  C   UNL     1       1.320   3.022  10.547  0.00  0.00    +0.000 A 
ATOM     53  C   UNL     1       1.856   2.111  11.460  0.00  0.00    +0.000 A 
ATOM     54  C   UNL     1       3.234   2.018  11.602  0.00  0.00    +0.000 A 
ATOM     55  C   UNL     1       4.082   2.844  10.847  0.00  0.00    +0.004 A 
ENDBRANCH  49  50
ENDBRANCH   1  49
TORSDOF 14
