REMARK  Name = 
REMARK  3 active torsions:
REMARK  status: ('A' for Active; 'I' for Inactive)
REMARK    1  A    between atoms: C_2  and  N_10
REMARK    2  A    between atoms: C_5  and  C_8
REMARK    3  A    between atoms: C_8  and  O_9
REMARK                            x       y       z     vdW  Elec       q    Type
REMARK                         _______ _______ _______ _____ _____    ______ ____
ROOT
ATOM      1  N   UNL     1      -2.431   0.717  -0.412  0.00  0.00    -0.272 N 
ATOM      2  C   UNL     1      -3.606   0.316   0.235  0.00  0.00    +0.352 A 
ATOM      3  O   UNL     1      -3.557  -0.287   1.304  0.00  0.00    -0.244 OA
ATOM      4  N   UNL     1      -4.812   0.585  -0.367  0.00  0.00    -0.178 NA
ATOM      5  C   UNL     1      -4.843   1.146  -1.534  0.00  0.00    +0.123 A 
ATOM      6  N   UNL     1      -6.071   1.342  -2.098  0.00  0.00    -0.343 N 
ATOM      7  H   UNL     1      -6.834   1.245  -1.434  0.00  0.00    +0.144 HD
ATOM      8  H   UNL     1      -6.188   2.101  -2.756  0.00  0.00    +0.144 HD
ATOM      9  C   UNL     1      -3.628   1.565  -2.261  0.00  0.00    +0.061 A 
ATOM     10  C   UNL     1      -2.469   1.317  -1.652  0.00  0.00    +0.096 A 
ENDROOT
BRANCH   1  15
ATOM     11  C   UNL     1      -0.877  -1.187  -0.202  0.00  0.00    +0.126 C 
ATOM     12  S   UNL     1       0.878  -1.379   0.135  0.00  0.00    -0.123 S 
ATOM     13  C   UNL     1       1.164   0.403   0.061  0.00  0.00    +0.203 C 
ATOM     14  O   UNL     1      -0.070   1.084  -0.257  0.00  0.00    -0.340 OA
ATOM     15  C   UNL     1      -1.174   0.266   0.183  0.00  0.00    +0.235 C 
BRANCH  13  16
ATOM     16  C   UNL     1       1.729   0.933   1.389  0.00  0.00    +0.198 C 
BRANCH  16  17
ATOM     17  O   UNL     1       2.112   2.306   1.256  0.00  0.00    -0.392 OA
ATOM     18  H   UNL     1       1.390   2.754   0.776  0.00  0.00    +0.210 HD
ENDBRANCH  16  17
ENDBRANCH  13  16
ENDBRANCH   1  15
TORSDOF 3
