REMARK  Name = 
REMARK  17 active torsions:
REMARK  status: ('A' for Active; 'I' for Inactive)
REMARK    1  A    between atoms: C_1  and  C_2
REMARK    2  A    between atoms: C_2  and  C_3
REMARK    3  A    between atoms: C_2  and  C_4
REMARK    4  A    between atoms: C_2  and  N_5
REMARK    5  A    between atoms: C_6  and  C_8
REMARK    6  A    between atoms: N_20  and  C_21
REMARK    7  A    between atoms: C_21  and  C_22
REMARK    8  A    between atoms: C_22  and  C_24
REMARK    9  A    between atoms: C_22  and  O_55
REMARK   10  A    between atoms: C_24  and  C_26
REMARK   11  A    between atoms: C_24  and  N_33
REMARK   12  A    between atoms: C_26  and  C_27
REMARK   13  A    between atoms: C_34  and  C_36
REMARK   14  A    between atoms: C_36  and  C_38
REMARK   15  A    between atoms: C_36  and  N_42
REMARK   16  A    between atoms: C_38  and  C_39
REMARK   17  A    between atoms: C_43  and  C_45
REMARK                            x       y       z     vdW  Elec       q    Type
REMARK                         _______ _______ _______ _____ _____    ______ ____
ROOT
ATOM      1  C   UNL     1       3.845  -9.897   0.064  0.00  0.00    +0.107 C 
ENDROOT
BRANCH   1   2
ATOM      2  N   UNL     1       2.775  -8.980   0.493  0.00  0.00    -0.308 N 
ATOM      3  H   UNL     1       3.056  -8.087   0.882  0.00  0.00    +0.149 HD
ATOM      4  C   UNL     1       1.553  -9.459   0.915  0.00  0.00    +0.234 C 
ATOM      5  O   UNL     1       1.218 -10.635   0.761  0.00  0.00    -0.274 OA
BRANCH   4   6
ATOM      6  C   UNL     1       0.594  -8.414   1.518  0.00  0.00    +0.168 C 
BRANCH   6   7
ATOM      7  N   UNL     1       1.244  -7.133   1.802  0.00  0.00    -0.298 N 
ATOM      8  H   UNL     1       1.231  -6.373   1.122  0.00  0.00    +0.150 HD
ATOM      9  C   UNL     1       1.815  -6.870   3.032  0.00  0.00    +0.263 C 
ATOM     10  O   UNL     1       1.885  -7.701   3.929  0.00  0.00    -0.269 OA
BRANCH   9  11
ATOM     11  C   UNL     1       2.361  -5.485   3.205  0.00  0.00    +0.126 A 
ATOM     12  C   UNL     1       2.931  -5.127   4.418  0.00  0.00    +0.033 A 
ATOM     13  C   UNL     1       3.448  -3.845   4.542  0.00  0.00    +0.012 A 
ATOM     14  C   UNL     1       3.387  -2.965   3.455  0.00  0.00    +0.000 A 
ATOM     15  C   UNL     1       2.775  -3.414   2.260  0.00  0.00    +0.072 A 
ATOM     16  C   UNL     1       2.702  -2.533   1.193  0.00  0.00    +0.028 A 
ATOM     17  C   UNL     1       3.233  -1.241   1.268  0.00  0.00    +0.002 A 
ATOM     18  C   UNL     1       3.846  -0.809   2.440  0.00  0.00    +0.001 A 
ATOM     19  C   UNL     1       3.917  -1.665   3.534  0.00  0.00    +0.010 A 
ATOM     20  N   UNL     1       2.271  -4.660   2.129  0.00  0.00    -0.242 NA
ENDBRANCH   9  11
ENDBRANCH   6   7
BRANCH   6  21
ATOM     21  C   UNL     1      -0.600  -8.275   0.581  0.00  0.00    +0.127 C 
BRANCH  21  22
ATOM     22  C   UNL     1      -1.697  -7.423   1.164  0.00  0.00    +0.213 C 
ATOM     23  N   UNL     1      -2.267  -7.863   2.319  0.00  0.00    -0.329 N 
ATOM     24  H   UNL     1      -2.987  -7.282   2.730  0.00  0.00    +0.145 HD
ATOM     25  H   UNL     1      -1.927  -8.649   2.855  0.00  0.00    +0.145 HD
ATOM     26  O   UNL     1      -2.102  -6.402   0.616  0.00  0.00    -0.276 OA
ENDBRANCH  21  22
ENDBRANCH   6  21
ENDBRANCH   4   6
ENDBRANCH   1   2
BRANCH   1  27
ATOM     27  C   UNL     1       4.424 -10.622   1.325  0.00  0.00    +0.149 C 
BRANCH  27  28
ATOM     28  O   UNL     1       5.109  -9.672   2.152  0.00  0.00    -0.389 OA
ATOM     29  H   UNL     1       4.940  -9.955   3.073  0.00  0.00    +0.210 HD
ENDBRANCH  27  28
BRANCH  27  30
ATOM     30  C   UNL     1       5.361 -11.828   1.007  0.00  0.00    +0.118 C 
BRANCH  30  32
ATOM     31  C   UNL     1       4.780 -13.136   3.067  0.00  0.00    +0.143 C 
ATOM     32  N   UNL     1       5.858 -12.637   2.168  0.00  0.00    -0.289 NA
ATOM     33  C   UNL     1       6.779 -13.683   1.688  0.00  0.00    +0.089 C 
ATOM     34  C   UNL     1       7.066 -14.829   2.673  0.00  0.00    +0.006 C 
ATOM     35  C   UNL     1       5.762 -15.582   2.951  0.00  0.00    -0.005 C 
ATOM     36  C   UNL     1       5.920 -16.642   4.051  0.00  0.00    +0.004 C 
ATOM     37  C   UNL     1       6.552 -16.075   5.315  0.00  0.00    +0.000 C 
ATOM     38  C   UNL     1       7.910 -15.458   5.007  0.00  0.00    +0.000 C 
ATOM     39  C   UNL     1       7.819 -14.377   3.932  0.00  0.00    +0.005 C 
ATOM     40  C   UNL     1       4.558 -14.659   3.189  0.00  0.00    +0.032 C 
BRANCH  31  43
ATOM     41  N   UNL     1       5.720 -11.369   4.550  0.00  0.00    -0.309 N 
ATOM     42  H   UNL     1       6.367 -11.315   3.763  0.00  0.00    +0.149 HD
ATOM     43  C   UNL     1       4.907 -12.490   4.485  0.00  0.00    +0.231 C 
ATOM     44  O   UNL     1       4.272 -12.910   5.451  0.00  0.00    -0.274 OA
BRANCH  41  46
ATOM     45  C   UNL     1       6.804 -11.629   6.774  0.00  0.00    +0.031 C 
ATOM     46  C   UNL     1       6.069 -10.682   5.809  0.00  0.00    +0.026 C 
ATOM     47  C   UNL     1       7.005  -9.505   5.483  0.00  0.00    +0.031 C 
ATOM     48  C   UNL     1       4.817 -10.113   6.501  0.00  0.00    +0.031 C 
ENDBRANCH  41  46
ENDBRANCH  31  43
ENDBRANCH  30  32
ENDBRANCH  27  30
ENDBRANCH   1  27
BRANCH   1  49
ATOM     49  C   UNL     1       4.906  -9.127  -0.752  0.00  0.00    +0.060 C 
BRANCH  49  50
ATOM     50  C   UNL     1       4.400  -8.459  -2.023  0.00  0.00    -0.046 A 
ATOM     51  C   UNL     1       3.897  -9.219  -3.085  0.00  0.00    +0.004 A 
ATOM     52  C   UNL     1       3.547  -8.607  -4.297  0.00  0.00    +0.000 A 
ATOM     53  C   UNL     1       3.693  -7.233  -4.456  0.00  0.00    +0.000 A 
ATOM     54  C   UNL     1       4.161  -6.461  -3.395  0.00  0.00    +0.000 A 
ATOM     55  C   UNL     1       4.516  -7.070  -2.185  0.00  0.00    +0.004 A 
ENDBRANCH  49  50
ENDBRANCH   1  49
TORSDOF 14
