REMARK  Name = 
REMARK  12 active torsions:
REMARK  status: ('A' for Active; 'I' for Inactive)
REMARK    1  A    between atoms: C_3  and  N_4
REMARK    2  A    between atoms: N_4  and  C_5
REMARK    3  A    between atoms: N_12  and  C_15
REMARK    4  A    between atoms: C_18  and  C_22
REMARK    5  A    between atoms: C_22  and  O_23
REMARK    6  A    between atoms: C_26  and  N_27
REMARK    7  A    between atoms: N_27  and  C_28
REMARK    8  A    between atoms: N_35  and  C_38
REMARK    9  A    between atoms: C_41  and  C_45
REMARK   10  A    between atoms: C_45  and  O_46
REMARK   11  A    between atoms: O_47  and  S_48
REMARK   12  A    between atoms: S_48  and  O_51
REMARK                            x       y       z     vdW  Elec       q    Type
REMARK                         _______ _______ _______ _____ _____    ______ ____
ROOT
ATOM      1  C   UNL     1       1.874  -2.630   1.481  0.00  0.00    +0.152 A 
ATOM      2  N   UNL     1       1.232  -3.618   0.824  0.00  0.00    -0.198 NA
ATOM      3  C   UNL     1       1.697  -4.856   1.005  0.00  0.00    +0.216 A 
ATOM      4  N   UNL     1       0.999  -5.804   0.280  0.00  0.00    -0.327 N 
ATOM      5  H   UNL     1       0.118  -5.380   0.020  0.00  0.00    +0.145 HD
ATOM      6  H   UNL     1       0.969  -6.689   0.751  0.00  0.00    +0.145 HD
ATOM      7  N   UNL     1       2.738  -5.256   1.788  0.00  0.00    -0.195 NA
ATOM      8  C   UNL     1       3.375  -4.211   2.347  0.00  0.00    +0.168 A 
ATOM      9  N   UNL     1       4.554  -4.133   3.061  0.00  0.00    -0.308 N 
ATOM     10  C   UNL     1       4.825  -2.811   3.300  0.00  0.00    +0.202 A 
ATOM     11  N   UNL     1       3.932  -2.025   2.760  0.00  0.00    -0.231 NA
ATOM     12  C   UNL     1       3.017  -2.892   2.223  0.00  0.00    +0.148 A 
ENDROOT
BRANCH   9  13
ATOM     13  C   UNL     1       5.395  -5.261   3.377  0.00  0.00    +0.113 C 
ATOM     14  C   UNL     1       5.926  -5.874   2.113  0.00  0.00    -0.006 C 
ATOM     15  C   UNL     1       7.229  -5.636   1.933  0.00  0.00    -0.023 C 
ATOM     16  C   UNL     1       7.811  -4.853   3.069  0.00  0.00    +0.039 C 
ATOM     17  C   UNL     1       6.701  -4.954   4.138  0.00  0.00    +0.039 C 
BRANCH  16  18
ATOM     18  C   UNL     1       8.173  -3.420   2.662  0.00  0.00    +0.163 C 
BRANCH  18  19
ATOM     19  O   UNL     1       8.565  -2.665   3.803  0.00  0.00    -0.394 OA
ATOM     20  H   UNL     1       9.326  -3.116   4.209  0.00  0.00    +0.209 HD
ENDBRANCH  18  19
ENDBRANCH  16  18
ENDBRANCH   9  13
BRANCH   1  21
ATOM     21  N   UNL     1       1.527  -0.817   1.200  0.00  0.00    -0.324 N 
ATOM     22  H   UNL     1       2.117  -0.057   1.885  0.00  0.00    +0.148 HD
BRANCH  21  24
ATOM     23  C   UNL     1      -0.029   0.883   0.000  0.00  0.00    +0.024 C 
ATOM     24  C   UNL     1       0.779  -0.417   0.000  0.00  0.00    +0.072 C 
ATOM     25  C   UNL     1      -0.751  -0.466   0.000  0.00  0.00    +0.024 C 
ENDBRANCH  21  24
ENDBRANCH   1  21
TORSDOF 5
REMARK  Name = 
REMARK  12 active torsions:
REMARK  status: ('A' for Active; 'I' for Inactive)
REMARK    1  A    between atoms: C_3  and  N_4
REMARK    2  A    between atoms: N_4  and  C_5
REMARK    3  A    between atoms: N_12  and  C_15
REMARK    4  A    between atoms: C_18  and  C_22
REMARK    5  A    between atoms: C_22  and  O_23
REMARK    6  A    between atoms: C_26  and  N_27
REMARK    7  A    between atoms: N_27  and  C_28
REMARK    8  A    between atoms: N_35  and  C_38
REMARK    9  A    between atoms: C_41  and  C_45
REMARK   10  A    between atoms: C_45  and  O_46
REMARK   11  A    between atoms: O_47  and  S_48
REMARK   12  A    between atoms: S_48  and  O_51
REMARK                            x       y       z     vdW  Elec       q    Type
REMARK                         _______ _______ _______ _____ _____    ______ ____
ROOT
ATOM      1  C   UNL     1       0.733  -0.621   2.902  0.00  0.00    +0.152 A 
ATOM      2  N   UNL     1       1.519  -0.890   3.984  0.00  0.00    -0.198 NA
ATOM      3  C   UNL     1       1.065  -0.582   5.207  0.00  0.00    +0.216 A 
ATOM      4  N   UNL     1       1.916  -0.937   6.240  0.00  0.00    -0.327 N 
ATOM      5  H   UNL     1       2.566  -1.629   5.886  0.00  0.00    +0.145 HD
ATOM      6  H   UNL     1       1.371  -1.181   7.056  0.00  0.00    +0.145 HD
ATOM      7  N   UNL     1      -0.104   0.009   5.515  0.00  0.00    -0.195 NA
ATOM      8  C   UNL     1      -0.857   0.290   4.438  0.00  0.00    +0.168 A 
ATOM      9  N   UNL     1      -2.104   0.870   4.330  0.00  0.00    -0.308 N 
ATOM     10  C   UNL     1      -2.375   1.077   3.023  0.00  0.00    +0.202 A 
ATOM     11  N   UNL     1      -1.468   0.513   2.315  0.00  0.00    -0.231 NA
ATOM     12  C   UNL     1      -0.508   0.012   3.137  0.00  0.00    +0.148 A 
ENDROOT
BRANCH   9  13
ATOM     13  C   UNL     1      -3.170   1.089   5.277  0.00  0.00    +0.113 C 
ATOM     14  C   UNL     1      -4.319   0.169   4.924  0.00  0.00    -0.006 C 
ATOM     15  C   UNL     1      -4.378  -0.868   5.763  0.00  0.00    -0.023 C 
ATOM     16  C   UNL     1      -3.354  -0.749   6.857  0.00  0.00    +0.039 C 
ATOM     17  C   UNL     1      -2.857   0.702   6.702  0.00  0.00    +0.039 C 
BRANCH  16  18
ATOM     18  C   UNL     1      -2.269  -1.830   6.787  0.00  0.00    +0.163 C 
BRANCH  18  19
ATOM     19  O   UNL     1      -1.253  -1.609   7.762  0.00  0.00    -0.394 OA
ATOM     20  H   UNL     1      -1.581  -1.953   8.609  0.00  0.00    +0.209 HD
ENDBRANCH  18  19
ENDBRANCH  16  18
ENDBRANCH   9  13
BRANCH   1  21
ATOM     21  N   UNL     1       1.527  -0.817   1.200  0.00  0.00    -0.324 N 
ATOM     22  H   UNL     1       2.693  -1.004   1.111  0.00  0.00    +0.148 HD
BRANCH  21  24
ATOM     23  C   UNL     1      -0.029   0.883   0.000  0.00  0.00    +0.024 C 
ATOM     24  C   UNL     1       0.779  -0.417   0.000  0.00  0.00    +0.072 C 
ATOM     25  C   UNL     1      -0.751  -0.466   0.000  0.00  0.00    +0.024 C 
ENDBRANCH  21  24
ENDBRANCH   1  21
TORSDOF 5
REMARK  Name = 
REMARK  12 active torsions:
REMARK  status: ('A' for Active; 'I' for Inactive)
REMARK    1  A    between atoms: C_3  and  N_4
REMARK    2  A    between atoms: N_4  and  C_5
REMARK    3  A    between atoms: N_12  and  C_15
REMARK    4  A    between atoms: C_18  and  C_22
REMARK    5  A    between atoms: C_22  and  O_23
REMARK    6  A    between atoms: C_26  and  N_27
REMARK    7  A    between atoms: N_27  and  C_28
REMARK    8  A    between atoms: N_35  and  C_38
REMARK    9  A    between atoms: C_41  and  C_45
REMARK   10  A    between atoms: C_45  and  O_46
REMARK   11  A    between atoms: O_47  and  S_48
REMARK   12  A    between atoms: S_48  and  O_51
REMARK                            x       y       z     vdW  Elec       q    Type
REMARK                         _______ _______ _______ _____ _____    ______ ____
ROOT
ATOM      1  S   UNL     1       3.586   1.877  -1.641  0.00  0.00    +0.205 S 
ATOM      2  O   UNL     1       3.594   0.445  -1.677  0.00  0.00    -0.118 OA
ATOM      3  O   UNL     1       4.793   2.666  -1.780  0.00  0.00    -0.118 OA
ENDROOT
BRANCH   1   4
ATOM      4  O   UNL     1       2.850   2.325  -0.291  0.00  0.00    -0.231 OA
ATOM      5  H   UNL     1       2.506   1.512   0.142  0.00  0.00    +0.247 HD
ENDBRANCH   1   4
BRANCH   1   6
ATOM      6  O   UNL     1       2.597   2.414  -2.786  0.00  0.00    -0.231 OA
ATOM      7  H   UNL     1       3.104   3.065  -3.310  0.00  0.00    +0.247 HD
ENDBRANCH   1   6
TORSDOF 2
