REMARK  Name = 
REMARK  5 active torsions:
REMARK  status: ('A' for Active; 'I' for Inactive)
REMARK    1  A    between atoms: C_3  and  N_4
REMARK    2  A    between atoms: N_4  and  C_5
REMARK    3  A    between atoms: N_12  and  C_15
REMARK    4  A    between atoms: C_18  and  C_22
REMARK    5  A    between atoms: C_22  and  O_23
REMARK                            x       y       z     vdW  Elec       q    Type
REMARK                         _______ _______ _______ _____ _____    ______ ____
ROOT
ATOM      1  C   UNL     1       2.930  -0.704   1.173  0.00  0.00    +0.152 A 
ATOM      2  N   UNL     1       3.613   0.471   1.105  0.00  0.00    -0.198 NA
ATOM      3  C   UNL     1       4.954   0.457   1.050  0.00  0.00    +0.216 A 
ATOM      4  N   UNL     1       5.575   1.690   0.986  0.00  0.00    -0.327 N 
ATOM      5  H   UNL     1       4.949   2.390   1.363  0.00  0.00    +0.145 HD
ATOM      6  H   UNL     1       6.500   1.633   1.384  0.00  0.00    +0.145 HD
ATOM      7  N   UNL     1       5.752  -0.621   1.088  0.00  0.00    -0.195 NA
ATOM      8  C   UNL     1       5.050  -1.763   1.151  0.00  0.00    +0.168 A 
ATOM      9  N   UNL     1       5.532  -3.050   1.198  0.00  0.00    -0.308 N 
ATOM     10  C   UNL     1       4.446  -3.882   1.205  0.00  0.00    +0.202 A 
ATOM     11  N   UNL     1       3.306  -3.218   1.214  0.00  0.00    -0.231 NA
ATOM     12  C   UNL     1       3.676  -1.892   1.190  0.00  0.00    +0.148 A 
ENDROOT
BRANCH   9  13
ATOM     13  C   UNL     1       6.942  -3.397   1.206  0.00  0.00    +0.113 C 
ATOM     14  C   UNL     1       7.613  -2.933   2.473  0.00  0.00    -0.006 C 
ATOM     15  C   UNL     1       7.958  -3.945   3.276  0.00  0.00    -0.023 C 
ATOM     16  C   UNL     1       7.598  -5.271   2.681  0.00  0.00    +0.039 C 
ATOM     17  C   UNL     1       7.307  -4.895   1.212  0.00  0.00    +0.039 C 
BRANCH  16  18
ATOM     18  C   UNL     1       6.419  -5.933   3.397  0.00  0.00    +0.163 C 
BRANCH  18  19
ATOM     19  O   UNL     1       6.047  -7.132   2.727  0.00  0.00    -0.394 OA
ATOM     20  H   UNL     1       6.769  -7.773   2.851  0.00  0.00    +0.209 HD
ENDBRANCH  18  19
ENDBRANCH  16  18
ENDBRANCH   9  13
BRANCH   1  21
ATOM     21  N   UNL     1       1.521  -0.731   1.198  0.00  0.00    -0.324 N 
ATOM     22  H   UNL     1       1.200  -1.684   1.029  0.00  0.00    +0.148 HD
BRANCH  21  24
ATOM     23  C   UNL     1       0.139   1.429   1.432  0.00  0.00    +0.024 C 
ATOM     24  C   UNL     1       0.797   0.377   0.587  0.00  0.00    +0.072 C 
ATOM     25  C   UNL     1      -0.701   0.443   0.675  0.00  0.00    +0.024 C 
ENDBRANCH  21  24
ENDBRANCH   1  21
TORSDOF 5
