REMARK  Name = 
REMARK  11 active torsions:
REMARK  status: ('A' for Active; 'I' for Inactive)
REMARK    1  A    between atoms: C_1  and  C_2
REMARK    2  A    between atoms: C_2  and  C_3
REMARK    3  A    between atoms: C_2  and  N_4
REMARK    4  A    between atoms: N_4  and  C_5
REMARK    5  A    between atoms: C_6  and  N_11
REMARK    6  A    between atoms: C_17  and  C_19
REMARK    7  A    between atoms: C_26  and  N_28
REMARK    8  A    between atoms: N_28  and  S_29
REMARK    9  A    between atoms: S_29  and  C_32
REMARK   10  A    between atoms: C_33  and  S_34
REMARK   11  A    between atoms: S_34  and  O_37
REMARK                            x       y       z     vdW  Elec       q    Type
REMARK                         _______ _______ _______ _____ _____    ______ ____
ROOT
ATOM      1  N   UNL     1       3.914  -4.298  -1.042  0.00  0.00    -0.311 N 
ATOM      2  C   UNL     1       4.288  -5.553  -0.394  0.00  0.00    +0.125 C 
ATOM      3  C   UNL     1       3.778  -6.723  -1.241  0.00  0.00    +0.127 C 
ATOM      4  N   UNL     1       2.335  -6.576  -1.490  0.00  0.00    -0.293 N 
ATOM      5  C   UNL     1       1.281  -7.321  -0.979  0.00  0.00    +0.263 C 
ATOM      6  O   UNL     1       0.112  -6.977  -1.160  0.00  0.00    -0.268 OA
ATOM      7  C   UNL     1       2.036  -5.379  -2.273  0.00  0.00    +0.127 C 
ATOM      8  C   UNL     1       2.570  -4.124  -1.593  0.00  0.00    +0.125 C 
ENDROOT
BRANCH   5   9
ATOM      9  C   UNL     1       1.553  -8.601  -0.368  0.00  0.00    +0.103 A 
ATOM     10  N   UNL     1       0.683  -9.656  -0.565  0.00  0.00    -0.351 N 
ATOM     11  H   UNL     1      -0.194  -9.565  -1.062  0.00  0.00    +0.166 HD
ATOM     12  C   UNL     1       1.281 -10.841  -0.211  0.00  0.00    +0.047 A 
ATOM     13  C   UNL     1       0.870 -12.162  -0.405  0.00  0.00    +0.028 A 
ATOM     14  C   UNL     1       1.755 -13.170  -0.006  0.00  0.00    +0.026 A 
ATOM     15  C   UNL     1       2.977 -12.854   0.588  0.00  0.00    +0.048 A 
ATOM     16  C   UNL     1       3.335 -11.530   0.843  0.00  0.00    +0.034 A 
ATOM     17  C   UNL     1       2.476 -10.506   0.419  0.00  0.00    +0.002 A 
ATOM     18  C   UNL     1       2.549  -9.090   0.455  0.00  0.00    +0.041 A 
BRANCH  15  19
ATOM     19  N   UNL     1       3.867 -13.890   0.975  0.00  0.00    -0.221 N 
ATOM     20  H   UNL     1       4.023 -14.655   0.321  0.00  0.00    +0.173 HD
BRANCH  19  21
ATOM     21  S   UNL     1       3.913 -14.347   2.589  0.00  0.00    +0.040 S 
ATOM     22  C   UNL     1       2.326 -15.131   2.799  0.00  0.00    +0.218 C 
ATOM     23  O   UNL     1       3.972 -13.182   3.436  0.00  0.00    -0.155 OA
ATOM     24  O   UNL     1       4.916 -15.388   2.679  0.00  0.00    -0.155 OA
ENDBRANCH  19  21
ENDBRANCH  15  19
ENDBRANCH   5   9
BRANCH   1  30
ATOM     25  C   UNL     1       4.161  -1.904  -0.583  0.00  0.00    +0.068 A 
ATOM     26  C   UNL     1       5.030  -0.839  -0.891  0.00  0.00    +0.028 A 
ATOM     27  C   UNL     1       6.387  -1.036  -1.129  0.00  0.00    +0.022 A 
ATOM     28  C   UNL     1       6.845  -2.330  -1.102  0.00  0.00    +0.113 A 
ATOM     29  N   UNL     1       6.040  -3.399  -0.951  0.00  0.00    -0.238 NA
ATOM     30  C   UNL     1       4.702  -3.192  -0.790  0.00  0.00    +0.142 A 
BRANCH  25  31
ATOM     31  N   UNL     1       2.819  -1.600  -0.241  0.00  0.00    -0.339 N 
ATOM     32  H   UNL     1       2.771  -0.584  -0.192  0.00  0.00    +0.146 HD
BRANCH  31  34
ATOM     33  C   UNL     1       0.616  -2.091   0.708  0.00  0.00    +0.027 C 
ATOM     34  C   UNL     1       2.132  -2.076   1.000  0.00  0.00    +0.064 C 
ATOM     35  C   UNL     1       2.543  -3.394   1.649  0.00  0.00    +0.027 C 
ENDBRANCH  31  34
ENDBRANCH  25  31
ENDBRANCH   1  30
TORSDOF 6
REMARK  Name = 
REMARK  11 active torsions:
REMARK  status: ('A' for Active; 'I' for Inactive)
REMARK    1  A    between atoms: C_1  and  C_2
REMARK    2  A    between atoms: C_2  and  C_3
REMARK    3  A    between atoms: C_2  and  N_4
REMARK    4  A    between atoms: N_4  and  C_5
REMARK    5  A    between atoms: C_6  and  N_11
REMARK    6  A    between atoms: C_17  and  C_19
REMARK    7  A    between atoms: C_26  and  N_28
REMARK    8  A    between atoms: N_28  and  S_29
REMARK    9  A    between atoms: S_29  and  C_32
REMARK   10  A    between atoms: C_33  and  S_34
REMARK   11  A    between atoms: S_34  and  O_37
REMARK                            x       y       z     vdW  Elec       q    Type
REMARK                         _______ _______ _______ _____ _____    ______ ____
ROOT
ATOM      1  C   UNL     1       1.788   2.228   0.137  0.00  0.00    +0.228 C 
ATOM      2  S   UNL     1       3.497   2.272   0.623  0.00  0.00    +0.077 S 
ATOM      3  O   UNL     1       4.279   2.940  -0.387  0.00  0.00    -0.148 OA
ATOM      4  O   UNL     1       3.853   0.983   1.166  0.00  0.00    -0.148 OA
ENDROOT
BRANCH   2   5
ATOM      5  O   UNL     1       3.384   3.235   1.905  0.00  0.00    -0.254 OA
ATOM      6  H   UNL     1       3.850   2.773   2.638  0.00  0.00    +0.244 HD
ENDBRANCH   2   5
TORSDOF 1
