REMARK  Name = 
REMARK  12 active torsions:
REMARK  status: ('A' for Active; 'I' for Inactive)
REMARK    1  A    between atoms: C_3  and  N_4
REMARK    2  A    between atoms: N_4  and  C_5
REMARK    3  A    between atoms: N_12  and  C_15
REMARK    4  A    between atoms: C_18  and  C_22
REMARK    5  A    between atoms: C_22  and  O_23
REMARK    6  A    between atoms: C_26  and  N_27
REMARK    7  A    between atoms: N_27  and  C_28
REMARK    8  A    between atoms: N_35  and  C_38
REMARK    9  A    between atoms: C_41  and  C_45
REMARK   10  A    between atoms: C_45  and  O_46
REMARK   11  A    between atoms: O_47  and  S_48
REMARK   12  A    between atoms: S_48  and  O_51
REMARK                            x       y       z     vdW  Elec       q    Type
REMARK                         _______ _______ _______ _____ _____    ______ ____
ROOT
ATOM      1  C   UNL     1       1.868  -2.635   1.457  0.00  0.00    +0.152 A 
ATOM      2  N   UNL     1       1.238  -3.606   0.773  0.00  0.00    -0.198 NA
ATOM      3  C   UNL     1       1.699  -4.851   0.950  0.00  0.00    +0.216 A 
ATOM      4  N   UNL     1       0.991  -5.805   0.238  0.00  0.00    -0.327 N 
ATOM      5  H   UNL     1       0.098  -5.385  -0.002  0.00  0.00    +0.145 HD
ATOM      6  H   UNL     1       0.971  -6.678   0.737  0.00  0.00    +0.145 HD
ATOM      7  N   UNL     1       2.734  -5.260   1.732  0.00  0.00    -0.195 NA
ATOM      8  C   UNL     1       3.365  -4.220   2.318  0.00  0.00    +0.168 A 
ATOM      9  N   UNL     1       4.525  -4.145   3.059  0.00  0.00    -0.308 N 
ATOM     10  C   UNL     1       4.738  -2.829   3.376  0.00  0.00    +0.202 A 
ATOM     11  N   UNL     1       3.862  -2.039   2.821  0.00  0.00    -0.231 NA
ATOM     12  C   UNL     1       2.993  -2.907   2.223  0.00  0.00    +0.148 A 
ENDROOT
BRANCH   9  13
ATOM     13  C   UNL     1       5.409  -5.250   3.359  0.00  0.00    +0.113 C 
ATOM     14  C   UNL     1       5.928  -5.853   2.091  0.00  0.00    -0.006 C 
ATOM     15  C   UNL     1       7.226  -5.608   1.907  0.00  0.00    -0.023 C 
ATOM     16  C   UNL     1       7.847  -4.862   3.045  0.00  0.00    +0.039 C 
ATOM     17  C   UNL     1       6.722  -4.903   4.101  0.00  0.00    +0.039 C 
BRANCH  16  18
ATOM     18  C   UNL     1       8.387  -3.471   2.675  0.00  0.00    +0.163 C 
BRANCH  18  19
ATOM     19  O   UNL     1       7.360  -2.551   2.359  0.00  0.00    -0.394 OA
ATOM     20  H   UNL     1       7.592  -1.684   2.738  0.00  0.00    +0.209 HD
ENDBRANCH  18  19
ENDBRANCH  16  18
ENDBRANCH   9  13
BRANCH   1  21
ATOM     21  N   UNL     1       1.527  -0.817   1.200  0.00  0.00    -0.324 N 
ATOM     22  H   UNL     1       2.113  -0.021   1.851  0.00  0.00    +0.148 HD
BRANCH  21  24
ATOM     23  C   UNL     1      -0.029   0.883   0.000  0.00  0.00    +0.024 C 
ATOM     24  C   UNL     1       0.779  -0.417   0.000  0.00  0.00    +0.072 C 
ATOM     25  C   UNL     1      -0.751  -0.466   0.000  0.00  0.00    +0.024 C 
ENDBRANCH  21  24
ENDBRANCH   1  21
TORSDOF 5
REMARK  Name = 
REMARK  12 active torsions:
REMARK  status: ('A' for Active; 'I' for Inactive)
REMARK    1  A    between atoms: C_3  and  N_4
REMARK    2  A    between atoms: N_4  and  C_5
REMARK    3  A    between atoms: N_12  and  C_15
REMARK    4  A    between atoms: C_18  and  C_22
REMARK    5  A    between atoms: C_22  and  O_23
REMARK    6  A    between atoms: C_26  and  N_27
REMARK    7  A    between atoms: N_27  and  C_28
REMARK    8  A    between atoms: N_35  and  C_38
REMARK    9  A    between atoms: C_41  and  C_45
REMARK   10  A    between atoms: C_45  and  O_46
REMARK   11  A    between atoms: O_47  and  S_48
REMARK   12  A    between atoms: S_48  and  O_51
REMARK                            x       y       z     vdW  Elec       q    Type
REMARK                         _______ _______ _______ _____ _____    ______ ____
ROOT
ATOM      1  C   UNL     1       0.746  -0.610   2.907  0.00  0.00    +0.152 A 
ATOM      2  N   UNL     1       1.524  -0.893   3.993  0.00  0.00    -0.198 NA
ATOM      3  C   UNL     1       1.063  -0.628   5.221  0.00  0.00    +0.216 A 
ATOM      4  N   UNL     1       1.929  -0.977   6.242  0.00  0.00    -0.327 N 
ATOM      5  H   UNL     1       2.598  -1.639   5.872  0.00  0.00    +0.145 HD
ATOM      6  H   UNL     1       1.439  -1.224   7.088  0.00  0.00    +0.145 HD
ATOM      7  N   UNL     1      -0.125  -0.081   5.549  0.00  0.00    -0.195 NA
ATOM      8  C   UNL     1      -0.859   0.251   4.469  0.00  0.00    +0.168 A 
ATOM      9  N   UNL     1      -2.101   0.851   4.367  0.00  0.00    -0.308 N 
ATOM     10  C   UNL     1      -2.365   1.102   3.063  0.00  0.00    +0.202 A 
ATOM     11  N   UNL     1      -1.448   0.559   2.342  0.00  0.00    -0.231 NA
ATOM     12  C   UNL     1      -0.495   0.025   3.159  0.00  0.00    +0.148 A 
ENDROOT
BRANCH   9  13
ATOM     13  C   UNL     1      -3.160   1.080   5.310  0.00  0.00    +0.113 C 
ATOM     14  C   UNL     1      -4.350   0.225   4.940  0.00  0.00    -0.006 C 
ATOM     15  C   UNL     1      -4.461  -0.820   5.768  0.00  0.00    -0.023 C 
ATOM     16  C   UNL     1      -3.437  -0.774   6.866  0.00  0.00    +0.039 C 
ATOM     17  C   UNL     1      -2.878   0.656   6.734  0.00  0.00    +0.039 C 
BRANCH  16  18
ATOM     18  C   UNL     1      -2.388  -1.881   6.732  0.00  0.00    +0.163 C 
BRANCH  18  19
ATOM     19  O   UNL     1      -3.000  -3.152   6.945  0.00  0.00    -0.394 OA
ATOM     20  H   UNL     1      -3.534  -3.333   6.151  0.00  0.00    +0.209 HD
ENDBRANCH  18  19
ENDBRANCH  16  18
ENDBRANCH   9  13
BRANCH   1  21
ATOM     21  N   UNL     1       1.527  -0.817   1.200  0.00  0.00    -0.324 N 
ATOM     22  H   UNL     1       2.698  -0.998   1.137  0.00  0.00    +0.148 HD
BRANCH  21  24
ATOM     23  C   UNL     1      -0.029   0.883   0.000  0.00  0.00    +0.024 C 
ATOM     24  C   UNL     1       0.779  -0.417   0.000  0.00  0.00    +0.072 C 
ATOM     25  C   UNL     1      -0.751  -0.466   0.000  0.00  0.00    +0.024 C 
ENDBRANCH  21  24
ENDBRANCH   1  21
TORSDOF 5
REMARK  Name = 
REMARK  12 active torsions:
REMARK  status: ('A' for Active; 'I' for Inactive)
REMARK    1  A    between atoms: C_3  and  N_4
REMARK    2  A    between atoms: N_4  and  C_5
REMARK    3  A    between atoms: N_12  and  C_15
REMARK    4  A    between atoms: C_18  and  C_22
REMARK    5  A    between atoms: C_22  and  O_23
REMARK    6  A    between atoms: C_26  and  N_27
REMARK    7  A    between atoms: N_27  and  C_28
REMARK    8  A    between atoms: N_35  and  C_38
REMARK    9  A    between atoms: C_41  and  C_45
REMARK   10  A    between atoms: C_45  and  O_46
REMARK   11  A    between atoms: O_47  and  S_48
REMARK   12  A    between atoms: S_48  and  O_51
REMARK                            x       y       z     vdW  Elec       q    Type
REMARK                         _______ _______ _______ _____ _____    ______ ____
ROOT
ATOM      1  S   UNL     1       3.431   2.855  -1.078  0.00  0.00    +0.205 S 
ATOM      2  O   UNL     1       3.566   2.976   0.350  0.00  0.00    -0.118 OA
ATOM      3  O   UNL     1       4.214   3.619  -2.013  0.00  0.00    -0.118 OA
ENDROOT
BRANCH   1   4
ATOM      4  O   UNL     1       1.888   3.164  -1.359  0.00  0.00    -0.231 OA
ATOM      5  H   UNL     1       1.493   3.440  -0.506  0.00  0.00    +0.247 HD
ENDBRANCH   1   4
BRANCH   1   6
ATOM      6  O   UNL     1       3.523   1.300  -1.463  0.00  0.00    -0.231 OA
ATOM      7  H   UNL     1       2.621   0.954  -1.598  0.00  0.00    +0.247 HD
ENDBRANCH   1   6
TORSDOF 2
