REMARK  Name = 
REMARK  5 active torsions:
REMARK  status: ('A' for Active; 'I' for Inactive)
REMARK    1  A    between atoms: C_3  and  N_4
REMARK    2  A    between atoms: N_4  and  C_5
REMARK    3  A    between atoms: N_12  and  C_15
REMARK    4  A    between atoms: C_18  and  C_22
REMARK    5  A    between atoms: C_22  and  O_23
REMARK                            x       y       z     vdW  Elec       q    Type
REMARK                         _______ _______ _______ _____ _____    ______ ____
ROOT
ATOM      1  C   UNL     1       2.933  -0.700   1.167  0.00  0.00    +0.152 A 
ATOM      2  N   UNL     1       3.618   0.474   1.101  0.00  0.00    -0.198 NA
ATOM      3  C   UNL     1       4.959   0.458   1.047  0.00  0.00    +0.216 A 
ATOM      4  N   UNL     1       5.579   1.692   0.987  0.00  0.00    -0.327 N 
ATOM      5  H   UNL     1       4.952   2.391   1.362  0.00  0.00    +0.145 HD
ATOM      6  H   UNL     1       6.504   1.634   1.389  0.00  0.00    +0.145 HD
ATOM      7  N   UNL     1       5.755  -0.622   1.083  0.00  0.00    -0.195 NA
ATOM      8  C   UNL     1       5.052  -1.764   1.144  0.00  0.00    +0.168 A 
ATOM      9  N   UNL     1       5.530  -3.052   1.188  0.00  0.00    -0.308 N 
ATOM     10  C   UNL     1       4.439  -3.882   1.188  0.00  0.00    +0.202 A 
ATOM     11  N   UNL     1       3.304  -3.214   1.201  0.00  0.00    -0.231 NA
ATOM     12  C   UNL     1       3.678  -1.889   1.181  0.00  0.00    +0.148 A 
ENDROOT
BRANCH   9  13
ATOM     13  C   UNL     1       6.939  -3.406   1.197  0.00  0.00    +0.113 C 
ATOM     14  C   UNL     1       7.617  -2.942   2.460  0.00  0.00    -0.006 C 
ATOM     15  C   UNL     1       7.960  -3.954   3.265  0.00  0.00    -0.023 C 
ATOM     16  C   UNL     1       7.582  -5.278   2.678  0.00  0.00    +0.039 C 
ATOM     17  C   UNL     1       7.295  -4.907   1.207  0.00  0.00    +0.039 C 
BRANCH  16  18
ATOM     18  C   UNL     1       6.396  -5.919   3.401  0.00  0.00    +0.163 C 
BRANCH  18  19
ATOM     19  O   UNL     1       6.000  -7.114   2.736  0.00  0.00    -0.394 OA
ATOM     20  H   UNL     1       6.698  -7.775   2.885  0.00  0.00    +0.209 HD
ENDBRANCH  18  19
ENDBRANCH  16  18
ENDBRANCH   9  13
BRANCH   1  21
ATOM     21  N   UNL     1       1.524  -0.728   1.193  0.00  0.00    -0.324 N 
ATOM     22  H   UNL     1       1.204  -1.681   1.025  0.00  0.00    +0.148 HD
BRANCH  21  24
ATOM     23  C   UNL     1       0.130   1.425   1.426  0.00  0.00    +0.024 C 
ATOM     24  C   UNL     1       0.797   0.378   0.582  0.00  0.00    +0.072 C 
ATOM     25  C   UNL     1      -0.702   0.434   0.666  0.00  0.00    +0.024 C 
ENDBRANCH  21  24
ENDBRANCH   1  21
TORSDOF 5
