REMARK  Name = 
REMARK  16 active torsions:
REMARK  status: ('A' for Active; 'I' for Inactive)
REMARK    1  A    between atoms: C_1  and  C_2
REMARK    2  A    between atoms: C_2  and  C_3
REMARK    3  A    between atoms: C_2  and  C_4
REMARK    4  A    between atoms: C_4  and  N_5
REMARK    5  A    between atoms: N_5  and  C_6
REMARK    6  A    between atoms: N_5  and  S_29
REMARK    7  A    between atoms: C_6  and  C_7
REMARK    8  A    between atoms: C_7  and  C_9
REMARK    9  A    between atoms: C_7  and  O_28
REMARK   10  A    between atoms: C_9  and  C_11
REMARK   11  A    between atoms: C_9  and  N_18
REMARK   12  A    between atoms: C_11  and  C_12
REMARK   13  A    between atoms: C_19  and  O_21
REMARK   14  A    between atoms: O_21  and  C_22
REMARK   15  A    between atoms: S_29  and  C_32
REMARK   16  A    between atoms: C_35  and  N_38
REMARK                            x       y       z     vdW  Elec       q    Type
REMARK                         _______ _______ _______ _____ _____    ______ ____
ROOT
ATOM      1  C   UNL     1       1.763   1.562   1.966  0.00  0.00    +0.151 C 
ENDROOT
BRANCH   1   2
ATOM      2  O   UNL     1       1.906   0.143   2.260  0.00  0.00    -0.389 OA
ATOM      3  H   UNL     1       1.645   0.033   3.190  0.00  0.00    +0.210 HD
ENDBRANCH   1   2
BRANCH   1   4
ATOM      4  C   UNL     1       2.825   2.327   2.788  0.00  0.00    +0.142 C 
BRANCH   4   5
ATOM      5  N   UNL     1       2.643   2.179   4.287  0.00  0.00    -0.174 NA
BRANCH   5   6
ATOM      6  S   UNL     1       2.244   3.577   5.199  0.00  0.00    +0.061 S 
ATOM      7  O   UNL     1       2.760   4.732   4.510  0.00  0.00    -0.153 OA
ATOM      8  O   UNL     1       2.573   3.326   6.590  0.00  0.00    -0.153 OA
BRANCH   6   9
ATOM      9  C   UNL     1       0.456   3.731   5.122  0.00  0.00    +0.106 A 
ATOM     10  C   UNL     1      -0.174   3.941   3.896  0.00  0.00    +0.030 A 
ATOM     11  C   UNL     1      -1.560   4.141   3.844  0.00  0.00    +0.024 A 
ATOM     12  C   UNL     1      -2.334   4.141   5.008  0.00  0.00    +0.025 A 
ATOM     13  C   UNL     1      -1.676   4.052   6.237  0.00  0.00    +0.024 A 
ATOM     14  C   UNL     1      -0.293   3.823   6.301  0.00  0.00    +0.030 A 
BRANCH  12  15
ATOM     15  N   UNL     1      -3.688   4.479   4.949  0.00  0.00    -0.358 N 
ATOM     16  H   UNL     1      -4.143   4.240   4.072  0.00  0.00    +0.142 HD
ATOM     17  H   UNL     1      -4.233   4.175   5.752  0.00  0.00    +0.142 HD
ENDBRANCH  12  15
ENDBRANCH   6   9
ENDBRANCH   5   6
BRANCH   5  18
ATOM     18  C   UNL     1       3.066   0.938   5.038  0.00  0.00    +0.112 C 
BRANCH  18  20
ATOM     19  C   UNL     1       5.613   0.651   4.925  0.00  0.00    +0.008 C 
ATOM     20  C   UNL     1       4.252   0.139   4.440  0.00  0.00    -0.001 C 
ATOM     21  C   UNL     1       4.150  -1.361   4.761  0.00  0.00    +0.008 C 
ENDBRANCH  18  20
ENDBRANCH   5  18
ENDBRANCH   4   5
ENDBRANCH   1   4
BRANCH   1  22
ATOM     22  C   UNL     1       1.807   1.702   0.370  0.00  0.00    +0.110 C 
BRANCH  22  23
ATOM     23  N   UNL     1       1.081   0.477  -0.060  0.00  0.00    -0.275 N 
ATOM     24  H   UNL     1       1.117  -0.241   0.661  0.00  0.00    +0.152 HD
ATOM     25  C   UNL     1       1.091  -0.141  -1.262  0.00  0.00    +0.401 C 
ATOM     26  O   UNL     1       1.299   0.376  -2.345  0.00  0.00    -0.226 OA
BRANCH  25  27
ATOM     27  O   UNL     1       0.906  -1.477  -1.077  0.00  0.00    -0.445 OA
BRANCH  27  28
ATOM     28  C   UNL     1       1.090  -2.264  -2.258  0.00  0.00    +0.206 C 
ATOM     29  C   UNL     1      -0.036  -2.126  -3.272  0.00  0.00    +0.204 C 
ATOM     30  O   UNL     1      -0.089  -3.356  -4.014  0.00  0.00    -0.376 OA
ATOM     31  C   UNL     1       0.720  -4.323  -3.332  0.00  0.00    +0.163 C 
ATOM     32  C   UNL     1       1.031  -3.750  -1.965  0.00  0.00    +0.075 C 
ENDBRANCH  27  28
ENDBRANCH  25  27
ENDBRANCH  22  23
BRANCH  22  33
ATOM     33  C   UNL     1       1.204   3.074  -0.125  0.00  0.00    +0.060 C 
BRANCH  33  34
ATOM     34  C   UNL     1       1.442   3.734  -1.493  0.00  0.00    -0.046 A 
ATOM     35  C   UNL     1       0.887   5.023  -1.718  0.00  0.00    +0.004 A 
ATOM     36  C   UNL     1       1.019   5.699  -2.942  0.00  0.00    +0.000 A 
ATOM     37  C   UNL     1       1.702   5.105  -3.991  0.00  0.00    +0.000 A 
ATOM     38  C   UNL     1       2.270   3.844  -3.799  0.00  0.00    +0.000 A 
ATOM     39  C   UNL     1       2.155   3.183  -2.556  0.00  0.00    +0.004 A 
ENDBRANCH  33  34
ENDBRANCH  22  33
ENDBRANCH   1  22
TORSDOF 14
