REMARK  Name = 
REMARK  27 active torsions:
REMARK  status: ('A' for Active; 'I' for Inactive)
REMARK    1  A    between atoms: C_1  and  C_2
REMARK    2  A    between atoms: C_2  and  C_3
REMARK    3  A    between atoms: C_2  and  C_4
REMARK    4  A    between atoms: C_2  and  C_5
REMARK    5  A    between atoms: C_5  and  C_7
REMARK    6  A    between atoms: C_5  and  N_50
REMARK    7  A    between atoms: N_9  and  N_10
REMARK    8  A    between atoms: N_10  and  C_11
REMARK    9  A    between atoms: N_10  and  C_24
REMARK   10  A    between atoms: C_11  and  C_12
REMARK   11  A    between atoms: C_15  and  C_18
REMARK   12  A    between atoms: C_24  and  C_25
REMARK   13  A    between atoms: C_25  and  C_27
REMARK   14  A    between atoms: C_25  and  O_49
REMARK   15  A    between atoms: C_27  and  C_29
REMARK   16  A    between atoms: C_27  and  N_36
REMARK   17  A    between atoms: C_29  and  C_30
REMARK   18  A    between atoms: C_37  and  C_39
REMARK   19  A    between atoms: C_39  and  C_40
REMARK   20  A    between atoms: C_39  and  N_44
REMARK   21  A    between atoms: C_40  and  C_41
REMARK   22  A    between atoms: C_40  and  C_42
REMARK   23  A    between atoms: C_40  and  C_43
REMARK   24  A    between atoms: C_45  and  O_47
REMARK   25  A    between atoms: O_47  and  C_48
REMARK   26  A    between atoms: C_51  and  O_53
REMARK   27  A    between atoms: O_53  and  C_54
REMARK                            x       y       z     vdW  Elec       q    Type
REMARK                         _______ _______ _______ _____ _____    ______ ____
ROOT
ATOM      1  N   UNL     1      -0.706   3.624   0.979  0.00  0.00    -0.220 NA
ENDROOT
BRANCH   1   3
ATOM      2  C   UNL     1       0.281   1.674  -0.185  0.00  0.00    +0.248 C 
ATOM      3  N   UNL     1       0.303   3.031   0.147  0.00  0.00    -0.246 N 
ATOM      4  H   UNL     1       1.053   3.624  -0.212  0.00  0.00    +0.169 HD
ATOM      5  O   UNL     1      -0.551   0.866   0.234  0.00  0.00    -0.272 OA
BRANCH   2   6
ATOM      6  C   UNL     1       1.359   1.234  -1.208  0.00  0.00    +0.169 C 
BRANCH   6   7
ATOM      7  N   UNL     1       1.593  -0.194  -0.962  0.00  0.00    -0.269 N 
ATOM      8  H   UNL     1       0.772  -0.788  -0.939  0.00  0.00    +0.153 HD
ATOM      9  C   UNL     1       2.576  -0.658  -0.141  0.00  0.00    +0.401 C 
ATOM     10  O   UNL     1       3.529  -0.009   0.261  0.00  0.00    -0.226 OA
BRANCH   9  11
ATOM     11  O   UNL     1       2.305  -1.948   0.176  0.00  0.00    -0.454 OA
ATOM     12  C   UNL     1       3.235  -2.563   1.071  0.00  0.00    +0.282 C 
ENDBRANCH   9  11
ENDBRANCH   6   7
BRANCH   6  14
ATOM     13  C   UNL     1       0.690   3.017  -2.913  0.00  0.00    +0.013 C 
ATOM     14  C   UNL     1       0.862   1.504  -2.665  0.00  0.00    -0.011 C 
ATOM     15  C   UNL     1       1.892   0.982  -3.687  0.00  0.00    +0.013 C 
ATOM     16  C   UNL     1      -0.489   0.809  -2.939  0.00  0.00    +0.013 C 
ENDBRANCH   6  14
ENDBRANCH   2   6
ENDBRANCH   1   3
BRANCH   1  17
ATOM     17  C   UNL     1      -0.533   5.108   1.058  0.00  0.00    +0.139 C 
BRANCH  17  18
ATOM     18  C   UNL     1      -1.653   5.901   1.810  0.00  0.00    +0.151 C 
BRANCH  18  19
ATOM     19  O   UNL     1      -2.915   5.648   1.178  0.00  0.00    -0.389 OA
ATOM     20  H   UNL     1      -2.976   4.684   1.046  0.00  0.00    +0.210 HD
ENDBRANCH  18  19
BRANCH  18  21
ATOM     21  C   UNL     1      -1.389   7.451   1.849  0.00  0.00    +0.107 C 
BRANCH  21  22
ATOM     22  N   UNL     1      -2.549   8.265   2.301  0.00  0.00    -0.308 N 
ATOM     23  H   UNL     1      -2.829   8.213   3.267  0.00  0.00    +0.149 HD
ATOM     24  C   UNL     1      -3.317   9.053   1.477  0.00  0.00    +0.234 C 
ATOM     25  O   UNL     1      -3.131   9.129   0.260  0.00  0.00    -0.274 OA
BRANCH  24  26
ATOM     26  C   UNL     1      -4.492   9.801   2.188  0.00  0.00    +0.167 C 
BRANCH  26  27
ATOM     27  C   UNL     1      -4.439  11.365   2.092  0.00  0.00    -0.011 C 
ATOM     28  C   UNL     1      -3.170  11.894   2.784  0.00  0.00    +0.013 C 
ATOM     29  C   UNL     1      -5.655  11.986   2.825  0.00  0.00    +0.013 C 
ATOM     30  C   UNL     1      -4.471  11.876   0.639  0.00  0.00    +0.013 C 
ENDBRANCH  26  27
BRANCH  26  31
ATOM     31  N   UNL     1      -5.712   9.276   1.594  0.00  0.00    -0.269 N 
ATOM     32  H   UNL     1      -5.794   9.258   0.581  0.00  0.00    +0.153 HD
ATOM     33  C   UNL     1      -6.696   8.671   2.294  0.00  0.00    +0.401 C 
ATOM     34  O   UNL     1      -6.706   8.509   3.508  0.00  0.00    -0.226 OA
BRANCH  33  35
ATOM     35  O   UNL     1      -7.680   8.300   1.440  0.00  0.00    -0.454 OA
ATOM     36  C   UNL     1      -8.823   7.720   2.061  0.00  0.00    +0.282 C 
ENDBRANCH  33  35
ENDBRANCH  26  31
ENDBRANCH  24  26
ENDBRANCH  21  22
BRANCH  21  37
ATOM     37  C   UNL     1      -0.134   7.829   2.681  0.00  0.00    +0.060 C 
BRANCH  37  38
ATOM     38  C   UNL     1      -0.154   7.674   4.194  0.00  0.00    -0.046 A 
ATOM     39  C   UNL     1       0.983   8.093   4.908  0.00  0.00    +0.004 A 
ATOM     40  C   UNL     1       1.012   8.057   6.304  0.00  0.00    +0.000 A 
ATOM     41  C   UNL     1      -0.095   7.605   7.015  0.00  0.00    +0.000 A 
ATOM     42  C   UNL     1      -1.217   7.159   6.329  0.00  0.00    +0.000 A 
ATOM     43  C   UNL     1      -1.236   7.179   4.934  0.00  0.00    +0.004 A 
ENDBRANCH  37  38
ENDBRANCH  21  37
ENDBRANCH  18  21
ENDBRANCH  17  18
ENDBRANCH   1  17
BRANCH   1  44
ATOM     44  C   UNL     1      -0.815   2.953   2.303  0.00  0.00    +0.140 C 
BRANCH  44  45
ATOM     45  C   UNL     1       0.370   3.108   3.231  0.00  0.00    -0.032 A 
ATOM     46  C   UNL     1       1.646   2.627   2.910  0.00  0.00    +0.005 A 
ATOM     47  C   UNL     1       2.745   2.932   3.715  0.00  0.00    +0.010 A 
ATOM     48  C   UNL     1       2.595   3.687   4.886  0.00  0.00    +0.000 A 
ATOM     49  C   UNL     1       1.290   4.037   5.269  0.00  0.00    +0.010 A 
ATOM     50  C   UNL     1       0.195   3.755   4.454  0.00  0.00    +0.005 A 
BRANCH  48  51
ATOM     51  C   UNL     1       3.765   4.196   5.619  0.00  0.00    +0.071 A 
ATOM     52  N   UNL     1       4.819   4.558   4.841  0.00  0.00    -0.255 NA
ATOM     53  C   UNL     1       5.844   5.207   5.430  0.00  0.00    +0.111 A 
ATOM     54  C   UNL     1       5.882   5.518   6.776  0.00  0.00    +0.020 A 
ATOM     55  C   UNL     1       4.823   5.107   7.574  0.00  0.00    +0.004 A 
ATOM     56  C   UNL     1       3.755   4.428   6.993  0.00  0.00    +0.028 A 
ENDBRANCH  48  51
ENDBRANCH  44  45
ENDBRANCH   1  44
TORSDOF 19
