REMARK  Name = 
REMARK  27 active torsions:
REMARK  status: ('A' for Active; 'I' for Inactive)
REMARK    1  A    between atoms: C_1  and  C_2
REMARK    2  A    between atoms: C_2  and  C_3
REMARK    3  A    between atoms: C_2  and  C_4
REMARK    4  A    between atoms: C_2  and  C_5
REMARK    5  A    between atoms: C_5  and  C_7
REMARK    6  A    between atoms: C_5  and  N_50
REMARK    7  A    between atoms: N_9  and  N_10
REMARK    8  A    between atoms: N_10  and  C_11
REMARK    9  A    between atoms: N_10  and  C_24
REMARK   10  A    between atoms: C_11  and  C_12
REMARK   11  A    between atoms: C_15  and  C_18
REMARK   12  A    between atoms: C_24  and  C_25
REMARK   13  A    between atoms: C_25  and  C_27
REMARK   14  A    between atoms: C_25  and  O_49
REMARK   15  A    between atoms: C_27  and  C_29
REMARK   16  A    between atoms: C_27  and  N_36
REMARK   17  A    between atoms: C_29  and  C_30
REMARK   18  A    between atoms: C_37  and  C_39
REMARK   19  A    between atoms: C_39  and  C_40
REMARK   20  A    between atoms: C_39  and  N_44
REMARK   21  A    between atoms: C_40  and  C_41
REMARK   22  A    between atoms: C_40  and  C_42
REMARK   23  A    between atoms: C_40  and  C_43
REMARK   24  A    between atoms: C_45  and  O_47
REMARK   25  A    between atoms: O_47  and  C_48
REMARK   26  A    between atoms: C_51  and  O_53
REMARK   27  A    between atoms: O_53  and  C_54
REMARK                            x       y       z     vdW  Elec       q    Type
REMARK                         _______ _______ _______ _____ _____    ______ ____
ROOT
ATOM      1  N   UNL     1      -3.534  -4.434   3.480  0.00  0.00    -0.220 NA
ENDROOT
BRANCH   1   3
ATOM      2  C   UNL     1      -5.858  -4.842   2.712  0.00  0.00    +0.248 C 
ATOM      3  N   UNL     1      -4.795  -3.970   2.939  0.00  0.00    -0.246 N 
ATOM      4  H   UNL     1      -4.899  -2.981   2.730  0.00  0.00    +0.169 HD
ATOM      5  O   UNL     1      -5.826  -6.050   2.957  0.00  0.00    -0.272 OA
BRANCH   2   6
ATOM      6  C   UNL     1      -7.147  -4.197   2.116  0.00  0.00    +0.169 C 
BRANCH   6   7
ATOM      7  N   UNL     1      -7.755  -5.237   1.276  0.00  0.00    -0.269 N 
ATOM      8  H   UNL     1      -7.941  -6.124   1.729  0.00  0.00    +0.153 HD
ATOM      9  C   UNL     1      -7.464  -5.403  -0.042  0.00  0.00    +0.401 C 
ATOM     10  O   UNL     1      -6.904  -4.590  -0.758  0.00  0.00    -0.226 OA
BRANCH   9  11
ATOM     11  O   UNL     1      -7.863  -6.644  -0.409  0.00  0.00    -0.454 OA
ATOM     12  C   UNL     1      -7.559  -7.030  -1.751  0.00  0.00    +0.282 C 
ENDBRANCH   9  11
ENDBRANCH   6   7
BRANCH   6  14
ATOM     13  C   UNL     1      -7.523  -2.610   4.084  0.00  0.00    +0.013 C 
ATOM     14  C   UNL     1      -8.150  -3.720   3.220  0.00  0.00    -0.011 C 
ATOM     15  C   UNL     1      -9.425  -3.141   2.565  0.00  0.00    +0.013 C 
ATOM     16  C   UNL     1      -8.582  -4.874   4.150  0.00  0.00    +0.013 C 
ENDBRANCH   6  14
ENDBRANCH   2   6
ENDBRANCH   1   3
BRANCH   1  17
ATOM     17  C   UNL     1      -2.844  -5.407   2.587  0.00  0.00    +0.140 C 
BRANCH  17  18
ATOM     18  C   UNL     1      -2.453  -4.857   1.229  0.00  0.00    -0.032 A 
ATOM     19  C   UNL     1      -3.374  -4.825   0.175  0.00  0.00    +0.005 A 
ATOM     20  C   UNL     1      -3.129  -4.042  -0.957  0.00  0.00    +0.010 A 
ATOM     21  C   UNL     1      -1.958  -3.272  -1.059  0.00  0.00    +0.000 A 
ATOM     22  C   UNL     1      -0.967  -3.470  -0.085  0.00  0.00    +0.010 A 
ATOM     23  C   UNL     1      -1.204  -4.263   1.037  0.00  0.00    +0.005 A 
BRANCH  21  24
ATOM     24  C   UNL     1      -1.830  -2.172  -2.036  0.00  0.00    +0.071 A 
ATOM     25  N   UNL     1      -1.176  -1.075  -1.564  0.00  0.00    -0.255 NA
ATOM     26  C   UNL     1      -1.182   0.045  -2.314  0.00  0.00    +0.111 A 
ATOM     27  C   UNL     1      -1.813   0.140  -3.539  0.00  0.00    +0.020 A 
ATOM     28  C   UNL     1      -2.448  -0.991  -4.035  0.00  0.00    +0.004 A 
ATOM     29  C   UNL     1      -2.452  -2.165  -3.282  0.00  0.00    +0.028 A 
ENDBRANCH  21  24
ENDBRANCH  17  18
ENDBRANCH   1  17
BRANCH   1  30
ATOM     30  C   UNL     1      -2.689  -3.282   3.908  0.00  0.00    +0.139 C 
BRANCH  30  31
ATOM     31  C   UNL     1      -1.293  -3.543   4.580  0.00  0.00    +0.151 C 
BRANCH  31  32
ATOM     32  O   UNL     1      -1.523  -4.313   5.771  0.00  0.00    -0.389 OA
ATOM     33  H   UNL     1      -0.667  -4.755   5.953  0.00  0.00    +0.210 HD
ENDBRANCH  31  32
BRANCH  31  34
ATOM     34  C   UNL     1      -0.572  -2.194   4.962  0.00  0.00    +0.107 C 
BRANCH  34  35
ATOM     35  N   UNL     1       0.504  -2.226   5.991  0.00  0.00    -0.308 N 
ATOM     36  H   UNL     1       0.766  -1.325   6.374  0.00  0.00    +0.149 HD
ATOM     37  C   UNL     1       1.270  -3.307   6.366  0.00  0.00    +0.234 C 
ATOM     38  O   UNL     1       1.157  -4.411   5.833  0.00  0.00    -0.274 OA
BRANCH  37  39
ATOM     39  C   UNL     1       2.315  -3.041   7.489  0.00  0.00    +0.167 C 
BRANCH  39  40
ATOM     40  N   UNL     1       3.608  -3.379   6.918  0.00  0.00    -0.269 N 
ATOM     41  H   UNL     1       3.744  -4.294   6.499  0.00  0.00    +0.153 HD
ATOM     42  C   UNL     1       4.634  -2.496   6.740  0.00  0.00    +0.401 C 
ATOM     43  O   UNL     1       4.620  -1.323   7.083  0.00  0.00    -0.226 OA
BRANCH  42  44
ATOM     44  O   UNL     1       5.664  -3.144   6.155  0.00  0.00    -0.454 OA
ATOM     45  C   UNL     1       6.845  -2.359   5.982  0.00  0.00    +0.282 C 
ENDBRANCH  42  44
ENDBRANCH  39  40
BRANCH  39  46
ATOM     46  C   UNL     1       2.029  -3.861   8.793  0.00  0.00    -0.011 C 
ATOM     47  C   UNL     1       0.641  -3.494   9.352  0.00  0.00    +0.013 C 
ATOM     48  C   UNL     1       3.077  -3.517   9.878  0.00  0.00    +0.013 C 
ATOM     49  C   UNL     1       2.082  -5.385   8.563  0.00  0.00    +0.013 C 
ENDBRANCH  39  46
ENDBRANCH  37  39
ENDBRANCH  34  35
BRANCH  34  50
ATOM     50  C   UNL     1      -0.197  -1.290   3.748  0.00  0.00    +0.060 C 
BRANCH  50  51
ATOM     51  C   UNL     1       1.053  -1.489   2.914  0.00  0.00    -0.046 A 
ATOM     52  C   UNL     1       1.312  -0.550   1.896  0.00  0.00    +0.004 A 
ATOM     53  C   UNL     1       2.513  -0.565   1.181  0.00  0.00    +0.000 A 
ATOM     54  C   UNL     1       3.478  -1.524   1.469  0.00  0.00    +0.000 A 
ATOM     55  C   UNL     1       3.212  -2.497   2.426  0.00  0.00    +0.000 A 
ATOM     56  C   UNL     1       2.000  -2.491   3.125  0.00  0.00    +0.004 A 
ENDBRANCH  50  51
ENDBRANCH  34  50
ENDBRANCH  31  34
ENDBRANCH  30  31
ENDBRANCH   1  30
TORSDOF 19
