REMARK  Name = 
REMARK  6 active torsions:
REMARK  status: ('A' for Active; 'I' for Inactive)
REMARK    1  A    between atoms: C_3  and  C_17
REMARK    2  A    between atoms: N_5  and  C1*_6
REMARK    3  A    between atoms: C2*_8  and  O2*_16
REMARK    4  A    between atoms: C3*_9  and  O3*_15
REMARK    5  A    between atoms: C4*_10  and  C5*_13
REMARK    6  A    between atoms: C5*_13  and  O5*_14
REMARK                            x       y       z     vdW  Elec       q    Type
REMARK                         _______ _______ _______ _____ _____    ______ ____
ROOT
ATOM      1  C1* UNL     1      -0.817  -2.516   0.050  0.00  0.00    +0.270 C 
ATOM      2  O4* UNL     1      -1.141  -2.952   1.390  0.00  0.00    -0.344 OA
ATOM      3  C4* UNL     1      -1.089  -4.403   1.376  0.00  0.00    +0.177 C 
ATOM      4  C3* UNL     1      -0.690  -4.817  -0.057  0.00  0.00    +0.178 C 
ATOM      5  C2* UNL     1       0.093  -3.601  -0.534  0.00  0.00    +0.196 C 
ENDROOT
BRANCH   1   7
ATOM      6  C   UNL     1      -0.944  -0.095  -0.523  0.00  0.00    +0.223 A 
ATOM      7  N   UNL     1      -0.316  -1.164   0.035  0.00  0.00    -0.220 N 
ATOM      8  N   UNL     1       0.892  -0.822   0.533  0.00  0.00    -0.142 NA
ATOM      9  C   UNL     1       0.907   0.510   0.316  0.00  0.00    +0.236 A 
ATOM     10  N   UNL     1      -0.210   0.979  -0.367  0.00  0.00    -0.211 NA
BRANCH   9  11
ATOM     11  C   UNL     1       1.984   1.428   0.729  0.00  0.00    +0.281 C 
ATOM     12  N   UNL     1       1.758   2.737   0.374  0.00  0.00    -0.323 N 
ATOM     13  H   UNL     1       2.428   3.442   0.639  0.00  0.00    +0.145 HD
ATOM     14  H   UNL     1       0.903   2.985  -0.110  0.00  0.00    +0.145 HD
ATOM     15  O   UNL     1       2.997   1.111   1.337  0.00  0.00    -0.267 OA
ENDBRANCH   9  11
ENDBRANCH   1   7
BRANCH   4  16
ATOM     16  O3* UNL     1      -1.841  -4.952  -0.912  0.00  0.00    -0.386 OA
ATOM     17  H3* UNL     1      -2.654  -4.866  -0.383  0.00  0.00    +0.210 HD
ENDBRANCH   4  16
BRANCH   5  18
ATOM     18  O2* UNL     1       1.406  -3.653   0.034  0.00  0.00    -0.385 OA
ATOM     19  H2* UNL     1       1.647  -2.747   0.332  0.00  0.00    +0.210 HD
ENDBRANCH   5  18
BRANCH   3  20
ATOM     20  C5* UNL     1      -0.127  -4.913   2.455  0.00  0.00    +0.190 C 
BRANCH  20  21
ATOM     21  O5* UNL     1      -0.137  -6.337   2.502  0.00  0.00    -0.392 OA
ATOM     22  H5* UNL     1       0.582  -6.655   1.926  0.00  0.00    +0.210 HD
ENDBRANCH  20  21
ENDBRANCH   3  20
TORSDOF 6
