REMARK  Name = 
REMARK  16 active torsions:
REMARK  status: ('A' for Active; 'I' for Inactive)
REMARK    1  A    between atoms: C_1  and  C_2
REMARK    2  A    between atoms: C_2  and  C_3
REMARK    3  A    between atoms: C_2  and  C_4
REMARK    4  A    between atoms: C_4  and  N_5
REMARK    5  A    between atoms: N_5  and  C_6
REMARK    6  A    between atoms: N_5  and  S_28
REMARK    7  A    between atoms: C_6  and  C_7
REMARK    8  A    between atoms: C_7  and  C_9
REMARK    9  A    between atoms: C_7  and  O_27
REMARK   10  A    between atoms: C_9  and  C_11
REMARK   11  A    between atoms: C_9  and  N_18
REMARK   12  A    between atoms: C_11  and  C_12
REMARK   13  A    between atoms: C_19  and  O_21
REMARK   14  A    between atoms: O_21  and  C_22
REMARK   15  A    between atoms: S_28  and  C_31
REMARK   16  A    between atoms: C_34  and  N_37
REMARK                            x       y       z     vdW  Elec       q    Type
REMARK                         _______ _______ _______ _____ _____    ______ ____
ROOT
ATOM      1  C   UNL     1       2.439  -1.431  -1.326  0.00  0.00    +0.151 C 
ENDROOT
BRANCH   1   2
ATOM      2  O   UNL     1       2.162  -0.191  -2.004  0.00  0.00    -0.389 OA
ATOM      3  H   UNL     1       2.102  -0.372  -2.958  0.00  0.00    +0.210 HD
ENDBRANCH   1   2
BRANCH   1   4
ATOM      4  C   UNL     1       1.170  -2.306  -1.460  0.00  0.00    +0.142 C 
BRANCH   4   5
ATOM      5  N   UNL     1       1.175  -3.696  -0.890  0.00  0.00    -0.174 NA
BRANCH   5   6
ATOM      6  S   UNL     1       2.356  -4.724  -1.599  0.00  0.00    +0.061 S 
ATOM      7  O   UNL     1       3.613  -4.408  -0.950  0.00  0.00    -0.153 OA
ATOM      8  O   UNL     1       2.224  -4.624  -3.037  0.00  0.00    -0.153 OA
BRANCH   6   9
ATOM      9  C   UNL     1       1.871  -6.367  -1.124  0.00  0.00    +0.106 A 
ATOM     10  C   UNL     1       2.647  -7.081  -0.208  0.00  0.00    +0.030 A 
ATOM     11  C   UNL     1       2.281  -8.385   0.143  0.00  0.00    +0.024 A 
ATOM     12  C   UNL     1       1.126  -8.971  -0.383  0.00  0.00    +0.025 A 
ATOM     13  C   UNL     1       0.405  -8.273  -1.358  0.00  0.00    +0.024 A 
ATOM     14  C   UNL     1       0.761  -6.968  -1.721  0.00  0.00    +0.030 A 
BRANCH  12  15
ATOM     15  N   UNL     1       0.841 -10.314  -0.118  0.00  0.00    -0.358 N 
ATOM     16  H   UNL     1       1.203 -10.651   0.770  0.00  0.00    +0.142 HD
ATOM     17  H   UNL     1      -0.133 -10.568  -0.254  0.00  0.00    +0.142 HD
ENDBRANCH  12  15
ENDBRANCH   6   9
ENDBRANCH   5   6
BRANCH   5  18
ATOM     18  C   UNL     1       1.002  -3.832   0.589  0.00  0.00    +0.112 C 
BRANCH  18  20
ATOM     19  C   UNL     1      -1.527  -3.571   0.809  0.00  0.00    +0.008 C 
ATOM     20  C   UNL     1      -0.158  -3.006   1.167  0.00  0.00    -0.001 C 
ATOM     21  C   UNL     1      -0.016  -2.857   2.683  0.00  0.00    +0.008 C 
ENDBRANCH  18  20
ENDBRANCH   5  18
ENDBRANCH   4   5
ENDBRANCH   1   4
BRANCH   1  22
ATOM     22  C   UNL     1       2.995  -1.111   0.104  0.00  0.00    +0.110 C 
BRANCH  22  23
ATOM     23  N   UNL     1       4.352  -0.573  -0.010  0.00  0.00    -0.275 N 
ATOM     24  H   UNL     1       5.102  -1.218  -0.221  0.00  0.00    +0.152 HD
ATOM     25  C   UNL     1       4.597   0.713  -0.378  0.00  0.00    +0.401 C 
ATOM     26  O   UNL     1       3.806   1.640  -0.354  0.00  0.00    -0.226 OA
BRANCH  25  27
ATOM     27  O   UNL     1       5.873   0.820  -0.826  0.00  0.00    -0.445 OA
BRANCH  27  28
ATOM     28  C   UNL     1       6.130   2.127  -1.320  0.00  0.00    +0.206 C 
ATOM     29  C   UNL     1       7.428   2.201  -2.097  0.00  0.00    +0.204 C 
ATOM     30  O   UNL     1       7.911   3.548  -1.961  0.00  0.00    -0.376 OA
ATOM     31  C   UNL     1       7.086   4.220  -0.994  0.00  0.00    +0.163 C 
ATOM     32  C   UNL     1       6.373   3.140  -0.222  0.00  0.00    +0.075 C 
ENDBRANCH  27  28
ENDBRANCH  25  27
ENDBRANCH  22  23
BRANCH  22  33
ATOM     33  C   UNL     1       2.065  -0.213   0.980  0.00  0.00    +0.060 C 
BRANCH  33  34
ATOM     34  C   UNL     1       2.282  -0.205   2.488  0.00  0.00    -0.046 A 
ATOM     35  C   UNL     1       1.361   0.508   3.278  0.00  0.00    +0.004 A 
ATOM     36  C   UNL     1       1.429   0.481   4.673  0.00  0.00    +0.000 A 
ATOM     37  C   UNL     1       2.429  -0.250   5.305  0.00  0.00    +0.000 A 
ATOM     38  C   UNL     1       3.375  -0.928   4.541  0.00  0.00    +0.000 A 
ATOM     39  C   UNL     1       3.308  -0.899   3.142  0.00  0.00    +0.004 A 
ENDBRANCH  33  34
ENDBRANCH  22  33
ENDBRANCH   1  22
TORSDOF 14
