REMARK  Name = 
REMARK  16 active torsions:
REMARK  status: ('A' for Active; 'I' for Inactive)
REMARK    1  A    between atoms: C_1  and  C_2
REMARK    2  A    between atoms: C_2  and  C_3
REMARK    3  A    between atoms: C_2  and  C_4
REMARK    4  A    between atoms: C_4  and  N_5
REMARK    5  A    between atoms: N_5  and  C_6
REMARK    6  A    between atoms: N_5  and  S_28
REMARK    7  A    between atoms: C_6  and  C_7
REMARK    8  A    between atoms: C_7  and  C_9
REMARK    9  A    between atoms: C_7  and  O_27
REMARK   10  A    between atoms: C_9  and  C_11
REMARK   11  A    between atoms: C_9  and  N_18
REMARK   12  A    between atoms: C_11  and  C_12
REMARK   13  A    between atoms: C_19  and  O_21
REMARK   14  A    between atoms: O_21  and  C_22
REMARK   15  A    between atoms: S_28  and  C_31
REMARK   16  A    between atoms: C_34  and  N_37
REMARK                            x       y       z     vdW  Elec       q    Type
REMARK                         _______ _______ _______ _____ _____    ______ ____
ROOT
ATOM      1  C   UNL     1       2.457  -1.281  -1.286  0.00  0.00    +0.151 C 
ENDROOT
BRANCH   1   2
ATOM      2  O   UNL     1       2.215   0.047  -1.792  0.00  0.00    -0.389 OA
ATOM      3  H   UNL     1       2.146  -0.005  -2.761  0.00  0.00    +0.210 HD
ENDBRANCH   1   2
BRANCH   1   4
ATOM      4  C   UNL     1       1.145  -2.080  -1.508  0.00  0.00    +0.142 C 
BRANCH   4   5
ATOM      5  N   UNL     1       1.113  -3.552  -1.188  0.00  0.00    -0.174 NA
BRANCH   5   6
ATOM      6  S   UNL     1       2.234  -4.456  -2.135  0.00  0.00    +0.061 S 
ATOM      7  O   UNL     1       3.528  -4.272  -1.507  0.00  0.00    -0.153 OA
ATOM      8  O   UNL     1       2.034  -4.090  -3.523  0.00  0.00    -0.153 OA
BRANCH   6   9
ATOM      9  C   UNL     1       1.778  -6.170  -1.973  0.00  0.00    +0.106 A 
ATOM     10  C   UNL     1       2.658  -7.061  -1.353  0.00  0.00    +0.030 A 
ATOM     11  C   UNL     1       2.348  -8.425  -1.297  0.00  0.00    +0.024 A 
ATOM     12  C   UNL     1       1.147  -8.909  -1.821  0.00  0.00    +0.025 A 
ATOM     13  C   UNL     1       0.320  -8.023  -2.521  0.00  0.00    +0.024 A 
ATOM     14  C   UNL     1       0.622  -6.654  -2.591  0.00  0.00    +0.030 A 
BRANCH  12  15
ATOM     15  N   UNL     1       0.902 -10.287  -1.855  0.00  0.00    -0.358 N 
ATOM     16  H   UNL     1       1.360 -10.808  -1.113  0.00  0.00    +0.142 HD
ATOM     17  H   UNL     1      -0.079 -10.533  -1.942  0.00  0.00    +0.142 HD
ENDBRANCH  12  15
ENDBRANCH   6   9
ENDBRANCH   5   6
BRANCH   5  18
ATOM     18  C   UNL     1       1.024  -3.921   0.257  0.00  0.00    +0.112 C 
BRANCH  18  20
ATOM     19  C   UNL     1      -1.482  -3.559   0.746  0.00  0.00    +0.008 C 
ATOM     20  C   UNL     1      -0.050  -3.145   1.052  0.00  0.00    -0.001 C 
ATOM     21  C   UNL     1       0.214  -3.233   2.555  0.00  0.00    +0.008 C 
ENDBRANCH  18  20
ENDBRANCH   5  18
ENDBRANCH   4   5
ENDBRANCH   1   4
BRANCH   1  22
ATOM     22  C   UNL     1       3.058  -1.165   0.166  0.00  0.00    +0.110 C 
BRANCH  22  23
ATOM     23  N   UNL     1       4.428  -0.622   0.066  0.00  0.00    -0.275 N 
ATOM     24  H   UNL     1       5.147  -1.229  -0.302  0.00  0.00    +0.152 HD
ATOM     25  C   UNL     1       4.673   0.707  -0.146  0.00  0.00    +0.401 C 
ATOM     26  O   UNL     1       3.913   1.631   0.084  0.00  0.00    -0.226 OA
BRANCH  25  27
ATOM     27  O   UNL     1       5.908   0.863  -0.680  0.00  0.00    -0.445 OA
BRANCH  27  28
ATOM     28  C   UNL     1       6.169   2.233  -0.977  0.00  0.00    +0.206 C 
ATOM     29  C   UNL     1       7.413   2.405  -1.828  0.00  0.00    +0.204 C 
ATOM     30  O   UNL     1       8.027   3.645  -1.435  0.00  0.00    -0.376 OA
ATOM     31  C   UNL     1       7.259   4.195  -0.354  0.00  0.00    +0.163 C 
ATOM     32  C   UNL     1       6.514   3.038   0.257  0.00  0.00    +0.075 C 
ENDBRANCH  27  28
ENDBRANCH  25  27
ENDBRANCH  22  23
BRANCH  22  33
ATOM     33  C   UNL     1       2.179  -0.369   1.169  0.00  0.00    +0.060 C 
BRANCH  33  34
ATOM     34  C   UNL     1       2.393  -0.518   2.669  0.00  0.00    -0.046 A 
ATOM     35  C   UNL     1       1.460   0.124   3.508  0.00  0.00    +0.004 A 
ATOM     36  C   UNL     1       1.496  -0.030   4.896  0.00  0.00    +0.000 A 
ATOM     37  C   UNL     1       2.476  -0.828   5.474  0.00  0.00    +0.000 A 
ATOM     38  C   UNL     1       3.436  -1.443   4.668  0.00  0.00    +0.000 A 
ATOM     39  C   UNL     1       3.399  -1.282   3.273  0.00  0.00    +0.004 A 
ENDBRANCH  33  34
ENDBRANCH  22  33
ENDBRANCH   1  22
TORSDOF 14
