REMARK  Name = 
REMARK  7 active torsions:
REMARK  status: ('A' for Active; 'I' for Inactive)
REMARK    1  A    between atoms: N_3  and  C_9
REMARK    2  A    between atoms: C_9  and  C_10
REMARK    3  A    between atoms: C_10  and  C_12
REMARK    4  A    between atoms: C_10  and  O_14
REMARK    5  A    between atoms: C_12  and  O_13
REMARK    6  A    between atoms: O_14  and  C_15
REMARK    7  A    between atoms: C_15  and  P_16
REMARK                            x       y       z     vdW  Elec       q    Type
REMARK                         _______ _______ _______ _____ _____    ______ ____
ROOT
ATOM      1  C   UNL     1       0.131  -2.565   0.141  0.00  0.00    +0.160 C 
ENDROOT
BRANCH   1  10
ATOM      2  C   UNL     1       0.590   0.637  -1.611  0.00  0.00    +0.061 A 
ATOM      3  C   UNL     1      -0.482   1.376  -0.926  0.00  0.00    +0.123 A 
ATOM      4  N   UNL     1      -0.834   2.626  -1.359  0.00  0.00    -0.343 N 
ATOM      5  H   UNL     1      -0.079   3.220  -1.668  0.00  0.00    +0.144 HD
ATOM      6  H   UNL     1      -1.459   3.072  -0.694  0.00  0.00    +0.144 HD
ATOM      7  N   UNL     1      -1.143   0.917   0.084  0.00  0.00    -0.178 NA
ATOM      8  C   UNL     1      -0.892  -0.359   0.539  0.00  0.00    +0.350 A 
ATOM      9  O   UNL     1      -1.543  -0.797   1.488  0.00  0.00    -0.244 OA
ATOM     10  N   UNL     1       0.074  -1.122  -0.123  0.00  0.00    -0.296 N 
ATOM     11  C   UNL     1       0.788  -0.611  -1.188  0.00  0.00    +0.094 A 
ENDBRANCH   1  10
BRANCH   1  12
ATOM     12  C   UNL     1       1.517  -3.179   0.470  0.00  0.00    +0.164 C 
BRANCH  12  13
ATOM     13  O   UNL     1       1.475  -4.619   0.483  0.00  0.00    -0.365 OA
BRANCH  13  14
ATOM     14  C   UNL     1       1.018  -5.138  -0.791  0.00  0.00    +0.229 C 
BRANCH  14  15
ATOM     15  P   UNL     1       1.207  -6.991  -1.074  0.00  0.00    +0.134 P 
ATOM     16  O   UNL     1       0.665  -7.643   0.193  0.00  0.00    -0.356 OA
ATOM     17  O   UNL     1       2.699  -7.166  -1.338  0.00  0.00    -0.356 OA
ATOM     18  O   UNL     1       0.323  -7.176  -2.312  0.00  0.00    -0.458 OA
ENDBRANCH  14  15
ENDBRANCH  13  14
ENDBRANCH  12  13
BRANCH  12  19
ATOM     19  C   UNL     1       2.043  -2.682   1.830  0.00  0.00    +0.189 C 
BRANCH  19  20
ATOM     20  O   UNL     1       2.317  -1.275   1.842  0.00  0.00    -0.392 OA
ATOM     21  H   UNL     1       2.843  -1.091   1.047  0.00  0.00    +0.210 HD
ENDBRANCH  19  20
ENDBRANCH  12  19
ENDBRANCH   1  12
TORSDOF 7
