REMARK  Name = 
REMARK  7 active torsions:
REMARK  status: ('A' for Active; 'I' for Inactive)
REMARK    1  A    between atoms: N_3  and  C_9
REMARK    2  A    between atoms: C_9  and  C_10
REMARK    3  A    between atoms: C_10  and  C_12
REMARK    4  A    between atoms: C_10  and  O_14
REMARK    5  A    between atoms: C_12  and  O_13
REMARK    6  A    between atoms: O_14  and  C_15
REMARK    7  A    between atoms: C_15  and  P_16
REMARK                            x       y       z     vdW  Elec       q    Type
REMARK                         _______ _______ _______ _____ _____    ______ ____
ROOT
ATOM      1  C   UNL     1       0.112  -2.522   0.180  0.00  0.00    +0.160 C 
ENDROOT
BRANCH   1  10
ATOM      2  C   UNL     1       0.619   0.630  -1.639  0.00  0.00    +0.061 A 
ATOM      3  C   UNL     1      -0.460   1.385  -0.982  0.00  0.00    +0.123 A 
ATOM      4  N   UNL     1      -0.811   2.622  -1.452  0.00  0.00    -0.343 N 
ATOM      5  H   UNL     1      -0.055   3.210  -1.770  0.00  0.00    +0.144 HD
ATOM      6  H   UNL     1      -1.444   3.083  -0.806  0.00  0.00    +0.144 HD
ATOM      7  N   UNL     1      -1.128   0.957   0.041  0.00  0.00    -0.178 NA
ATOM      8  C   UNL     1      -0.885  -0.309   0.533  0.00  0.00    +0.350 A 
ATOM      9  O   UNL     1      -1.532  -0.723   1.490  0.00  0.00    -0.244 OA
ATOM     10  N   UNL     1       0.080  -1.091  -0.117  0.00  0.00    -0.296 N 
ATOM     11  C   UNL     1       0.803  -0.610  -1.184  0.00  0.00    +0.094 A 
ENDBRANCH   1  10
BRANCH   1  12
ATOM     12  C   UNL     1       1.480  -3.150   0.536  0.00  0.00    +0.164 C 
BRANCH  12  13
ATOM     13  O   UNL     1       1.374  -4.584   0.648  0.00  0.00    -0.365 OA
BRANCH  13  14
ATOM     14  C   UNL     1       1.067  -5.171  -0.646  0.00  0.00    +0.229 C 
BRANCH  14  15
ATOM     15  P   UNL     1       0.875  -6.991  -0.649  0.00  0.00    +0.134 P 
ATOM     16  O   UNL     1       0.693  -8.711  -0.652  0.00  0.00    -0.356 OA
ATOM     17  O   UNL     1       2.414  -7.012  -0.868  0.00  0.00    -0.356 OA
ATOM     18  O   UNL     1      -0.071  -6.755  -1.862  0.00  0.00    -0.458 OA
ENDBRANCH  14  15
ENDBRANCH  13  14
ENDBRANCH  12  13
BRANCH  12  19
ATOM     19  C   UNL     1       2.022  -2.618   1.873  0.00  0.00    +0.189 C 
BRANCH  19  20
ATOM     20  O   UNL     1       2.318  -1.219   1.852  0.00  0.00    -0.392 OA
ATOM     21  H   UNL     1       2.873  -1.067   1.070  0.00  0.00    +0.210 HD
ENDBRANCH  19  20
ENDBRANCH  12  19
ENDBRANCH   1  12
TORSDOF 7
