REMARK  Name = 
REMARK  16 active torsions:
REMARK  status: ('A' for Active; 'I' for Inactive)
REMARK    1  A    between atoms: C_1  and  C_2
REMARK    2  A    between atoms: C_3  and  C_9
REMARK    3  A    between atoms: C_7  and  O_8
REMARK    4  A    between atoms: N_11  and  C_12
REMARK    5  A    between atoms: C_12  and  C_13
REMARK    6  A    between atoms: C_12  and  C_21
REMARK    7  A    between atoms: C_13  and  S_14
REMARK    8  A    between atoms: S_14  and  C_15
REMARK    9  A    between atoms: C_21  and  C_22
REMARK   10  A    between atoms: C_21  and  O_40
REMARK   11  A    between atoms: C_22  and  N_23
REMARK   12  A    between atoms: C_32  and  C_33
REMARK   13  A    between atoms: N_35  and  C_36
REMARK   14  A    between atoms: C_36  and  C_37
REMARK   15  A    between atoms: C_36  and  C_38
REMARK   16  A    between atoms: C_36  and  C_39
REMARK                            x       y       z     vdW  Elec       q    Type
REMARK                         _______ _______ _______ _____ _____    ______ ____
ROOT
ATOM      1  C   UNL     1      -1.685   5.454   0.290  0.00  0.00    +0.113 C 
ENDROOT
BRANCH   1   3
ATOM      2  C   UNL     1      -1.071   7.195   2.199  0.00  0.00    +0.245 C 
ATOM      3  N   UNL     1      -0.789   6.471   1.040  0.00  0.00    -0.305 N 
ATOM      4  H   UNL     1      -0.122   6.891   0.415  0.00  0.00    +0.149 HD
ATOM      5  O   UNL     1      -1.975   6.816   2.943  0.00  0.00    -0.270 OA
BRANCH   2  12
ATOM      6  C   UNL     1       0.881   9.200   0.341  0.00  0.00    +0.048 C 
ATOM      7  C   UNL     1       0.432   9.443   1.749  0.00  0.00    +0.003 A 
ATOM      8  C   UNL     1       0.806  10.725   2.274  0.00  0.00    +0.120 A 
ATOM      9  C   UNL     1       0.746  11.024   3.624  0.00  0.00    +0.046 A 
ATOM     10  C   UNL     1       0.214  10.068   4.468  0.00  0.00    +0.004 A 
ATOM     11  C   UNL     1      -0.336   8.874   3.942  0.00  0.00    +0.013 A 
ATOM     12  C   UNL     1      -0.273   8.516   2.569  0.00  0.00    +0.043 A 
BRANCH   8  13
ATOM     13  O   UNL     1       1.266  11.705   1.420  0.00  0.00    -0.506 OA
ATOM     14  H   UNL     1       1.117  12.573   1.835  0.00  0.00    +0.292 HD
ENDBRANCH   8  13
ENDBRANCH   2  12
ENDBRANCH   1   3
BRANCH   1  15
ATOM     15  C   UNL     1      -1.173   3.906   0.182  0.00  0.00    +0.149 C 
BRANCH  15  16
ATOM     16  O   UNL     1      -1.608   3.335  -1.079  0.00  0.00    -0.389 OA
ATOM     17  H   UNL     1      -2.457   2.904  -0.944  0.00  0.00    +0.210 HD
ENDBRANCH  15  16
BRANCH  15  18
ATOM     18  C   UNL     1      -1.662   2.888   1.277  0.00  0.00    +0.118 C 
BRANCH  18  19
ATOM     19  N   UNL     1      -1.079   1.516   1.317  0.00  0.00    -0.289 NA
ATOM     20  C   UNL     1       0.085   1.334   2.191  0.00  0.00    +0.143 C 
ATOM     21  C   UNL     1       1.330   0.937   1.368  0.00  0.00    +0.032 C 
ATOM     22  C   UNL     1       1.110  -0.374   0.622  0.00  0.00    -0.005 C 
ATOM     23  C   UNL     1      -0.080  -0.236  -0.342  0.00  0.00    +0.006 C 
ATOM     24  C   UNL     1      -0.381  -1.653  -0.906  0.00  0.00    +0.005 C 
ATOM     25  C   UNL     1       0.847  -2.335  -1.547  0.00  0.00    +0.000 C 
ATOM     26  C   UNL     1       2.096  -2.284  -0.669  0.00  0.00    +0.000 C 
ATOM     27  C   UNL     1       2.351  -0.869  -0.146  0.00  0.00    +0.004 C 
ATOM     28  C   UNL     1      -1.324   0.449   0.333  0.00  0.00    +0.089 C 
BRANCH  20  29
ATOM     29  C   UNL     1      -0.219   0.378   3.423  0.00  0.00    +0.231 C 
ATOM     30  N   UNL     1      -1.539   0.279   3.856  0.00  0.00    -0.309 N 
ATOM     31  H   UNL     1      -2.190   0.824   3.302  0.00  0.00    +0.149 HD
ATOM     32  O   UNL     1       0.706  -0.151   4.040  0.00  0.00    -0.274 OA
BRANCH  30  33
ATOM     33  C   UNL     1      -1.977  -0.147   5.225  0.00  0.00    +0.026 C 
ATOM     34  C   UNL     1      -1.508  -1.560   5.634  0.00  0.00    +0.031 C 
ATOM     35  C   UNL     1      -3.530  -0.186   5.312  0.00  0.00    +0.031 C 
ATOM     36  C   UNL     1      -1.470   0.861   6.270  0.00  0.00    +0.031 C 
ENDBRANCH  30  33
ENDBRANCH  20  29
ENDBRANCH  18  19
ENDBRANCH  15  18
ENDBRANCH   1  15
BRANCH   1  37
ATOM     37  C   UNL     1      -1.836   6.035  -1.167  0.00  0.00    +0.099 C 
BRANCH  37  38
ATOM     38  S   UNL     1      -0.159   6.429  -1.847  0.00  0.00    -0.123 S 
BRANCH  38  39
ATOM     39  C   UNL     1      -0.581   7.258  -3.352  0.00  0.00    +0.008 A 
ATOM     40  C   UNL     1      -1.028   6.522  -4.449  0.00  0.00    +0.015 A 
ATOM     41  C   UNL     1      -1.280   7.159  -5.663  0.00  0.00    +0.001 A 
ATOM     42  C   UNL     1      -1.085   8.535  -5.785  0.00  0.00    +0.000 A 
ATOM     43  C   UNL     1      -0.630   9.274  -4.695  0.00  0.00    +0.001 A 
ATOM     44  C   UNL     1      -0.372   8.635  -3.482  0.00  0.00    +0.015 A 
ENDBRANCH  38  39
ENDBRANCH  37  38
ENDBRANCH   1  37
TORSDOF 12
