REMARK  Name = 
REMARK  16 active torsions:
REMARK  status: ('A' for Active; 'I' for Inactive)
REMARK    1  A    between atoms: C_1  and  C_2
REMARK    2  A    between atoms: C_3  and  C_9
REMARK    3  A    between atoms: C_7  and  O_8
REMARK    4  A    between atoms: N_11  and  C_12
REMARK    5  A    between atoms: C_12  and  C_13
REMARK    6  A    between atoms: C_12  and  C_21
REMARK    7  A    between atoms: C_13  and  S_14
REMARK    8  A    between atoms: S_14  and  C_15
REMARK    9  A    between atoms: C_21  and  C_22
REMARK   10  A    between atoms: C_21  and  O_40
REMARK   11  A    between atoms: C_22  and  N_23
REMARK   12  A    between atoms: C_32  and  C_33
REMARK   13  A    between atoms: N_35  and  C_36
REMARK   14  A    between atoms: C_36  and  C_37
REMARK   15  A    between atoms: C_36  and  C_38
REMARK   16  A    between atoms: C_36  and  C_39
REMARK                            x       y       z     vdW  Elec       q    Type
REMARK                         _______ _______ _______ _____ _____    ______ ____
ROOT
ATOM      1  C   UNL     1      -2.149   4.964   0.478  0.00  0.00    +0.113 C 
ENDROOT
BRANCH   1   3
ATOM      2  C   UNL     1      -1.838   6.689   2.662  0.00  0.00    +0.245 C 
ATOM      3  N   UNL     1      -1.642   6.009   1.472  0.00  0.00    -0.305 N 
ATOM      4  H   UNL     1      -0.919   6.570   1.026  0.00  0.00    +0.149 HD
ATOM      5  O   UNL     1      -1.124   7.712   2.677  0.00  0.00    -0.270 OA
BRANCH   2  12
ATOM      6  C   UNL     1      -4.012   4.383   3.485  0.00  0.00    +0.048 C 
ATOM      7  C   UNL     1      -3.368   5.364   4.402  0.00  0.00    +0.003 A 
ATOM      8  C   UNL     1      -3.677   5.235   5.790  0.00  0.00    +0.120 A 
ATOM      9  C   UNL     1      -3.536   6.280   6.691  0.00  0.00    +0.046 A 
ATOM     10  C   UNL     1      -3.007   7.468   6.224  0.00  0.00    +0.004 A 
ATOM     11  C   UNL     1      -2.510   7.529   4.907  0.00  0.00    +0.013 A 
ATOM     12  C   UNL     1      -2.624   6.464   3.955  0.00  0.00    +0.043 A 
BRANCH   8  13
ATOM     13  O   UNL     1      -4.153   4.034   6.254  0.00  0.00    -0.506 OA
ATOM     14  H   UNL     1      -4.029   4.008   7.220  0.00  0.00    +0.292 HD
ENDBRANCH   8  13
ENDBRANCH   2  12
ENDBRANCH   1   3
BRANCH   1  15
ATOM     15  C   UNL     1      -1.254   3.633   0.428  0.00  0.00    +0.149 C 
BRANCH  15  16
ATOM     16  O   UNL     1      -1.295   2.986  -0.853  0.00  0.00    -0.389 OA
ATOM     17  H   UNL     1      -2.232   2.908  -1.131  0.00  0.00    +0.210 HD
ENDBRANCH  15  16
BRANCH  15  18
ATOM     18  C   UNL     1      -1.688   2.577   1.470  0.00  0.00    +0.118 C 
BRANCH  18  19
ATOM     19  N   UNL     1      -1.030   1.265   1.495  0.00  0.00    -0.289 NA
ATOM     20  C   UNL     1       0.175   1.158   2.312  0.00  0.00    +0.143 C 
ATOM     21  C   UNL     1       1.409   0.832   1.451  0.00  0.00    +0.032 C 
ATOM     22  C   UNL     1       1.213  -0.473   0.685  0.00  0.00    -0.005 C 
ATOM     23  C   UNL     1       0.003  -0.349  -0.254  0.00  0.00    +0.006 C 
ATOM     24  C   UNL     1      -0.271  -1.751  -0.857  0.00  0.00    +0.005 C 
ATOM     25  C   UNL     1       0.961  -2.386  -1.526  0.00  0.00    +0.000 C 
ATOM     26  C   UNL     1       2.214  -2.333  -0.654  0.00  0.00    +0.000 C 
ATOM     27  C   UNL     1       2.453  -0.924  -0.108  0.00  0.00    +0.004 C 
ATOM     28  C   UNL     1      -1.249   0.240   0.471  0.00  0.00    +0.089 C 
BRANCH  20  29
ATOM     29  C   UNL     1      -0.063   0.187   3.550  0.00  0.00    +0.231 C 
ATOM     30  N   UNL     1      -1.387   0.049   3.977  0.00  0.00    -0.309 N 
ATOM     31  H   UNL     1      -2.048   0.562   3.416  0.00  0.00    +0.149 HD
ATOM     32  O   UNL     1       0.885  -0.264   4.178  0.00  0.00    -0.274 OA
BRANCH  30  33
ATOM     33  C   UNL     1      -1.811  -0.410   5.337  0.00  0.00    +0.026 C 
ATOM     34  C   UNL     1      -1.260  -1.793   5.745  0.00  0.00    +0.031 C 
ATOM     35  C   UNL     1      -3.354  -0.535   5.421  0.00  0.00    +0.031 C 
ATOM     36  C   UNL     1      -1.359   0.632   6.372  0.00  0.00    +0.031 C 
ENDBRANCH  30  33
ENDBRANCH  20  29
ENDBRANCH  18  19
ENDBRANCH  15  18
ENDBRANCH   1  15
BRANCH   1  37
ATOM     37  C   UNL     1      -2.166   5.638  -0.977  0.00  0.00    +0.099 C 
BRANCH  37  38
ATOM     38  S   UNL     1      -3.033   4.635  -2.289  0.00  0.00    -0.123 S 
BRANCH  38  39
ATOM     39  C   UNL     1      -2.540   5.413  -3.830  0.00  0.00    +0.008 A 
ATOM     40  C   UNL     1      -3.291   6.504  -4.271  0.00  0.00    +0.015 A 
ATOM     41  C   UNL     1      -3.101   7.043  -5.547  0.00  0.00    +0.001 A 
ATOM     42  C   UNL     1      -2.150   6.498  -6.406  0.00  0.00    +0.000 A 
ATOM     43  C   UNL     1      -1.394   5.405  -5.987  0.00  0.00    +0.001 A 
ATOM     44  C   UNL     1      -1.592   4.857  -4.707  0.00  0.00    +0.015 A 
ENDBRANCH  38  39
ENDBRANCH  37  38
ENDBRANCH   1  37
TORSDOF 12
