REMARK  Name = 
REMARK  1 active torsions:
REMARK  status: ('A' for Active; 'I' for Inactive)
REMARK    1  A    between atoms: C_1  and  P_4
REMARK                            x       y       z     vdW  Elec       q    Type
REMARK                         _______ _______ _______ _____ _____    ______ ____
ROOT
ATOM      1  P   UNL     1       2.894   0.077   0.001  0.00  0.00    +0.153 P 
ATOM      2  O   UNL     1       4.624   0.077   0.001  0.00  0.00    -0.353 OA
ATOM      3  O   UNL     1       2.781   1.255  -1.005  0.00  0.00    -0.353 OA
ATOM      4  O   UNL     1       2.852  -1.226  -0.874  0.00  0.00    -0.455 OA
ENDROOT
BRANCH   1   5
ATOM      5  C   UNL     1       1.064   0.077   0.001  0.00  0.00    +0.102 C 
ATOM      6  O   UNL     1       0.384   0.086   1.099  0.00  0.00    -0.542 OA
ATOM      7  O   UNL     1       0.359   0.038  -1.105  0.00  0.00    -0.542 OA
ENDBRANCH   1   5
TORSDOF 1
REMARK  Name = 
REMARK  1 active torsions:
REMARK  status: ('A' for Active; 'I' for Inactive)
REMARK    1  A    between atoms: C_1  and  P_4
REMARK                            x       y       z     vdW  Elec       q    Type
REMARK                         _______ _______ _______ _____ _____    ______ ____
ROOT
ATOM      1 NA   UNL     1      -1.423   0.130   0.121  0.00  0.00    +0.000 Na
ENDROOT
TORSDOF 0
REMARK  Name = 
REMARK  1 active torsions:
REMARK  status: ('A' for Active; 'I' for Inactive)
REMARK    1  A    between atoms: C_1  and  P_4
REMARK                            x       y       z     vdW  Elec       q    Type
REMARK                         _______ _______ _______ _____ _____    ______ ____
ROOT
ATOM      1 NA   UNL     1       4.869  -1.595  -0.837  0.00  0.00    +0.000 Na
ENDROOT
TORSDOF 0
REMARK  Name = 
REMARK  1 active torsions:
REMARK  status: ('A' for Active; 'I' for Inactive)
REMARK    1  A    between atoms: C_1  and  P_4
REMARK                            x       y       z     vdW  Elec       q    Type
REMARK                         _______ _______ _______ _____ _____    ______ ____
ROOT
ATOM      1 NA   UNL     1       2.132   0.166  -2.507  0.00  0.00    +0.000 Na
ENDROOT
TORSDOF 0
