REMARK  Name = 
REMARK  1 active torsions:
REMARK  status: ('A' for Active; 'I' for Inactive)
REMARK    1  A    between atoms: C_1  and  P_4
REMARK                            x       y       z     vdW  Elec       q    Type
REMARK                         _______ _______ _______ _____ _____    ______ ____
ROOT
ATOM      1  P   UNL     1       2.896   0.061  -0.044  0.00  0.00    +0.153 P 
ATOM      2  O   UNL     1       4.626   0.061  -0.044  0.00  0.00    -0.353 OA
ATOM      3  O   UNL     1       2.869   0.528  -1.537  0.00  0.00    -0.353 OA
ATOM      4  O   UNL     1       2.869  -1.503  -0.001  0.00  0.00    -0.455 OA
ENDROOT
BRANCH   1   5
ATOM      5  C   UNL     1       1.066   0.061  -0.044  0.00  0.00    +0.102 C 
ATOM      6  O   UNL     1       0.437   0.967  -0.719  0.00  0.00    -0.542 OA
ATOM      7  O   UNL     1       0.435  -0.837   0.640  0.00  0.00    -0.542 OA
ENDBRANCH   1   5
TORSDOF 1
REMARK  Name = 
REMARK  1 active torsions:
REMARK  status: ('A' for Active; 'I' for Inactive)
REMARK    1  A    between atoms: C_1  and  P_4
REMARK                            x       y       z     vdW  Elec       q    Type
REMARK                         _______ _______ _______ _____ _____    ______ ____
ROOT
ATOM      1 NA   UNL     1       4.481  -1.092  -1.565  0.00  0.00    +0.000 Na
ENDROOT
TORSDOF 0
REMARK  Name = 
REMARK  1 active torsions:
REMARK  status: ('A' for Active; 'I' for Inactive)
REMARK    1  A    between atoms: C_1  and  P_4
REMARK                            x       y       z     vdW  Elec       q    Type
REMARK                         _______ _______ _______ _____ _____    ______ ____
ROOT
ATOM      1 NA   UNL     1       1.499   1.756  -2.259  0.00  0.00    +0.000 Na
ENDROOT
TORSDOF 0
REMARK  Name = 
REMARK  1 active torsions:
REMARK  status: ('A' for Active; 'I' for Inactive)
REMARK    1  A    between atoms: C_1  and  P_4
REMARK                            x       y       z     vdW  Elec       q    Type
REMARK                         _______ _______ _______ _____ _____    ______ ____
ROOT
ATOM      1 NA   UNL     1       1.496  -2.535   0.978  0.00  0.00    +0.000 Na
ENDROOT
TORSDOF 0
