REMARK  Name = 
REMARK  18 active torsions:
REMARK  status: ('A' for Active; 'I' for Inactive)
REMARK    1  A    between atoms: C_1  and  C_2
REMARK    2  A    between atoms: C_2  and  C_40
REMARK    3  A    between atoms: C_7  and  C_26
REMARK    4  A    between atoms: C_10  and  C_12
REMARK    5  A    between atoms: C_12  and  C_14
REMARK    6  A    between atoms: C_12  and  N_18
REMARK    7  A    between atoms: C_14  and  C_15
REMARK    8  A    between atoms: C_14  and  C_16
REMARK    9  A    between atoms: C_14  and  C_17
REMARK   10  A    between atoms: N_21  and  C_22
REMARK   11  A    between atoms: C_22  and  C_23
REMARK   12  A    between atoms: C_22  and  C_24
REMARK   13  A    between atoms: C_22  and  C_25
REMARK   14  A    between atoms: N_28  and  C_29
REMARK   15  A    between atoms: C_29  and  C_30
REMARK   16  A    between atoms: C_29  and  C_35
REMARK   17  A    between atoms: C_30  and  C_31
REMARK   18  A    between atoms: C_35  and  C_37
REMARK                            x       y       z     vdW  Elec       q    Type
REMARK                         _______ _______ _______ _____ _____    ______ ____
ROOT
ATOM      1  C   UNL     1       5.855  -8.123   2.091  0.00  0.00    +0.011 C 
ATOM      2  C   UNL     1       5.482  -6.667   1.882  0.00  0.00    -0.025 C 
ATOM      3  C   UNL     1       4.354  -6.512   0.906  0.00  0.00    +0.011 C 
ATOM      4  C   UNL     1       5.654  -5.744   3.092  0.00  0.00    +0.030 C 
ATOM      5  C   UNL     1       5.175  -4.322   3.352  0.00  0.00    +0.166 C 
ATOM      6  N   UNL     1       6.120  -3.506   2.584  0.00  0.00    -0.288 N 
ATOM      7  C   UNL     1       6.582  -2.237   2.915  0.00  0.00    +0.237 C 
ATOM      8  O   UNL     1       7.457  -1.697   2.236  0.00  0.00    -0.274 OA
ATOM      9  C   UNL     1       6.608  -4.250   1.431  0.00  0.00    +0.113 C 
ATOM     10  C   UNL     1       6.622  -5.666   1.929  0.00  0.00    +0.018 C 
ENDROOT
BRANCH   5  11
ATOM     11  C   UNL     1       3.710  -4.019   2.965  0.00  0.00    +0.234 C 
ATOM     12  N   UNL     1       3.539  -2.925   2.117  0.00  0.00    -0.304 N 
ATOM     13  H   UNL     1       4.328  -2.706   1.520  0.00  0.00    +0.149 HD
ATOM     14  O   UNL     1       2.760  -4.669   3.397  0.00  0.00    -0.274 OA
BRANCH  12  15
ATOM     15  C   UNL     1       2.202  -2.571   1.658  0.00  0.00    +0.149 C 
BRANCH  15  16
ATOM     16  C   UNL     1       1.745  -3.538   0.577  0.00  0.00    +0.237 C 
ATOM     17  O   UNL     1       2.479  -4.018  -0.289  0.00  0.00    -0.285 OA
BRANCH  16  18
ATOM     18  C   UNL     1       0.259  -3.867   0.562  0.00  0.00    +0.279 C 
ATOM     19  N   UNL     1      -0.100  -4.827  -0.338  0.00  0.00    -0.323 N 
ATOM     20  H   UNL     1      -1.065  -5.115  -0.399  0.00  0.00    +0.145 HD
ATOM     21  H   UNL     1       0.604  -5.262  -0.924  0.00  0.00    +0.145 HD
ATOM     22  O   UNL     1      -0.534  -3.292   1.290  0.00  0.00    -0.267 OA
ENDBRANCH  16  18
ENDBRANCH  15  16
BRANCH  15  23
ATOM     23  C   UNL     1       2.050  -1.111   1.206  0.00  0.00    +0.034 C 
BRANCH  23  24
ATOM     24  C   UNL     1       2.972  -0.639   0.075  0.00  0.00    -0.009 C 
ATOM     25  C   UNL     1       2.529   0.746  -0.470  0.00  0.00    +0.003 C 
ATOM     26  C   UNL     1       2.729   0.242  -1.902  0.00  0.00    +0.001 C 
ATOM     27  C   UNL     1       2.830  -1.190  -1.365  0.00  0.00    +0.003 C 
ENDBRANCH  23  24
ENDBRANCH  15  23
ENDBRANCH  12  15
ENDBRANCH   5  11
BRANCH   7  28
ATOM     28  C   UNL     1       5.973  -1.534   4.178  0.00  0.00    +0.166 C 
BRANCH  28  29
ATOM     29  N   UNL     1       6.561  -2.069   5.414  0.00  0.00    -0.288 N 
ATOM     30  H   UNL     1       7.565  -2.083   5.514  0.00  0.00    +0.151 HD
ATOM     31  C   UNL     1       5.749  -2.396   6.474  0.00  0.00    +0.301 C 
ATOM     32  N   UNL     1       6.420  -2.815   7.584  0.00  0.00    -0.295 N 
ATOM     33  H   UNL     1       7.408  -3.004   7.507  0.00  0.00    +0.151 HD
ATOM     34  O   UNL     1       4.535  -2.319   6.395  0.00  0.00    -0.253 OA
BRANCH  32  35
ATOM     35  C   UNL     1       5.725  -3.214   8.828  0.00  0.00    +0.028 C 
ATOM     36  C   UNL     1       4.964  -2.021   9.437  0.00  0.00    +0.031 C 
ATOM     37  C   UNL     1       6.768  -3.681   9.863  0.00  0.00    +0.031 C 
ATOM     38  C   UNL     1       4.755  -4.384   8.578  0.00  0.00    +0.031 C 
ENDBRANCH  32  35
ENDBRANCH  28  29
BRANCH  28  39
ATOM     39  C   UNL     1       5.938   0.041   4.148  0.00  0.00    -0.011 C 
ATOM     40  C   UNL     1       5.068   0.573   5.317  0.00  0.00    +0.013 C 
ATOM     41  C   UNL     1       5.281   0.512   2.836  0.00  0.00    +0.013 C 
ATOM     42  C   UNL     1       7.318   0.710   4.268  0.00  0.00    +0.013 C 
ENDBRANCH  28  39
ENDBRANCH   7  28
TORSDOF 10
