REMARK  Name = 
REMARK  2 active torsions:
REMARK  status: ('A' for Active; 'I' for Inactive)
REMARK    1  A    between atoms: C_1  and  C_2
REMARK    2  A    between atoms: N_8  and  C_18
REMARK                            x       y       z     vdW  Elec       q    Type
REMARK                         _______ _______ _______ _____ _____    ______ ____
ROOT
ATOM      1  C   UNL     1       1.278   0.046  -0.581  0.00  0.00    +0.046 C 
ATOM      2  C   UNL     1       2.729   0.060  -0.200  0.00  0.00    -0.022 A 
ATOM      3  C   UNL     1       3.241   1.106   0.550  0.00  0.00    +0.025 A 
ATOM      4  C   UNL     1       4.259   0.797   1.429  0.00  0.00    +0.113 A 
ATOM      5  N   UNL     1       4.683  -0.474   1.661  0.00  0.00    -0.236 NA
ATOM      6  C   UNL     1       4.225  -1.457   0.844  0.00  0.00    +0.159 A 
ATOM      7  N   UNL     1       4.933  -2.707   0.768  0.00  0.00    -0.305 N 
ATOM      8  C   UNL     1       6.265  -2.635   0.261  0.00  0.00    +0.148 A 
ATOM      9  N   UNL     1       7.163  -3.547   0.723  0.00  0.00    -0.237 NA
ATOM     10  C   UNL     1       8.469  -3.309   0.496  0.00  0.00    +0.113 A 
ATOM     11  C   UNL     1       8.938  -2.196  -0.180  0.00  0.00    +0.021 A 
ATOM     12  C   UNL     1       8.009  -1.334  -0.758  0.00  0.00    +0.018 A 
ATOM     13  C   UNL     1       6.642  -1.589  -0.608  0.00  0.00    +0.082 A 
ATOM     14  C   UNL     1       5.641  -0.746  -1.375  0.00  0.00    +0.260 A 
ATOM     15  N   UNL     1       4.305  -1.232  -1.510  0.00  0.00    -0.319 N 
ATOM     16  H   UNL     1       4.379  -2.230  -1.685  0.00  0.00    +0.169 HD
ATOM     17  O   UNL     1       5.999   0.306  -1.906  0.00  0.00    -0.267 OA
ATOM     18  C   UNL     1       3.492  -1.101  -0.294  0.00  0.00    +0.088 A 
ENDROOT
BRANCH   7  19
ATOM     19  C   UNL     1       4.181  -3.919   0.333  0.00  0.00    +0.091 C 
ATOM     20  C   UNL     1       2.824  -4.280   0.885  0.00  0.00    +0.027 C 
ATOM     21  C   UNL     1       4.024  -5.107   1.239  0.00  0.00    +0.027 C 
ENDBRANCH   7  19
TORSDOF 1
