REMARK  Name = 
REMARK  5 active torsions:
REMARK  status: ('A' for Active; 'I' for Inactive)
REMARK    1  A    between atoms: C3*_2  and  O3*_22
REMARK    2  A    between atoms: C4*_4  and  C5*_20
REMARK    3  A    between atoms: C1*_7  and  N_9
REMARK    4  A    between atoms: C_11  and  C_17
REMARK    5  A    between atoms: C5*_20  and  O5*_21
REMARK                            x       y       z     vdW  Elec       q    Type
REMARK                         _______ _______ _______ _____ _____    ______ ____
ROOT
ATOM      1  N   UNL     1       1.028  -1.639   1.403  0.00  0.00    -0.273 N 
ATOM      2  C   UNL     1       1.252  -3.008   1.385  0.00  0.00    +0.331 A 
ATOM      3  O   UNL     1       1.166  -3.704   0.377  0.00  0.00    -0.246 OA
ATOM      4  N   UNL     1       1.587  -3.566   2.592  0.00  0.00    -0.274 N 
ATOM      5  H   UNL     1       1.804  -4.551   2.591  0.00  0.00    +0.173 HD
ATOM      6  C   UNL     1       1.742  -2.902   3.777  0.00  0.00    +0.261 A 
ATOM      7  O   UNL     1       2.142  -3.475   4.786  0.00  0.00    -0.267 OA
ATOM      8  C   UNL     1       1.398  -1.451   3.769  0.00  0.00    +0.056 A 
ATOM      9  C   UNL     1       1.077  -0.923   2.581  0.00  0.00    +0.106 A 
ENDROOT
BRANCH   1  11
ATOM     10  C2* UNL     1      -0.799  -1.007  -0.177  0.00  0.00    +0.088 C 
ATOM     11  C1* UNL     1       0.694  -0.991   0.134  0.00  0.00    +0.226 C 
ATOM     12  O4* UNL     1       1.121   0.391   0.145  0.00  0.00    -0.348 OA
ATOM     13  C4* UNL     1      -0.028   1.215  -0.143  0.00  0.00    +0.175 C 
ATOM     14  C3* UNL     1      -1.242   0.378   0.240  0.00  0.00    +0.150 C 
BRANCH  14  15
ATOM     15  O3* UNL     1      -2.432   0.784  -0.416  0.00  0.00    -0.389 OA
ATOM     16  H3* UNL     1      -2.337   0.641  -1.374  0.00  0.00    +0.210 HD
ENDBRANCH  14  15
BRANCH  13  17
ATOM     17  C5* UNL     1       0.066   2.557   0.584  0.00  0.00    +0.190 C 
BRANCH  17  18
ATOM     18  O5* UNL     1       0.202   2.393   1.995  0.00  0.00    -0.392 OA
ATOM     19  H5* UNL     1       1.149   2.225   2.152  0.00  0.00    +0.210 HD
ENDBRANCH  17  18
ENDBRANCH  13  17
ENDBRANCH   1  11
BRANCH   8  20
ATOM     20  C   UNL     1       1.525  -0.667   4.987  0.00  0.00    +0.022 C 
ATOM     21  C   UNL     1       0.824   0.434   5.287  0.00  0.00    +0.052 C 
ATOM     22 BR   UNL     1       1.057   1.414   6.847  0.00  0.00    -0.059 Br
ENDBRANCH   8  20
TORSDOF 5
