REMARK  Name = 
REMARK  6 active torsions:
REMARK  status: ('A' for Active; 'I' for Inactive)
REMARK    1  A    between atoms: C6_3  and  N6_23
REMARK    2  A    between atoms: N9_7  and  C1*_10
REMARK    3  A    between atoms: C2*_12  and  O2*_22
REMARK    4  A    between atoms: C3*_14  and  O3*_21
REMARK    5  A    between atoms: C4*_16  and  C5*_19
REMARK    6  A    between atoms: C5*_19  and  O5*_20
REMARK                            x       y       z     vdW  Elec       q    Type
REMARK                         _______ _______ _______ _____ _____    ______ ____
ROOT
ATOM      1  C2    A A   1      -1.841   0.589  -0.974  0.00  0.00    +0.225 A 
ATOM      2  N3    A A   1      -0.796   1.414  -0.725  0.00  0.00    -0.216 NA
ATOM      3  C4    A A   1       0.278   0.714  -0.313  0.00  0.00    +0.167 A 
ATOM      4  N9    A A   1       1.511   1.185   0.048  0.00  0.00    -0.286 N 
ATOM      5  C8    A A   1       2.268   0.093   0.412  0.00  0.00    +0.203 A 
ATOM      6  N7    A A   1       1.607  -1.037   0.291  0.00  0.00    -0.231 NA
ATOM      7  C5    A A   1       0.363  -0.663  -0.164  0.00  0.00    +0.147 A 
ATOM      8  C6    A A   1      -0.781  -1.413  -0.484  0.00  0.00    +0.147 A 
ATOM      9  N1    A A   1      -1.895  -0.754  -0.873  0.00  0.00    -0.219 NA
ENDROOT
BRANCH   4  10
ATOM     10  C1*   A A   1       2.050   2.521  -0.029  0.00  0.00    +0.253 C 
ATOM     11  O4*   A A   1       2.625   2.863   1.256  0.00  0.00    -0.346 OA
ATOM     12  C4*   A A   1       2.529   4.303   1.401  0.00  0.00    +0.177 C 
ATOM     13  C3*   A A   1       2.053   4.851   0.051  0.00  0.00    +0.178 C 
ATOM     14  C2*   A A   1       1.171   3.711  -0.439  0.00  0.00    +0.195 C 
BRANCH  13  15
ATOM     15  O3*   A A   1       1.328   6.066   0.182  0.00  0.00    -0.386 OA
ATOM     16  H3*   A A   1       0.418   5.798   0.435  0.00  0.00    +0.210 HD
ENDBRANCH  13  15
BRANCH  14  17
ATOM     17  O2*   A A   1      -0.074   3.826   0.270  0.00  0.00    -0.385 OA
ATOM     18  H2*   A A   1      -0.626   3.069  -0.025  0.00  0.00    +0.210 HD
ENDBRANCH  14  17
BRANCH  12  19
ATOM     19  C5*   A A   1       3.891   4.844   1.825  0.00  0.00    +0.190 C 
BRANCH  19  20
ATOM     20  O5*   A A   1       4.897   4.432   0.897  0.00  0.00    -0.392 OA
ATOM     21  H5*   A A   1       4.955   3.463   0.982  0.00  0.00    +0.210 HD
ENDBRANCH  19  20
ENDBRANCH  12  19
ENDBRANCH   4  10
BRANCH   8  22
ATOM     22  N6    A A   1      -0.826  -2.798  -0.404  0.00  0.00    -0.341 N 
ATOM     23  H61   A A   1      -0.102  -3.191   0.189  0.00  0.00    +0.144 HD
ATOM     24  H62   A A   1      -1.767  -3.150  -0.295  0.00  0.00    +0.144 HD
ENDBRANCH   8  22
TORSDOF 6
