REMARK  Name = 
REMARK  11 active torsions:
REMARK  status: ('A' for Active; 'I' for Inactive)
REMARK    1  A    between atoms: C_1  and  C_2
REMARK    2  A    between atoms: C_2  and  C_3
REMARK    3  A    between atoms: C_3  and  C_4
REMARK    4  A    between atoms: C_3  and  O_6
REMARK    5  A    between atoms: C_4  and  C_5
REMARK    6  A    between atoms: O_6  and  C_7
REMARK    7  A    between atoms: C_10  and  C_21
REMARK    8  A    between atoms: C_12  and  N_20
REMARK    9  A    between atoms: C_14  and  N_16
REMARK   10  A    between atoms: C_17  and  C_19
REMARK   11  A    between atoms: C_21  and  O_23
REMARK                            x       y       z     vdW  Elec       q    Type
REMARK                         _______ _______ _______ _____ _____    ______ ____
ROOT
ATOM      1  C   UNL     1       4.993  -0.121  -2.947  0.00  0.00    +0.164 C 
ATOM      2  C   UNL     1       5.945  -1.353  -2.889  0.00  0.00    +0.122 C 
ATOM      3  C   UNL     1       7.310  -1.202  -3.613  0.00  0.00    +0.078 C 
ATOM      4  C   UNL     1       7.906   0.218  -3.655  0.00  0.00    +0.062 C 
ATOM      5  C   UNL     1       6.955   1.363  -3.501  0.00  0.00    +0.036 C 
ATOM      6  C   UNL     1       5.652   1.203  -3.217  0.00  0.00    +0.016 C 
ENDROOT
BRANCH   2   7
ATOM      7  N   UNL     1       6.080  -1.910  -1.534  0.00  0.00    -0.308 N 
ATOM      8  H   UNL     1       5.789  -2.872  -1.407  0.00  0.00    +0.149 HD
ATOM      9  C   UNL     1       6.688  -1.258  -0.495  0.00  0.00    +0.210 C 
ATOM     10  C   UNL     1       6.740  -2.055   0.781  0.00  0.00    +0.109 C 
ATOM     11  O   UNL     1       7.131  -0.119  -0.579  0.00  0.00    -0.276 OA
ENDBRANCH   2   7
BRANCH   3  12
ATOM     12  N   UNL     1       7.222  -1.775  -4.977  0.00  0.00    -0.325 NA
ATOM     13  H   UNL     1       6.655  -1.163  -5.567  0.00  0.00    +0.119 HD
ATOM     14  H   UNL     1       8.153  -1.776  -5.398  0.00  0.00    +0.119 HD
ENDBRANCH   3  12
BRANCH   5  15
ATOM     15  C   UNL     1       7.578   2.701  -3.741  0.00  0.00    +0.333 C 
ATOM     16  O   UNL     1       8.592   2.845  -4.408  0.00  0.00    -0.245 OA
BRANCH  15  17
ATOM     17  O   UNL     1       6.965   3.731  -3.128  0.00  0.00    -0.477 OA
ATOM     18  H   UNL     1       6.304   3.464  -2.469  0.00  0.00    +0.295 HD
ENDBRANCH  15  17
ENDBRANCH   5  15
BRANCH   1  19
ATOM     19  O   UNL     1       3.960  -0.213  -3.940  0.00  0.00    -0.367 OA
BRANCH  19  20
ATOM     20  C   UNL     1       3.087  -1.352  -3.928  0.00  0.00    +0.119 C 
BRANCH  20  22
ATOM     21  C   UNL     1       1.502  -2.776  -2.508  0.00  0.00    +0.006 C 
ATOM     22  C   UNL     1       2.354  -1.517  -2.585  0.00  0.00    +0.028 C 
ENDBRANCH  20  22
BRANCH  20  23
ATOM     23  C   UNL     1       2.111  -1.180  -5.105  0.00  0.00    +0.028 C 
ATOM     24  C   UNL     1       2.837  -1.052  -6.442  0.00  0.00    +0.006 C 
ENDBRANCH  20  23
ENDBRANCH  19  20
ENDBRANCH   1  19
TORSDOF 8
