REMARK  Name = 
REMARK  11 active torsions:
REMARK  status: ('A' for Active; 'I' for Inactive)
REMARK    1  A    between atoms: C_1  and  C_2
REMARK    2  A    between atoms: C_2  and  C_3
REMARK    3  A    between atoms: C_3  and  C_4
REMARK    4  A    between atoms: C_3  and  O_6
REMARK    5  A    between atoms: C_4  and  C_5
REMARK    6  A    between atoms: O_6  and  C_7
REMARK    7  A    between atoms: C_10  and  C_21
REMARK    8  A    between atoms: C_12  and  N_20
REMARK    9  A    between atoms: C_14  and  N_16
REMARK   10  A    between atoms: C_17  and  C_19
REMARK   11  A    between atoms: C_21  and  O_23
REMARK                            x       y       z     vdW  Elec       q    Type
REMARK                         _______ _______ _______ _____ _____    ______ ____
ROOT
ATOM      1  C   UNL     1       4.841  -1.565  -2.505  0.00  0.00    +0.164 C 
ATOM      2  C   UNL     1       4.279  -3.005  -2.301  0.00  0.00    +0.122 C 
ATOM      3  C   UNL     1       5.261  -4.188  -2.534  0.00  0.00    +0.078 C 
ATOM      4  C   UNL     1       6.766  -3.889  -2.408  0.00  0.00    +0.062 C 
ATOM      5  C   UNL     1       7.199  -2.457  -2.513  0.00  0.00    +0.036 C 
ATOM      6  C   UNL     1       6.334  -1.436  -2.594  0.00  0.00    +0.016 C 
ENDROOT
BRANCH   2   7
ATOM      7  N   UNL     1       3.541  -3.136  -1.034  0.00  0.00    -0.308 N 
ATOM      8  H   UNL     1       2.563  -3.392  -1.093  0.00  0.00    +0.149 HD
ATOM      9  C   UNL     1       4.136  -3.024   0.199  0.00  0.00    +0.210 C 
ATOM     10  C   UNL     1       3.191  -3.182   1.358  0.00  0.00    +0.109 C 
ATOM     11  O   UNL     1       5.328  -2.792   0.346  0.00  0.00    -0.276 OA
ENDBRANCH   2   7
BRANCH   3  12
ATOM     12  N   UNL     1       4.960  -4.831  -3.838  0.00  0.00    -0.325 NA
ATOM     13  H   UNL     1       5.244  -4.210  -4.597  0.00  0.00    +0.119 HD
ATOM     14  H   UNL     1       5.534  -5.670  -3.938  0.00  0.00    +0.119 HD
ENDBRANCH   3  12
BRANCH   5  15
ATOM     15  C   UNL     1       8.681  -2.282  -2.566  0.00  0.00    +0.333 C 
ATOM     16  O   UNL     1       9.441  -3.170  -2.920  0.00  0.00    -0.245 OA
BRANCH  15  17
ATOM     17  O   UNL     1       9.124  -1.083  -2.141  0.00  0.00    -0.477 OA
ATOM     18  H   UNL     1       8.448  -0.543  -1.696  0.00  0.00    +0.295 HD
ENDBRANCH  15  17
ENDBRANCH   5  15
BRANCH   1  19
ATOM     19  O   UNL     1       4.344  -0.909  -3.684  0.00  0.00    -0.367 OA
BRANCH  19  20
ATOM     20  C   UNL     1       2.923  -0.788  -3.860  0.00  0.00    +0.119 C 
BRANCH  20  22
ATOM     21  C   UNL     1       0.724  -0.005  -2.802  0.00  0.00    +0.006 C 
ATOM     22  C   UNL     1       2.240  -0.072  -2.681  0.00  0.00    +0.028 C 
ENDBRANCH  20  22
BRANCH  20  23
ATOM     23  C   UNL     1       2.706  -0.056  -5.195  0.00  0.00    +0.028 C 
ATOM     24  C   UNL     1       3.348  -0.792  -6.368  0.00  0.00    +0.006 C 
ENDBRANCH  20  23
ENDBRANCH  19  20
ENDBRANCH   1  19
TORSDOF 8
