REMARK  Name = 
REMARK  3 active torsions:
REMARK  status: ('A' for Active; 'I' for Inactive)
REMARK    1  A    between atoms: C_3  and  N_10
REMARK    2  A    between atoms: C_6  and  C_8
REMARK    3  A    between atoms: C_8  and  O_9
REMARK                            x       y       z     vdW  Elec       q    Type
REMARK                         _______ _______ _______ _____ _____    ______ ____
ROOT
ATOM      1  N   UNL     1       1.199   3.064  -2.216  0.00  0.00    -0.152 N 
ATOM      2  C   UNL     1      -0.052   3.478  -2.608  0.00  0.00    +0.332 C 
ATOM      3  N   UNL     1      -1.104   3.894  -1.992  0.00  0.00    -0.033 NA
ATOM      4  C   UNL     1      -2.087   4.426  -2.806  0.00  0.00    +0.356 C 
ATOM      5  N   UNL     1      -1.890   4.914  -3.994  0.00  0.00    -0.143 NA
ATOM      6  C   UNL     1      -0.613   4.785  -4.498  0.00  0.00    +0.276 C 
ATOM      7  O   UNL     1      -0.050   5.643  -5.166  0.00  0.00    -0.271 OA
ATOM      8  C   UNL     1      -0.018   3.455  -4.125  0.00  0.00    +0.311 C 
ATOM      9  N   UNL     1       1.417   3.174  -4.486  0.00  0.00    -0.229 NA
ATOM     10  C   UNL     1       1.955   2.874  -3.337  0.00  0.00    +0.304 C 
ENDROOT
BRANCH   1  14
ATOM     11  C   UNL     1       2.901   4.618   0.117  0.00  0.00    +0.040 C 
ATOM     12  C   UNL     1       1.535   4.499   0.759  0.00  0.00    +0.148 C 
ATOM     13  O   UNL     1       0.833   3.417   0.117  0.00  0.00    -0.334 OA
ATOM     14  C   UNL     1       1.664   2.802  -0.871  0.00  0.00    +0.309 C 
ATOM     15  C   UNL     1       3.082   3.304  -0.596  0.00  0.00    +0.081 C 
BRANCH  12  16
ATOM     16  C   UNL     1       0.716   5.781   0.608  0.00  0.00    +0.187 C 
BRANCH  16  17
ATOM     17  O   UNL     1      -0.580   5.593   1.167  0.00  0.00    -0.392 OA
ATOM     18  H   UNL     1      -0.948   4.817   0.698  0.00  0.00    +0.210 HD
ENDBRANCH  16  17
ENDBRANCH  12  16
ENDBRANCH   1  14
TORSDOF 3
