REMARK  Name = 
REMARK  4 active torsions:
REMARK  status: ('A' for Active; 'I' for Inactive)
REMARK    1  A    between atoms: C_3  and  N_13
REMARK    2  A    between atoms: C_6  and  O_12
REMARK    3  A    between atoms: C_8  and  C_10
REMARK    4  A    between atoms: C_10  and  O_11
REMARK                            x       y       z     vdW  Elec       q    Type
REMARK                         _______ _______ _______ _____ _____    ______ ____
ROOT
ATOM      1  N   UNL     1       2.655   1.714   2.213  0.00  0.00    -0.172 N 
ATOM      2  C   UNL     1       2.768   0.721   3.166  0.00  0.00    +0.337 C 
ATOM      3  N   UNL     1       2.145  -0.392   3.350  0.00  0.00    +0.023 NA
ATOM      4  C   UNL     1       2.741  -1.289   4.206  0.00  0.00    +0.450 C 
ATOM      5  N   UNL     1       2.033  -2.360   4.643  0.00  0.00    -0.241 N 
ATOM      6  H   UNL     1       2.608  -2.919   5.268  0.00  0.00    +0.242 HD
ATOM      7  H   UNL     1       1.155  -2.109   5.077  0.00  0.00    +0.242 HD
ATOM      8  N   UNL     1       3.969  -1.228   4.604  0.00  0.00    +0.008 NA
ATOM      9  C   UNL     1       4.753  -0.166   4.226  0.00  0.00    +0.347 C 
ATOM     10  O   UNL     1       5.971  -0.234   4.196  0.00  0.00    -0.251 OA
ATOM     11  C   UNL     1       3.974   1.101   4.003  0.00  0.00    +0.329 C 
ATOM     12  N   UNL     1       4.691   2.140   3.185  0.00  0.00    -0.228 NA
ATOM     13  C   UNL     1       3.839   2.408   2.236  0.00  0.00    +0.302 C 
ENDROOT
BRANCH   1  19
ATOM     14  C   UNL     1       2.859   2.771  -0.947  0.00  0.00    +0.012 C 
ATOM     15  C   UNL     1       1.989   2.772   0.079  0.00  0.00    -0.026 C 
ATOM     16  C   UNL     1       0.951   3.849   0.309  0.00  0.00    +0.072 C 
ATOM     17  C   UNL     1      -0.217   3.062   0.928  0.00  0.00    +0.128 C 
ATOM     18  C   UNL     1       0.302   1.679   1.346  0.00  0.00    +0.084 C 
ATOM     19  C   UNL     1       1.798   1.609   1.032  0.00  0.00    +0.203 C 
BRANCH  17  20
ATOM     20  O   UNL     1      -0.838   3.705   2.033  0.00  0.00    -0.391 OA
ATOM     21  H   UNL     1      -0.132   3.873   2.691  0.00  0.00    +0.210 HD
ENDBRANCH  17  20
BRANCH  16  22
ATOM     22  C   UNL     1       1.421   5.058   1.133  0.00  0.00    +0.166 C 
BRANCH  22  23
ATOM     23  O   UNL     1       1.623   4.723   2.504  0.00  0.00    -0.394 OA
ATOM     24  H   UNL     1       1.847   5.555   2.963  0.00  0.00    +0.209 HD
ENDBRANCH  22  23
ENDBRANCH  16  22
ENDBRANCH   1  19
TORSDOF 4
