REMARK  Name = 
REMARK  5 active torsions:
REMARK  status: ('A' for Active; 'I' for Inactive)
REMARK    1  A    between atoms: C_1  and  C_5
REMARK    2  A    between atoms: N_7  and  C_13
REMARK    3  A    between atoms: C_15  and  O_20
REMARK    4  A    between atoms: C_16  and  C_18
REMARK    5  A    between atoms: C_18  and  O_19
REMARK                            x       y       z     vdW  Elec       q    Type
REMARK                         _______ _______ _______ _____ _____    ______ ____
ROOT
ATOM      1  C   UNL     1       5.245   2.435  -0.399  0.00  0.00    +0.260 C 
ATOM      2  O   UNL     1       6.390   2.507   0.479  0.00  0.00    -0.345 OA
ATOM      3  C   UNL     1       6.573   3.904   0.826  0.00  0.00    +0.178 C 
ATOM      4  C   UNL     1       5.605   4.722  -0.049  0.00  0.00    +0.184 C 
ATOM      5  C   UNL     1       4.471   3.742  -0.237  0.00  0.00    +0.246 C 
ATOM      6  F   UNL     1       3.724   3.719   0.905  0.00  0.00    -0.238 F 
ENDROOT
BRANCH   1  15
ATOM      7  C   UNL     1       3.401  -1.025   2.687  0.00  0.00    +0.051 C 
ATOM      8  C   UNL     1       3.573  -0.386   1.348  0.00  0.00    +0.030 A 
ATOM      9  C   UNL     1       2.800  -0.960   0.222  0.00  0.00    +0.257 A 
ATOM     10  O   UNL     1       2.049  -1.916   0.369  0.00  0.00    -0.267 OA
ATOM     11  N   UNL     1       2.965  -0.351  -0.987  0.00  0.00    -0.275 N 
ATOM     12  H   UNL     1       2.420  -0.707  -1.757  0.00  0.00    +0.173 HD
ATOM     13  C   UNL     1       3.714   0.765  -1.228  0.00  0.00    +0.331 A 
ATOM     14  O   UNL     1       3.697   1.299  -2.335  0.00  0.00    -0.246 OA
ATOM     15  N   UNL     1       4.461   1.232  -0.159  0.00  0.00    -0.271 N 
ATOM     16  C   UNL     1       4.359   0.670   1.098  0.00  0.00    +0.102 A 
ENDBRANCH   1  15
BRANCH   4  17
ATOM     17  O   UNL     1       6.106   5.101  -1.333  0.00  0.00    -0.386 OA
ATOM     18  H   UNL     1       7.029   4.779  -1.430  0.00  0.00    +0.210 HD
ENDBRANCH   4  17
BRANCH   3  19
ATOM     19  C   UNL     1       8.048   4.248   0.649  0.00  0.00    +0.190 C 
BRANCH  19  20
ATOM     20  O   UNL     1       8.441   3.972  -0.700  0.00  0.00    -0.392 OA
ATOM     21  H   UNL     1       8.430   2.996  -0.783  0.00  0.00    +0.210 HD
ENDBRANCH  19  20
ENDBRANCH   3  19
TORSDOF 4
