REMARK  Name = 
REMARK  4 active torsions:
REMARK  status: ('A' for Active; 'I' for Inactive)
REMARK    1  A    between atoms: C_1  and  C_2
REMARK    2  A    between atoms: N_4  and  C_10
REMARK    3  A    between atoms: C_14  and  C_17
REMARK    4  A    between atoms: C_17  and  O_18
REMARK                            x       y       z     vdW  Elec       q    Type
REMARK                         _______ _______ _______ _____ _____    ______ ____
ROOT
ATOM      1  C   UNL     1       0.987  -0.009   0.076  0.00  0.00    +0.019 C 
ATOM      2  C   UNL     1       2.500  -0.137  -0.054  0.00  0.00    +0.090 C 
ATOM      3  C   UNL     1       3.027   0.868  -1.055  0.00  0.00    +0.225 C 
ATOM      4  O   UNL     1       3.144   2.061  -0.783  0.00  0.00    -0.275 OA
ATOM      5  N   UNL     1       3.280   0.406  -2.320  0.00  0.00    -0.240 N 
ATOM      6  H   UNL     1       3.469   1.118  -3.011  0.00  0.00    +0.159 HD
ATOM      7  C   UNL     1       2.892  -0.807  -2.824  0.00  0.00    +0.311 C 
ATOM      8  O   UNL     1       2.777  -0.964  -4.036  0.00  0.00    -0.252 OA
ATOM      9  N   UNL     1       2.598  -1.771  -1.883  0.00  0.00    -0.255 N 
ATOM     10  C   UNL     1       2.935  -1.529  -0.490  0.00  0.00    +0.124 C 
ENDROOT
BRANCH   9  11
ATOM     11  C   UNL     1       1.751  -2.866  -2.284  0.00  0.00    +0.234 C 
ATOM     12  O   UNL     1       0.433  -2.638  -1.748  0.00  0.00    -0.346 OA
ATOM     13  C   UNL     1      -0.148  -3.945  -1.532  0.00  0.00    +0.169 C 
ATOM     14  C   UNL     1       1.045  -4.812  -1.288  0.00  0.00    +0.006 C 
ATOM     15  C   UNL     1       2.144  -4.180  -1.714  0.00  0.00    +0.022 C 
BRANCH  13  16
ATOM     16  C   UNL     1      -1.172  -3.879  -0.394  0.00  0.00    +0.191 C 
BRANCH  16  17
ATOM     17  O   UNL     1      -0.572  -3.526   0.851  0.00  0.00    -0.392 OA
ATOM     18  H   UNL     1      -0.030  -2.740   0.664  0.00  0.00    +0.210 HD
ENDBRANCH  16  17
ENDBRANCH  13  16
ENDBRANCH   9  11
TORSDOF 3
