REMARK  Name = 
REMARK  4 active torsions:
REMARK  status: ('A' for Active; 'I' for Inactive)
REMARK    1  A    between atoms: C_3  and  N_13
REMARK    2  A    between atoms: C_6  and  O_12
REMARK    3  A    between atoms: C_8  and  C_10
REMARK    4  A    between atoms: C_10  and  O_11
REMARK                            x       y       z     vdW  Elec       q    Type
REMARK                         _______ _______ _______ _____ _____    ______ ____
ROOT
ATOM      1  N   UNL     1       2.578   1.681   2.423  0.00  0.00    -0.172 N 
ATOM      2  C   UNL     1       2.717   0.667   3.362  0.00  0.00    +0.337 C 
ATOM      3  N   UNL     1       2.067  -0.425   3.579  0.00  0.00    +0.023 NA
ATOM      4  C   UNL     1       2.690  -1.363   4.370  0.00  0.00    +0.450 C 
ATOM      5  N   UNL     1       1.977  -2.404   4.855  0.00  0.00    -0.241 N 
ATOM      6  H   UNL     1       2.576  -2.998   5.431  0.00  0.00    +0.242 HD
ATOM      7  H   UNL     1       1.139  -2.143   5.335  0.00  0.00    +0.242 HD
ATOM      8  N   UNL     1       3.950  -1.359   4.674  0.00  0.00    +0.008 NA
ATOM      9  C   UNL     1       4.738  -0.316   4.251  0.00  0.00    +0.347 C 
ATOM     10  O   UNL     1       5.949  -0.429   4.101  0.00  0.00    -0.251 OA
ATOM     11  C   UNL     1       3.996   0.985   4.114  0.00  0.00    +0.329 C 
ATOM     12  N   UNL     1       4.698   2.002   3.256  0.00  0.00    -0.228 NA
ATOM     13  C   UNL     1       3.795   2.309   2.368  0.00  0.00    +0.302 C 
ENDROOT
BRANCH   1  19
ATOM     14  C   UNL     1       2.773   2.639  -0.772  0.00  0.00    +0.012 C 
ATOM     15  C   UNL     1       1.894   2.688   0.243  0.00  0.00    -0.026 C 
ATOM     16  C   UNL     1       0.847   3.773   0.379  0.00  0.00    +0.072 C 
ATOM     17  C   UNL     1      -0.264   3.116   1.204  0.00  0.00    +0.128 C 
ATOM     18  C   UNL     1       0.189   1.690   1.549  0.00  0.00    +0.084 C 
ATOM     19  C   UNL     1       1.687   1.576   1.258  0.00  0.00    +0.203 C 
BRANCH  17  20
ATOM     20  O   UNL     1      -1.438   3.060   0.383  0.00  0.00    -0.391 OA
ATOM     21  H   UNL     1      -2.213   3.173   0.959  0.00  0.00    +0.210 HD
ENDBRANCH  17  20
BRANCH  16  22
ATOM     22  C   UNL     1       1.333   5.076   1.028  0.00  0.00    +0.166 C 
BRANCH  22  23
ATOM     23  O   UNL     1       1.785   4.854   2.358  0.00  0.00    -0.394 OA
ATOM     24  H   UNL     1       2.412   5.569   2.571  0.00  0.00    +0.209 HD
ENDBRANCH  22  23
ENDBRANCH  16  22
ENDBRANCH   1  19
TORSDOF 4
REMARK  Name = 
REMARK  4 active torsions:
REMARK  status: ('A' for Active; 'I' for Inactive)
REMARK    1  A    between atoms: C_3  and  N_13
REMARK    2  A    between atoms: C_6  and  O_12
REMARK    3  A    between atoms: C_8  and  C_10
REMARK    4  A    between atoms: C_10  and  O_11
REMARK                            x       y       z     vdW  Elec       q    Type
REMARK                         _______ _______ _______ _____ _____    ______ ____
ROOT
ATOM      1  O   HOH     1       0.835  -0.954  -0.910  0.00  0.00    -0.410 OA
ATOM      2  H   HOH     0       0.562  -0.180  -1.427  0.00  0.00    +0.205 HD
ATOM      3  H   HOH     0       1.801  -0.965  -0.984  0.00  0.00    +0.205 HD
ENDROOT
TORSDOF 0
