REMARK  Name = 
REMARK  10 active torsions:
REMARK  status: ('A' for Active; 'I' for Inactive)
REMARK    1  A    between atoms: C_1  and  O_2
REMARK    2  A    between atoms: O_2  and  C_3
REMARK    3  A    between atoms: C_4  and  N_13
REMARK    4  A    between atoms: C_6  and  C_9
REMARK    5  A    between atoms: C_14  and  C_39
REMARK    6  A    between atoms: N_28  and  C_31
REMARK    7  A    between atoms: C_33  and  O_37
REMARK    8  A    between atoms: O_37  and  C_38
REMARK    9  A    between atoms: C_39  and  C_40
REMARK   10  A    between atoms: C_40  and  O_42
REMARK                            x       y       z     vdW  Elec       q    Type
REMARK                         _______ _______ _______ _____ _____    ______ ____
ROOT
ATOM      1  N   UNL     1       2.320   2.508   0.134  0.00  0.00    -0.181 N 
ATOM      2  C   UNL     1       1.653   1.721   1.091  0.00  0.00    +0.380 C 
ATOM      3  N   UNL     1       1.840   0.346   1.067  0.00  0.00    -0.221 N 
ATOM      4  C   UNL     1       1.982  -0.308   2.406  0.00  0.00    +0.206 C 
ATOM      5  C   UNL     1       2.503  -1.761   2.299  0.00  0.00    +0.140 C 
ATOM      6  N   UNL     1       1.661  -2.535   1.365  0.00  0.00    -0.324 N 
ATOM      7  C   UNL     1       1.576  -1.899   0.034  0.00  0.00    +0.140 C 
ATOM      8  C   UNL     1       0.984  -0.475   0.176  0.00  0.00    +0.206 C 
ATOM      9  N   UNL     1       0.907   2.178   2.064  0.00  0.00    -0.073 NA
ATOM     10  C   UNL     1       0.779   3.549   2.299  0.00  0.00    +0.183 A 
ATOM     11  C   UNL     1       0.056   4.035   3.398  0.00  0.00    +0.166 A 
ATOM     12  F   UNL     1      -0.618   3.188   4.202  0.00  0.00    -0.202 F 
ATOM     13  C   UNL     1       0.010   5.394   3.711  0.00  0.00    +0.042 A 
ATOM     14  C   UNL     1       0.724   6.306   2.920  0.00  0.00    +0.003 A 
ATOM     15  C   UNL     1       1.415   5.842   1.807  0.00  0.00    +0.010 A 
ATOM     16  C   UNL     1       1.421   4.466   1.482  0.00  0.00    +0.033 A 
ATOM     17  C   UNL     1       2.070   3.995   0.205  0.00  0.00    +0.189 C 
ENDROOT
BRANCH   1  23
ATOM     18  C   UNL     1       3.743   2.916  -1.896  0.00  0.00    +0.156 A 
ATOM     19  C   UNL     1       4.044   2.467  -3.182  0.00  0.00    +0.049 A 
ATOM     20  C   UNL     1       4.339   1.130  -3.349  0.00  0.00    +0.016 A 
ATOM     21  C   UNL     1       4.338   0.311  -2.222  0.00  0.00    +0.058 A 
ATOM     22  C   UNL     1       3.701   0.762  -1.043  0.00  0.00    +0.056 A 
ATOM     23  C   UNL     1       3.213   2.061  -0.908  0.00  0.00    +0.137 A 
BRANCH  21  24
ATOM     24  C   UNL     1       5.136  -0.968  -2.242  0.00  0.00    +0.418 C 
ATOM     25  F   UNL     1       6.450  -0.726  -2.514  0.00  0.00    -0.166 F 
ATOM     26  F   UNL     1       4.711  -1.843  -3.190  0.00  0.00    -0.166 F 
ATOM     27  F   UNL     1       5.120  -1.638  -1.060  0.00  0.00    -0.166 F 
ENDBRANCH  21  24
BRANCH  18  29
ATOM     28  C   UNL     1       4.929   5.028  -2.179  0.00  0.00    +0.277 C 
ATOM     29  O   UNL     1       4.201   4.105  -1.403  0.00  0.00    -0.492 OA
ENDBRANCH  18  29
ENDBRANCH   1  23
BRANCH   6  30
ATOM     30  C   UNL     1       1.371  -3.880   1.533  0.00  0.00    +0.033 A 
ATOM     31  C   UNL     1       0.397  -4.512   0.738  0.00  0.00    +0.023 A 
ATOM     32  C   UNL     1       0.067  -5.862   0.884  0.00  0.00    +0.005 A 
ATOM     33  C   UNL     1       0.699  -6.622   1.856  0.00  0.00    +0.046 A 
ATOM     34  C   UNL     1       1.648  -6.035   2.688  0.00  0.00    +0.122 A 
ATOM     35  C   UNL     1       1.970  -4.678   2.527  0.00  0.00    +0.068 A 
BRANCH  34  36
ATOM     36  O   UNL     1       2.187  -6.891   3.610  0.00  0.00    -0.495 OA
ATOM     37  C   UNL     1       3.130  -6.352   4.525  0.00  0.00    +0.277 C 
ENDBRANCH  34  36
ENDBRANCH   6  30
BRANCH  17  38
ATOM     38  C   UNL     1       1.282   4.574  -0.988  0.00  0.00    +0.164 C 
BRANCH  38  39
ATOM     39  C   UNL     1      -0.139   4.097  -1.101  0.00  0.00    +0.308 C 
ATOM     40  O   UNL     1      -1.109   4.830  -0.974  0.00  0.00    -0.251 OA
BRANCH  39  41
ATOM     41  O   UNL     1      -0.250   2.805  -1.477  0.00  0.00    -0.481 OA
ATOM     42  H   UNL     1       0.609   2.339  -1.486  0.00  0.00    +0.295 HD
ENDBRANCH  39  41
ENDBRANCH  38  39
ENDBRANCH  17  38
TORSDOF 8
