REMARK  Name = 
REMARK  5 active torsions:
REMARK  status: ('A' for Active; 'I' for Inactive)
REMARK    1  A    between atoms: C_1  and  C_2
REMARK    2  A    between atoms: N_4  and  C_10
REMARK    3  A    between atoms: C_13  and  N_20
REMARK    4  A    between atoms: C_15  and  C_18
REMARK    5  A    between atoms: C_18  and  O_19
REMARK                            x       y       z     vdW  Elec       q    Type
REMARK                         _______ _______ _______ _____ _____    ______ ____
ROOT
ATOM      1  C   UNL     1       5.284   2.522  -0.374  0.00  0.00    +0.226 C 
ATOM      2  O   UNL     1       6.310   2.639   0.626  0.00  0.00    -0.349 OA
ATOM      3  C   UNL     1       6.517   4.045   0.898  0.00  0.00    +0.177 C 
ATOM      4  C   UNL     1       5.556   4.821  -0.020  0.00  0.00    +0.226 C 
ATOM      5  C   UNL     1       4.471   3.801  -0.282  0.00  0.00    +0.091 C 
ENDROOT
BRANCH   1  14
ATOM      6  C   UNL     1       3.313  -0.981   2.576  0.00  0.00    +0.051 C 
ATOM      7  C   UNL     1       3.542  -0.331   1.251  0.00  0.00    +0.030 A 
ATOM      8  C   UNL     1       2.856  -0.919   0.076  0.00  0.00    +0.257 A 
ATOM      9  O   UNL     1       2.113  -1.890   0.175  0.00  0.00    -0.267 OA
ATOM     10  N   UNL     1       3.088  -0.303  -1.118  0.00  0.00    -0.275 N 
ATOM     11  H   UNL     1       2.608  -0.673  -1.923  0.00  0.00    +0.173 HD
ATOM     12  C   UNL     1       3.829   0.831  -1.310  0.00  0.00    +0.331 A 
ATOM     13  O   UNL     1       3.876   1.364  -2.417  0.00  0.00    -0.246 OA
ATOM     14  N   UNL     1       4.485   1.320  -0.189  0.00  0.00    -0.274 N 
ATOM     15  C   UNL     1       4.316   0.744   1.055  0.00  0.00    +0.101 A 
ENDBRANCH   1  14
BRANCH   4  16
ATOM     16  N   UNL     1       5.015   6.044   0.592  0.00  0.00    +0.082 NA
ATOM     17  N   UNL     1       4.382   6.801  -0.171  0.00  0.00    -0.014 NA
ATOM     18  N   UNL     1       3.797   7.486  -0.866  0.00  0.00    -0.328 NA
ENDBRANCH   4  16
BRANCH   3  19
ATOM     19  C   UNL     1       6.330   4.268   2.404  0.00  0.00    +0.189 C 
BRANCH  19  20
ATOM     20  O   UNL     1       6.607   5.608   2.790  0.00  0.00    -0.392 OA
ATOM     21  H   UNL     1       5.987   6.172   2.287  0.00  0.00    +0.210 HD
ENDBRANCH  19  20
ENDBRANCH   3  19
TORSDOF 4
