REMARK  Name = 
REMARK  5 active torsions:
REMARK  status: ('A' for Active; 'I' for Inactive)
REMARK    1  A    between atoms: C_1  and  C_2
REMARK    2  A    between atoms: N_4  and  C_10
REMARK    3  A    between atoms: C_13  and  N_20
REMARK    4  A    between atoms: C_15  and  C_18
REMARK    5  A    between atoms: C_18  and  O_19
REMARK                            x       y       z     vdW  Elec       q    Type
REMARK                         _______ _______ _______ _____ _____    ______ ____
ROOT
ATOM      1  C   UNL     1       5.359   2.416  -0.330  0.00  0.00    +0.226 C 
ATOM      2  O   UNL     1       6.296   2.514   0.754  0.00  0.00    -0.349 OA
ATOM      3  C   UNL     1       6.565   3.914   0.988  0.00  0.00    +0.177 C 
ATOM      4  C   UNL     1       5.655   4.712   0.036  0.00  0.00    +0.226 C 
ATOM      5  C   UNL     1       4.568   3.712  -0.301  0.00  0.00    +0.091 C 
ENDROOT
BRANCH   1  14
ATOM      6  C   UNL     1       3.151  -1.091   2.442  0.00  0.00    +0.051 C 
ATOM      7  C   UNL     1       3.503  -0.448   1.141  0.00  0.00    +0.030 A 
ATOM      8  C   UNL     1       2.992  -1.089  -0.094  0.00  0.00    +0.257 A 
ATOM      9  O   UNL     1       2.300  -2.101  -0.064  0.00  0.00    -0.267 OA
ATOM     10  N   UNL     1       3.329  -0.477  -1.266  0.00  0.00    -0.275 N 
ATOM     11  H   UNL     1       2.976  -0.890  -2.115  0.00  0.00    +0.173 HD
ATOM     12  C   UNL     1       4.044   0.683  -1.395  0.00  0.00    +0.331 A 
ATOM     13  O   UNL     1       4.208   1.194  -2.501  0.00  0.00    -0.246 OA
ATOM     14  N   UNL     1       4.543   1.217  -0.215  0.00  0.00    -0.274 N 
ATOM     15  C   UNL     1       4.247   0.658   1.014  0.00  0.00    +0.101 A 
ENDBRANCH   1  14
BRANCH   4  16
ATOM     16  N   UNL     1       5.093   5.930   0.635  0.00  0.00    +0.082 NA
ATOM     17  N   UNL     1       4.782   6.835  -0.166  0.00  0.00    -0.014 NA
ATOM     18  N   UNL     1       4.502   7.661  -0.897  0.00  0.00    -0.328 NA
ENDBRANCH   4  16
BRANCH   3  19
ATOM     19  C   UNL     1       6.392   4.188   2.485  0.00  0.00    +0.189 C 
BRANCH  19  20
ATOM     20  O   UNL     1       6.772   5.514   2.831  0.00  0.00    -0.392 OA
ATOM     21  H   UNL     1       6.161   6.106   2.350  0.00  0.00    +0.210 HD
ENDBRANCH  19  20
ENDBRANCH   3  19
TORSDOF 4
