REMARK  Name = 
REMARK  11 active torsions:
REMARK  status: ('A' for Active; 'I' for Inactive)
REMARK    1  A    between atoms: C_1  and  C_2
REMARK    2  A    between atoms: N_4  and  C_5
REMARK    3  A    between atoms: C_7  and  N_25
REMARK    4  A    between atoms: C_10  and  C_22
REMARK    5  A    between atoms: C_12  and  C_14
REMARK    6  A    between atoms: C_14  and  C_16
REMARK    7  A    between atoms: C_14  and  O_21
REMARK    8  A    between atoms: C_16  and  C_18
REMARK    9  A    between atoms: C_16  and  O_20
REMARK   10  A    between atoms: C_18  and  O_19
REMARK   11  A    between atoms: C_22  and  O_24
REMARK                            x       y       z     vdW  Elec       q    Type
REMARK                         _______ _______ _______ _____ _____    ______ ____
ROOT
ATOM      1  C   UNL     1       4.618   0.422  -1.173  0.00  0.00    +0.160 C 
ATOM      2  C   UNL     1       5.180   1.693  -1.901  0.00  0.00    +0.229 C 
ATOM      3  O   UNL     1       6.346   1.496  -2.730  0.00  0.00    -0.477 OA
ATOM      4  C   UNL     1       6.450   0.303  -3.411  0.00  0.00    +0.204 C 
ATOM      5  C   UNL     1       5.877  -0.834  -3.005  0.00  0.00    +0.071 C 
ATOM      6  C   UNL     1       5.059  -0.944  -1.775  0.00  0.00    +0.238 C 
ENDROOT
BRANCH   6   7
ATOM      7  N   UNL     1       3.873  -1.768  -2.080  0.00  0.00    -0.104 NA
ATOM      8  C   UNL     1       3.944  -3.043  -2.008  0.00  0.00    +0.377 C 
ATOM      9  N   UNL     1       2.867  -3.775  -2.359  0.00  0.00    -0.289 N 
ATOM     10  H   UNL     1       2.670  -4.605  -1.821  0.00  0.00    +0.255 HD
ATOM     11  H   UNL     1       2.046  -3.204  -2.526  0.00  0.00    +0.255 HD
ATOM     12  N   UNL     1       4.982  -3.836  -1.677  0.00  0.00    -0.289 N 
ATOM     13  H   UNL     1       4.818  -4.798  -1.423  0.00  0.00    +0.255 HD
ATOM     14  H   UNL     1       5.844  -3.439  -1.336  0.00  0.00    +0.255 HD
ENDBRANCH   6   7
BRANCH   1  17
ATOM     15  C   UNL     1       0.981   1.036  -0.195  0.00  0.00    +0.109 C 
ATOM     16  C   UNL     1       2.464   1.285  -0.169  0.00  0.00    +0.210 C 
ATOM     17  N   UNL     1       3.169   0.404  -0.938  0.00  0.00    -0.305 N 
ATOM     18  H   UNL     1       2.703  -0.389  -1.376  0.00  0.00    +0.149 HD
ATOM     19  O   UNL     1       2.978   2.238   0.407  0.00  0.00    -0.276 OA
ENDBRANCH   1  17
BRANCH   4  20
ATOM     20  C   UNL     1       7.333   0.230  -4.619  0.00  0.00    +0.372 C 
ATOM     21  O   UNL     1       7.435  -0.724  -5.375  0.00  0.00    -0.242 OA
BRANCH  20  22
ATOM     22  O   UNL     1       8.069   1.359  -4.755  0.00  0.00    -0.475 OA
ATOM     23  H   UNL     1       7.882   1.977  -4.024  0.00  0.00    +0.296 HD
ENDBRANCH  20  22
ENDBRANCH   4  20
BRANCH   2  24
ATOM     24  C   UNL     1       4.133   2.573  -2.644  0.00  0.00    +0.187 C 
BRANCH  24  25
ATOM     25  O   UNL     1       3.662   1.923  -3.827  0.00  0.00    -0.385 OA
ATOM     26  H   UNL     1       3.214   2.603  -4.366  0.00  0.00    +0.210 HD
ENDBRANCH  24  25
BRANCH  24  27
ATOM     27  C   UNL     1       4.621   4.005  -2.971  0.00  0.00    +0.172 C 
BRANCH  27  28
ATOM     28  O   UNL     1       3.462   4.800  -3.325  0.00  0.00    -0.387 OA
ATOM     29  H   UNL     1       2.895   4.847  -2.531  0.00  0.00    +0.210 HD
ENDBRANCH  27  28
BRANCH  27  30
ATOM     30  C   UNL     1       5.577   4.107  -4.160  0.00  0.00    +0.189 C 
BRANCH  30  31
ATOM     31  O   UNL     1       5.952   5.471  -4.356  0.00  0.00    -0.392 OA
ATOM     32  H   UNL     1       5.110   5.956  -4.460  0.00  0.00    +0.210 HD
ENDBRANCH  30  31
ENDBRANCH  27  30
ENDBRANCH  24  27
ENDBRANCH   2  24
TORSDOF 10
