REMARK  Name = 
REMARK  4 active torsions:
REMARK  status: ('A' for Active; 'I' for Inactive)
REMARK    1  A    between atoms: C_1  and  C_2
REMARK    2  A    between atoms: N_4  and  C_10
REMARK    3  A    between atoms: C_14  and  C_17
REMARK    4  A    between atoms: C_17  and  O_18
REMARK                            x       y       z     vdW  Elec       q    Type
REMARK                         _______ _______ _______ _____ _____    ______ ____
ROOT
ATOM      1  C   UNL     1       1.001   0.092   0.030  0.00  0.00    +0.051 C 
ATOM      2  C   UNL     1       2.491   0.113  -0.069  0.00  0.00    +0.030 A 
ATOM      3  C   UNL     1       3.173  -1.201  -0.080  0.00  0.00    +0.257 A 
ATOM      4  O   UNL     1       2.551  -2.257  -0.083  0.00  0.00    -0.267 OA
ATOM      5  N   UNL     1       4.532  -1.170  -0.104  0.00  0.00    -0.275 N 
ATOM      6  H   UNL     1       5.011  -2.056  -0.140  0.00  0.00    +0.173 HD
ATOM      7  C   UNL     1       5.303  -0.054  -0.265  0.00  0.00    +0.332 A 
ATOM      8  O   UNL     1       6.518  -0.168  -0.419  0.00  0.00    -0.246 OA
ATOM      9  N   UNL     1       4.626   1.157  -0.269  0.00  0.00    -0.270 N 
ATOM     10  C   UNL     1       3.248   1.215  -0.166  0.00  0.00    +0.102 A 
ENDROOT
BRANCH   9  11
ATOM     11  C   UNL     1       5.446   2.329  -0.497  0.00  0.00    +0.248 C 
ATOM     12  O   UNL     1       4.860   3.542   0.023  0.00  0.00    -0.343 OA
ATOM     13  C   UNL     1       5.265   4.608  -0.874  0.00  0.00    +0.169 C 
ATOM     14  C   UNL     1       5.476   3.909  -2.177  0.00  0.00    +0.007 C 
ATOM     15  C   UNL     1       5.583   2.599  -1.957  0.00  0.00    +0.025 C 
BRANCH  13  16
ATOM     16  C   UNL     1       6.549   5.280  -0.352  0.00  0.00    +0.191 C 
BRANCH  16  17
ATOM     17  O   UNL     1       7.039   6.276  -1.245  0.00  0.00    -0.392 OA
ATOM     18  H   UNL     1       7.426   5.811  -2.009  0.00  0.00    +0.210 HD
ENDBRANCH  16  17
ENDBRANCH  13  16
ENDBRANCH   9  11
TORSDOF 3
