REMARK  Name = 
REMARK  4 active torsions:
REMARK  status: ('A' for Active; 'I' for Inactive)
REMARK    1  A    between atoms: C_1  and  C_2
REMARK    2  A    between atoms: N_4  and  C_10
REMARK    3  A    between atoms: C_14  and  C_17
REMARK    4  A    between atoms: C_17  and  O_18
REMARK                            x       y       z     vdW  Elec       q    Type
REMARK                         _______ _______ _______ _____ _____    ______ ____
ROOT
ATOM      1  C   UNL     1       0.997   0.112  -0.007  0.00  0.00    +0.051 C 
ATOM      2  C   UNL     1       2.487   0.135  -0.105  0.00  0.00    +0.030 A 
ATOM      3  C   UNL     1       3.170  -1.181  -0.115  0.00  0.00    +0.257 A 
ATOM      4  O   UNL     1       2.549  -2.238  -0.115  0.00  0.00    -0.267 OA
ATOM      5  N   UNL     1       4.531  -1.146  -0.139  0.00  0.00    -0.275 N 
ATOM      6  H   UNL     1       5.011  -2.031  -0.173  0.00  0.00    +0.173 HD
ATOM      7  C   UNL     1       5.301  -0.030  -0.300  0.00  0.00    +0.332 A 
ATOM      8  O   UNL     1       6.518  -0.143  -0.451  0.00  0.00    -0.246 OA
ATOM      9  N   UNL     1       4.621   1.182  -0.303  0.00  0.00    -0.270 N 
ATOM     10  C   UNL     1       3.242   1.240  -0.201  0.00  0.00    +0.102 A 
ENDROOT
BRANCH   9  11
ATOM     11  C   UNL     1       5.441   2.355  -0.532  0.00  0.00    +0.248 C 
ATOM     12  O   UNL     1       4.852   3.569  -0.018  0.00  0.00    -0.343 OA
ATOM     13  C   UNL     1       5.259   4.633  -0.916  0.00  0.00    +0.169 C 
ATOM     14  C   UNL     1       5.474   3.931  -2.217  0.00  0.00    +0.007 C 
ATOM     15  C   UNL     1       5.582   2.621  -1.993  0.00  0.00    +0.025 C 
BRANCH  13  16
ATOM     16  C   UNL     1       6.543   5.306  -0.395  0.00  0.00    +0.191 C 
BRANCH  16  17
ATOM     17  O   UNL     1       7.034   6.299  -1.290  0.00  0.00    -0.392 OA
ATOM     18  H   UNL     1       7.416   5.833  -2.054  0.00  0.00    +0.210 HD
ENDBRANCH  16  17
ENDBRANCH  13  16
ENDBRANCH   9  11
TORSDOF 3
