REMARK  Name = 
REMARK  4 active torsions:
REMARK  status: ('A' for Active; 'I' for Inactive)
REMARK    1  A    between atoms: C_2  and  N_8
REMARK    2  A    between atoms: C_4  and  C_6
REMARK    3  A    between atoms: C_6  and  O_7
REMARK    4  A    between atoms: C_11  and  N_15
REMARK                            x       y       z     vdW  Elec       q    Type
REMARK                         _______ _______ _______ _____ _____    ______ ____
ROOT
ATOM      1  N   UNL     1      -1.162   0.346   1.783  0.00  0.00    -0.232 N 
ATOM      2  C   UNL     1      -2.064  -0.478   2.432  0.00  0.00    +0.397 C 
ATOM      3  O   UNL     1      -2.671  -1.397   1.893  0.00  0.00    -0.224 OA
ATOM      4  N   UNL     1      -2.254  -0.250   3.767  0.00  0.00    -0.156 N 
ATOM      5  H   UNL     1      -2.877  -0.902   4.223  0.00  0.00    +0.303 HD
ATOM      6  C   UNL     1      -1.760   0.786   4.492  0.00  0.00    +0.295 C 
ATOM      7  C   UNL     1      -1.052   1.716   3.838  0.00  0.00    +0.202 C 
ATOM      8  F   UNL     1      -0.551   2.768   4.528  0.00  0.00    -0.200 F 
ATOM      9  C   UNL     1      -0.815   1.643   2.373  0.00  0.00    +0.188 C 
ENDROOT
BRANCH   1  14
ATOM     10  C   UNL     1      -0.844  -1.141  -0.312  0.00  0.00    +0.123 C 
ATOM     11  S   UNL     1       0.908  -1.489  -0.086  0.00  0.00    -0.123 S 
ATOM     12  C   UNL     1       1.289   0.277   0.039  0.00  0.00    +0.203 C 
ATOM     13  O   UNL     1       0.076   1.041  -0.101  0.00  0.00    -0.342 OA
ATOM     14  C   UNL     1      -1.043   0.243   0.328  0.00  0.00    +0.223 C 
BRANCH  12  15
ATOM     15  C   UNL     1       2.289   0.704  -1.045  0.00  0.00    +0.198 C 
BRANCH  15  16
ATOM     16  O   UNL     1       1.790   0.476  -2.367  0.00  0.00    -0.392 OA
ATOM     17  H   UNL     1       1.395  -0.415  -2.362  0.00  0.00    +0.210 HD
ENDBRANCH  15  16
ENDBRANCH  12  15
ENDBRANCH   1  14
BRANCH   6  18
ATOM     18  N   UNL     1      -2.027   0.854   5.839  0.00  0.00    -0.249 N 
ATOM     19  H   UNL     1      -1.992  -0.053   6.291  0.00  0.00    +0.288 HD
ATOM     20  H   UNL     1      -1.439   1.540   6.311  0.00  0.00    +0.288 HD
ENDBRANCH   6  18
TORSDOF 4
