REMARK  Name = 
REMARK  12 active torsions:
REMARK  status: ('A' for Active; 'I' for Inactive)
REMARK    1  A    between atoms: C_3  and  N_4
REMARK    2  A    between atoms: N_4  and  C_5
REMARK    3  A    between atoms: N_12  and  C_15
REMARK    4  A    between atoms: C_19  and  C_21
REMARK    5  A    between atoms: C_21  and  O_22
REMARK    6  A    between atoms: C_25  and  N_26
REMARK    7  A    between atoms: N_26  and  C_27
REMARK    8  A    between atoms: N_34  and  C_37
REMARK    9  A    between atoms: C_41  and  C_43
REMARK   10  A    between atoms: C_43  and  O_44
REMARK   11  A    between atoms: O_45  and  S_46
REMARK   12  A    between atoms: S_46  and  O_49
REMARK                            x       y       z     vdW  Elec       q    Type
REMARK                         _______ _______ _______ _____ _____    ______ ____
ROOT
ATOM      1  C   UNL     1       1.755   0.293   2.690  0.00  0.00    +0.152 A 
ATOM      2  N   UNL     1       1.022   1.410   2.887  0.00  0.00    -0.198 NA
ATOM      3  C   UNL     1       1.451   2.322   3.759  0.00  0.00    +0.216 A 
ATOM      4  N   UNL     1       0.699   3.477   3.729  0.00  0.00    -0.327 N 
ATOM      5  H   UNL     1      -0.186   3.288   3.284  0.00  0.00    +0.145 HD
ATOM      6  H   UNL     1       0.714   3.997   4.596  0.00  0.00    +0.145 HD
ATOM      7  N   UNL     1       2.513   2.212   4.578  0.00  0.00    -0.195 NA
ATOM      8  C   UNL     1       3.232   1.090   4.331  0.00  0.00    +0.167 A 
ATOM      9  N   UNL     1       4.464   0.713   4.809  0.00  0.00    -0.311 N 
ATOM     10  C   UNL     1       4.874  -0.400   4.113  0.00  0.00    +0.202 A 
ATOM     11  N   UNL     1       3.972  -0.784   3.245  0.00  0.00    -0.231 NA
ATOM     12  C   UNL     1       2.942   0.114   3.412  0.00  0.00    +0.148 A 
ENDROOT
BRANCH   9  13
ATOM     13  C   UNL     1       5.240   1.520   5.730  0.00  0.00    +0.098 C 
ATOM     14  C   UNL     1       5.724   2.799   5.019  0.00  0.00    +0.058 C 
ATOM     15  C   UNL     1       7.162   2.494   4.730  0.00  0.00    -0.046 C 
ATOM     16  C   UNL     1       7.595   1.435   5.426  0.00  0.00    -0.023 C 
ATOM     17  C   UNL     1       6.511   0.848   6.276  0.00  0.00    +0.052 C 
BRANCH  15  18
ATOM     18  C   UNL     1       7.935   3.348   3.789  0.00  0.00    +0.186 C 
BRANCH  18  19
ATOM     19  O   UNL     1       7.359   3.245   2.496  0.00  0.00    -0.391 OA
ATOM     20  H   UNL     1       7.418   2.310   2.233  0.00  0.00    +0.210 HD
ENDBRANCH  18  19
ENDBRANCH  15  18
ENDBRANCH   9  13
BRANCH   1  21
ATOM     21  N   UNL     1       1.527  -0.817   1.200  0.00  0.00    -0.324 N 
ATOM     22  H   UNL     1       2.236  -1.772   1.155  0.00  0.00    +0.148 HD
BRANCH  21  24
ATOM     23  C   UNL     1      -0.029   0.883   0.000  0.00  0.00    +0.024 C 
ATOM     24  C   UNL     1       0.779  -0.417   0.000  0.00  0.00    +0.072 C 
ATOM     25  C   UNL     1      -0.751  -0.466   0.000  0.00  0.00    +0.024 C 
ENDBRANCH  21  24
ENDBRANCH   1  21
TORSDOF 5
REMARK  Name = 
REMARK  12 active torsions:
REMARK  status: ('A' for Active; 'I' for Inactive)
REMARK    1  A    between atoms: C_3  and  N_4
REMARK    2  A    between atoms: N_4  and  C_5
REMARK    3  A    between atoms: N_12  and  C_15
REMARK    4  A    between atoms: C_19  and  C_21
REMARK    5  A    between atoms: C_21  and  O_22
REMARK    6  A    between atoms: C_25  and  N_26
REMARK    7  A    between atoms: N_26  and  C_27
REMARK    8  A    between atoms: N_34  and  C_37
REMARK    9  A    between atoms: C_41  and  C_43
REMARK   10  A    between atoms: C_43  and  O_44
REMARK   11  A    between atoms: O_45  and  S_46
REMARK   12  A    between atoms: S_46  and  O_49
REMARK                            x       y       z     vdW  Elec       q    Type
REMARK                         _______ _______ _______ _____ _____    ______ ____
ROOT
ATOM      1  C   UNL     1       0.896  -2.235   2.257  0.00  0.00    +0.152 A 
ATOM      2  N   UNL     1       1.584  -2.532   3.390  0.00  0.00    -0.198 NA
ATOM      3  C   UNL     1       1.064  -3.425   4.229  0.00  0.00    +0.216 A 
ATOM      4  N   UNL     1       1.893  -3.735   5.290  0.00  0.00    -0.327 N 
ATOM      5  H   UNL     1       2.583  -3.013   5.389  0.00  0.00    +0.145 HD
ATOM      6  H   UNL     1       1.385  -4.038   6.107  0.00  0.00    +0.145 HD
ATOM      7  N   UNL     1      -0.144  -4.003   4.128  0.00  0.00    -0.195 NA
ATOM      8  C   UNL     1      -0.722  -3.786   2.926  0.00  0.00    +0.167 A 
ATOM      9  N   UNL     1      -1.932  -4.190   2.414  0.00  0.00    -0.311 N 
ATOM     10  C   UNL     1      -2.026  -3.730   1.127  0.00  0.00    +0.202 A 
ATOM     11  N   UNL     1      -0.911  -3.178   0.745  0.00  0.00    -0.231 NA
ATOM     12  C   UNL     1      -0.198  -3.019   1.905  0.00  0.00    +0.148 A 
ENDROOT
BRANCH   9  13
ATOM     13  C   UNL     1      -3.020  -4.939   3.005  0.00  0.00    +0.098 C 
ATOM     14  C   UNL     1      -4.202  -4.016   3.359  0.00  0.00    +0.058 C 
ATOM     15  C   UNL     1      -4.042  -3.850   4.841  0.00  0.00    -0.046 C 
ATOM     16  C   UNL     1      -3.192  -4.755   5.343  0.00  0.00    -0.023 C 
ATOM     17  C   UNL     1      -2.664  -5.678   4.290  0.00  0.00    +0.052 C 
BRANCH  15  18
ATOM     18  C   UNL     1      -4.790  -2.799   5.576  0.00  0.00    +0.186 C 
BRANCH  18  19
ATOM     19  O   UNL     1      -4.435  -1.526   5.064  0.00  0.00    -0.391 OA
ATOM     20  H   UNL     1      -3.476  -1.427   5.198  0.00  0.00    +0.210 HD
ENDBRANCH  18  19
ENDBRANCH  15  18
ENDBRANCH   9  13
BRANCH   1  21
ATOM     21  N   UNL     1       1.527  -0.817   1.200  0.00  0.00    -0.324 N 
ATOM     22  H   UNL     1       2.661  -0.498   1.271  0.00  0.00    +0.148 HD
BRANCH  21  24
ATOM     23  C   UNL     1      -0.029   0.883   0.000  0.00  0.00    +0.024 C 
ATOM     24  C   UNL     1       0.779  -0.417   0.000  0.00  0.00    +0.072 C 
ATOM     25  C   UNL     1      -0.751  -0.466   0.000  0.00  0.00    +0.024 C 
ENDBRANCH  21  24
ENDBRANCH   1  21
TORSDOF 5
REMARK  Name = 
REMARK  12 active torsions:
REMARK  status: ('A' for Active; 'I' for Inactive)
REMARK    1  A    between atoms: C_3  and  N_4
REMARK    2  A    between atoms: N_4  and  C_5
REMARK    3  A    between atoms: N_12  and  C_15
REMARK    4  A    between atoms: C_19  and  C_21
REMARK    5  A    between atoms: C_21  and  O_22
REMARK    6  A    between atoms: C_25  and  N_26
REMARK    7  A    between atoms: N_26  and  C_27
REMARK    8  A    between atoms: N_34  and  C_37
REMARK    9  A    between atoms: C_41  and  C_43
REMARK   10  A    between atoms: C_43  and  O_44
REMARK   11  A    between atoms: O_45  and  S_46
REMARK   12  A    between atoms: S_46  and  O_49
REMARK                            x       y       z     vdW  Elec       q    Type
REMARK                         _______ _______ _______ _____ _____    ______ ____
ROOT
ATOM      1  S   UNL     1       2.977   2.590  -1.290  0.00  0.00    +0.205 S 
ATOM      2  O   UNL     1       2.878   1.233  -1.761  0.00  0.00    -0.118 OA
ATOM      3  O   UNL     1       2.229   3.682  -1.864  0.00  0.00    -0.118 OA
ENDROOT
BRANCH   1   4
ATOM      4  O   UNL     1       2.701   2.582   0.288  0.00  0.00    -0.231 OA
ATOM      5  H   UNL     1       2.372   1.690   0.543  0.00  0.00    +0.247 HD
ENDBRANCH   1   4
BRANCH   1   6
ATOM      6  O   UNL     1       4.524   3.017  -1.322  0.00  0.00    -0.231 OA
ATOM      7  H   UNL     1       4.588   3.903  -0.918  0.00  0.00    +0.247 HD
ENDBRANCH   1   6
TORSDOF 2
