REMARK  Name = 
REMARK  16 active torsions:
REMARK  status: ('A' for Active; 'I' for Inactive)
REMARK    1  A    between atoms: C_1  and  C_2
REMARK    2  A    between atoms: C_2  and  C_4
REMARK    3  A    between atoms: C_2  and  N_10
REMARK    4  A    between atoms: C_4  and  O_6
REMARK    5  A    between atoms: O_6  and  C_7
REMARK    6  A    between atoms: C_7  and  C_8
REMARK    7  A    between atoms: C_7  and  C_9
REMARK    8  A    between atoms: N_10  and  P_11
REMARK    9  A    between atoms: P_11  and  O_13
REMARK   10  A    between atoms: P_11  and  O_34
REMARK   11  A    between atoms: O_13  and  C_14
REMARK   12  A    between atoms: C_14  and  C_15
REMARK   13  A    between atoms: C_17  and  O_33
REMARK   14  A    between atoms: C_19  and  C_31
REMARK   15  A    between atoms: C_20  and  N_23
REMARK   16  A    between atoms: O_34  and  C_35
REMARK                            x       y       z     vdW  Elec       q    Type
REMARK                         _______ _______ _______ _____ _____    ______ ____
ROOT
ATOM      1  O   UNL     1       2.341   3.770   3.586  0.00  0.00    -0.284 OA
ENDROOT
BRANCH   1   2
ATOM      2  P   UNL     1       2.571   3.510   5.210  0.00  0.00    +0.462 P 
ATOM      3  O   UNL     1       3.298   4.760   5.722  0.00  0.00    -0.228 OA
BRANCH   2   4
ATOM      4  N   UNL     1       4.146   2.755   4.864  0.00  0.00    -0.199 NA
ATOM      5  H   UNL     1       4.619   3.438   4.273  0.00  0.00    +0.135 HD
BRANCH   4   7
ATOM      6  C   UNL     1       4.306   1.665   7.092  0.00  0.00    +0.036 C 
ATOM      7  C   UNL     1       4.986   2.591   6.087  0.00  0.00    +0.171 C 
BRANCH   7   8
ATOM      8  C   UNL     1       6.379   2.056   5.728  0.00  0.00    +0.325 C 
ATOM      9  O   UNL     1       6.732   1.682   4.615  0.00  0.00    -0.249 OA
BRANCH   8  10
ATOM     10  O   UNL     1       7.187   2.098   6.831  0.00  0.00    -0.461 OA
BRANCH  10  11
ATOM     11  C   UNL     1       8.557   1.686   6.647  0.00  0.00    +0.170 C 
ATOM     12  C   UNL     1       9.118   1.326   8.021  0.00  0.00    +0.052 C 
ATOM     13  C   UNL     1       9.363   2.826   6.034  0.00  0.00    +0.052 C 
ENDBRANCH  10  11
ENDBRANCH   8  10
ENDBRANCH   7   8
ENDBRANCH   4   7
ENDBRANCH   2   4
BRANCH   2  14
ATOM     14  O   UNL     1       1.041   4.243   5.547  0.00  0.00    -0.413 OA
BRANCH  14  15
ATOM     15  C   UNL     1       0.007   3.403   5.894  0.00  0.00    +0.131 A 
ATOM     16  C   UNL     1      -1.242   3.993   6.077  0.00  0.00    +0.046 A 
ATOM     17  C   UNL     1      -2.353   3.203   6.376  0.00  0.00    +0.004 A 
ATOM     18  C   UNL     1      -2.221   1.820   6.492  0.00  0.00    +0.000 A 
ATOM     19  C   UNL     1      -0.973   1.227   6.325  0.00  0.00    +0.004 A 
ATOM     20  C   UNL     1       0.143   2.015   6.034  0.00  0.00    +0.046 A 
ENDBRANCH  14  15
ENDBRANCH   2  14
ENDBRANCH   1   2
BRANCH   1  21
ATOM     21  C   UNL     1       1.738   2.732   2.841  0.00  0.00    +0.206 C 
BRANCH  21  22
ATOM     22  C   UNL     1       1.517   3.123   1.375  0.00  0.00    +0.179 C 
ATOM     23  O   UNL     1       0.858   2.020   0.717  0.00  0.00    -0.345 OA
ATOM     24  C   UNL     1      -0.502   2.406   0.390  0.00  0.00    +0.263 C 
ATOM     25  C   UNL     1      -0.767   3.796   1.011  0.00  0.00    +0.182 C 
ATOM     26  C   UNL     1      -1.511   3.801   2.342  0.00  0.00    +0.055 C 
ATOM     27  F   UNL     1      -1.508   4.570   0.166  0.00  0.00    -0.235 F 
ATOM     28  C   UNL     1       0.651   4.358   1.120  0.00  0.00    +0.187 C 
BRANCH  24  29
ATOM     29  N   UNL     1      -1.424   1.339   0.809  0.00  0.00    -0.271 N 
ATOM     30  C   UNL     1      -2.649   1.258   0.158  0.00  0.00    +0.331 A 
ATOM     31  O   UNL     1      -2.992   1.983  -0.770  0.00  0.00    -0.246 OA
ATOM     32  N   UNL     1      -3.506   0.292   0.628  0.00  0.00    -0.275 N 
ATOM     33  H   UNL     1      -4.407   0.235   0.178  0.00  0.00    +0.173 HD
ATOM     34  C   UNL     1      -3.290  -0.526   1.695  0.00  0.00    +0.254 A 
ATOM     35  O   UNL     1      -4.127  -1.309   2.130  0.00  0.00    -0.268 OA
ATOM     36  C   UNL     1      -1.967  -0.418   2.322  0.00  0.00    +0.088 A 
ATOM     37  C   UNL     1      -1.109   0.490   1.854  0.00  0.00    +0.098 A 
ENDBRANCH  24  29
BRANCH  28  38
ATOM     38  O   UNL     1       1.030   4.912  -0.156  0.00  0.00    -0.386 OA
ATOM     39  H   UNL     1       1.856   5.411  -0.036  0.00  0.00    +0.210 HD
ENDBRANCH  28  38
ENDBRANCH  21  22
ENDBRANCH   1  21
TORSDOF 12
