REMARK  Name = 
REMARK  16 active torsions:
REMARK  status: ('A' for Active; 'I' for Inactive)
REMARK    1  A    between atoms: C_1  and  C_2
REMARK    2  A    between atoms: C_2  and  C_4
REMARK    3  A    between atoms: C_2  and  N_10
REMARK    4  A    between atoms: C_4  and  O_6
REMARK    5  A    between atoms: O_6  and  C_7
REMARK    6  A    between atoms: C_7  and  C_8
REMARK    7  A    between atoms: C_7  and  C_9
REMARK    8  A    between atoms: N_10  and  P_11
REMARK    9  A    between atoms: P_11  and  O_13
REMARK   10  A    between atoms: P_11  and  O_34
REMARK   11  A    between atoms: O_13  and  C_14
REMARK   12  A    between atoms: C_14  and  C_15
REMARK   13  A    between atoms: C_17  and  O_33
REMARK   14  A    between atoms: C_19  and  C_31
REMARK   15  A    between atoms: C_20  and  N_23
REMARK   16  A    between atoms: O_34  and  C_35
REMARK                            x       y       z     vdW  Elec       q    Type
REMARK                         _______ _______ _______ _____ _____    ______ ____
ROOT
ATOM      1  O   UNL     1       2.462  -1.240   3.887  0.00  0.00    -0.284 OA
ENDROOT
BRANCH   1   2
ATOM      2  P   UNL     1       2.690  -2.806   4.368  0.00  0.00    +0.462 P 
ATOM      3  O   UNL     1       4.205  -2.706   4.065  0.00  0.00    -0.228 OA
BRANCH   2   4
ATOM      4  N   UNL     1       2.976  -2.763   6.031  0.00  0.00    -0.199 NA
ATOM      5  H   UNL     1       3.822  -2.218   6.185  0.00  0.00    +0.135 HD
BRANCH   4   7
ATOM      6  C   UNL     1       4.316  -4.905   6.075  0.00  0.00    +0.036 C 
ATOM      7  C   UNL     1       3.168  -4.089   6.674  0.00  0.00    +0.171 C 
BRANCH   7   8
ATOM      8  C   UNL     1       3.462  -3.922   8.165  0.00  0.00    +0.325 C 
ATOM      9  O   UNL     1       4.086  -2.990   8.657  0.00  0.00    -0.249 OA
BRANCH   8  10
ATOM     10  O   UNL     1       3.000  -5.012   8.849  0.00  0.00    -0.461 OA
BRANCH  10  11
ATOM     11  C   UNL     1       3.266  -5.042  10.264  0.00  0.00    +0.170 C 
ATOM     12  C   UNL     1       3.113  -6.487  10.728  0.00  0.00    +0.052 C 
ATOM     13  C   UNL     1       2.274  -4.145  10.995  0.00  0.00    +0.052 C 
ENDBRANCH  10  11
ENDBRANCH   8  10
ENDBRANCH   7   8
ENDBRANCH   4   7
ENDBRANCH   2   4
BRANCH   2  14
ATOM     14  O   UNL     1       0.997  -2.918   4.706  0.00  0.00    -0.413 OA
BRANCH  14  15
ATOM     15  C   UNL     1       0.297  -4.087   4.674  0.00  0.00    +0.131 A 
ATOM     16  C   UNL     1       0.625  -5.174   3.874  0.00  0.00    +0.046 A 
ATOM     17  C   UNL     1      -0.211  -6.295   3.876  0.00  0.00    +0.004 A 
ATOM     18  C   UNL     1      -1.359  -6.324   4.672  0.00  0.00    +0.000 A 
ATOM     19  C   UNL     1      -1.676  -5.233   5.477  0.00  0.00    +0.004 A 
ATOM     20  C   UNL     1      -0.848  -4.114   5.474  0.00  0.00    +0.046 A 
ENDBRANCH  14  15
ENDBRANCH   2  14
ENDBRANCH   1   2
BRANCH   1  21
ATOM     21  C   UNL     1       2.766  -0.988   2.505  0.00  0.00    +0.206 C 
BRANCH  21  22
ATOM     22  C   UNL     1       4.255  -1.148   2.080  0.00  0.00    +0.179 C 
ATOM     23  O   UNL     1       4.415  -0.779   0.707  0.00  0.00    -0.345 OA
ATOM     24  C   UNL     1       5.338   0.324   0.629  0.00  0.00    +0.263 C 
ATOM     25  C   UNL     1       5.532   0.890   2.045  0.00  0.00    +0.182 C 
ATOM     26  C   UNL     1       4.615   2.045   2.427  0.00  0.00    +0.055 C 
ATOM     27  F   UNL     1       6.808   1.333   2.224  0.00  0.00    -0.235 F 
ATOM     28  C   UNL     1       5.271  -0.343   2.905  0.00  0.00    +0.187 C 
BRANCH  24  29
ATOM     29  N   UNL     1       4.807   1.245  -0.377  0.00  0.00    -0.271 N 
ATOM     30  C   UNL     1       5.709   2.014  -1.093  0.00  0.00    +0.331 A 
ATOM     31  O   UNL     1       6.926   2.008  -0.913  0.00  0.00    -0.246 OA
ATOM     32  N   UNL     1       5.160   2.799  -2.074  0.00  0.00    -0.275 N 
ATOM     33  H   UNL     1       5.808   3.325  -2.640  0.00  0.00    +0.173 HD
ATOM     34  C   UNL     1       3.849   2.818  -2.443  0.00  0.00    +0.254 A 
ATOM     35  O   UNL     1       3.430   3.443  -3.410  0.00  0.00    -0.268 OA
ATOM     36  C   UNL     1       2.933   2.025  -1.615  0.00  0.00    +0.088 A 
ATOM     37  C   UNL     1       3.450   1.285  -0.638  0.00  0.00    +0.098 A 
ENDBRANCH  24  29
BRANCH  28  38
ATOM     38  O   UNL     1       6.474  -1.121   3.039  0.00  0.00    -0.386 OA
ATOM     39  H   UNL     1       6.247  -1.860   3.640  0.00  0.00    +0.210 HD
ENDBRANCH  28  38
ENDBRANCH  21  22
ENDBRANCH   1  21
TORSDOF 12
