REMARK  Name = 
REMARK  185 active torsions:
REMARK  status: ('A' for Active; 'I' for Inactive)
REMARK    1  A    between atoms: CD1_1  and  CG1_2
REMARK    2  A    between atoms: CG1_2  and  CB_3
REMARK    3  A    between atoms: CB_3  and  CG2_4
REMARK    4  A    between atoms: CB_3  and  CA_5
REMARK    5  A    between atoms: CA_5  and  C_6
REMARK    6  A    between atoms: CA_5  and  N_251
REMARK    7  A    between atoms: N_8  and  CA_9
REMARK    8  A    between atoms: CA_9  and  CB_10
REMARK    9  A    between atoms: CA_9  and  C_15
REMARK   10  A    between atoms: CB_10  and  CG_11
REMARK   11  A    between atoms: CG_11  and  CD_12
REMARK   12  A    between atoms: CD_12  and  OE2_14
REMARK   13  A    between atoms: N_17  and  CA_18
REMARK   14  A    between atoms: CA_18  and  CB_19
REMARK   15  A    between atoms: CA_18  and  C_24
REMARK   16  A    between atoms: CB_19  and  CG_20
REMARK   17  A    between atoms: CG_20  and  CD_21
REMARK   18  A    between atoms: CD_21  and  OE2_23
REMARK   19  A    between atoms: N_26  and  CA_27
REMARK   20  A    between atoms: CA_27  and  CB_28
REMARK   21  A    between atoms: CA_27  and  C_30
REMARK   22  A    between atoms: CB_28  and  OG_29
REMARK   23  A    between atoms: N_32  and  CA_33
REMARK   24  A    between atoms: CA_33  and  CB_34
REMARK   25  A    between atoms: CA_33  and  C_39
REMARK   26  A    between atoms: CB_34  and  CG_35
REMARK   27  A    between atoms: CG_35  and  CD_36
REMARK   28  A    between atoms: N_41  and  CA_42
REMARK   29  A    between atoms: CA_42  and  CB_43
REMARK   30  A    between atoms: CA_42  and  C_47
REMARK   31  A    between atoms: CB_43  and  CG_44
REMARK   32  A    between atoms: N_49  and  CA_50
REMARK   33  A    between atoms: CA_50  and  CB_51
REMARK   34  A    between atoms: CA_50  and  C_56
REMARK   35  A    between atoms: CB_51  and  CG_52
REMARK   36  A    between atoms: CG_52  and  CD_53
REMARK   37  A    between atoms: N_58  and  CA_59
REMARK   38  A    between atoms: CA_59  and  CB_60
REMARK   39  A    between atoms: CA_59  and  C_65
REMARK   40  A    between atoms: CB_60  and  CG_61
REMARK   41  A    between atoms: CG_61  and  CD_62
REMARK   42  A    between atoms: N_67  and  CA_68
REMARK   43  A    between atoms: CA_68  and  CB_69
REMARK   44  A    between atoms: CA_68  and  C_74
REMARK   45  A    between atoms: CB_69  and  CG_70
REMARK   46  A    between atoms: CG_70  and  CD_71
REMARK   47  A    between atoms: CD_71  and  OE2_73
REMARK   48  A    between atoms: N_76  and  CA_77
REMARK   49  A    between atoms: CA_77  and  CB_78
REMARK   50  A    between atoms: CA_77  and  C_83
REMARK   51  A    between atoms: CB_78  and  CG_79
REMARK   52  A    between atoms: CG_79  and  CD_80
REMARK   53  A    between atoms: CD_80  and  CE_81
REMARK   54  A    between atoms: CE_81  and  NZ_82
REMARK   55  A    between atoms: N_85  and  CA_86
REMARK   56  A    between atoms: CA_86  and  CB_87
REMARK   57  A    between atoms: CA_86  and  C_91
REMARK   58  A    between atoms: CB_87  and  CG_88
REMARK   59  A    between atoms: N_93  and  CA_94
REMARK   60  A    between atoms: CA_94  and  CB_95
REMARK   61  A    between atoms: CA_94  and  C_100
REMARK   62  A    between atoms: CB_95  and  CG_96
REMARK   63  A    between atoms: CG_96  and  CD_97
REMARK   64  A    between atoms: CD_97  and  OE2_99
REMARK   65  A    between atoms: N_102  and  CA_103
REMARK   66  A    between atoms: CA_103  and  CB_104
REMARK   67  A    between atoms: CA_103  and  C_109
REMARK   68  A    between atoms: CB_104  and  CG_105
REMARK   69  A    between atoms: CG_105  and  CD_106
REMARK   70  A    between atoms: N_111  and  CA_112
REMARK   71  A    between atoms: CA_112  and  CB_113
REMARK   72  A    between atoms: CA_112  and  C_118
REMARK   73  A    between atoms: CB_113  and  CG_114
REMARK   74  A    between atoms: CG_114  and  CD_115
REMARK   75  A    between atoms: CD_115  and  OE2_117
REMARK   76  A    between atoms: N_120  and  CA_121
REMARK   77  A    between atoms: CA_121  and  CB_122
REMARK   78  A    between atoms: CA_121  and  C_126
REMARK   79  A    between atoms: CB_122  and  CG_123
REMARK   80  A    between atoms: CG_123  and  CD1_124
REMARK   81  A    between atoms: CG_123  and  CD2_125
REMARK   82  A    between atoms: N_128  and  CA_129
REMARK   83  A    between atoms: CA_129  and  CB_130
REMARK   84  A    between atoms: CA_129  and  C_134
REMARK   85  A    between atoms: CB_130  and  CG_131
REMARK   86  A    between atoms: CG_131  and  CD1_132
REMARK   87  A    between atoms: CG_131  and  CD2_133
REMARK   88  A    between atoms: N_136  and  CA_137
REMARK   89  A    between atoms: CA_137  and  CB_138
REMARK   90  A    between atoms: CA_137  and  C_143
REMARK   91  A    between atoms: CB_138  and  CG_139
REMARK   92  A    between atoms: CG_139  and  CD_140
REMARK   93  A    between atoms: CD_140  and  OE2_142
REMARK   94  A    between atoms: N_145  and  CA_146
REMARK   95  A    between atoms: CA_146  and  CB_147
REMARK   96  A    between atoms: CA_146  and  C_151
REMARK   97  A    between atoms: CB_147  and  CG_148
REMARK   98  A    between atoms: CG_148  and  CD1_149
REMARK   99  A    between atoms: CG_148  and  CD2_150
REMARK  100  A    between atoms: N_153  and  CA_154
REMARK  101  A    between atoms: CA_154  and  CB_155
REMARK  102  A    between atoms: CA_154  and  C_159
REMARK  103  A    between atoms: CB_155  and  CG_156
REMARK  104  A    between atoms: CG_156  and  OD2_158
REMARK  105  A    between atoms: N_161  and  CA_162
REMARK  106  A    between atoms: CA_162  and  CB_163
REMARK  107  A    between atoms: CA_162  and  C_168
REMARK  108  A    between atoms: CB_163  and  CG_164
REMARK  109  A    between atoms: CG_164  and  CD_165
REMARK  110  A    between atoms: CD_165  and  CE_166
REMARK  111  A    between atoms: CE_166  and  NZ_167
REMARK  112  A    between atoms: N_170  and  CA_171
REMARK  113  A    between atoms: CA_171  and  CB_172
REMARK  114  A    between atoms: CA_171  and  C_182
REMARK  115  A    between atoms: CB_172  and  CG_173
REMARK  116  A    between atoms: N_184  and  CA_185
REMARK  117  A    between atoms: CA_185  and  CB_186
REMARK  118  A    between atoms: CA_185  and  C_187
REMARK  119  A    between atoms: N_189  and  C_190
REMARK  120  A    between atoms: C_190  and  C_191
REMARK  121  A    between atoms: C_190  and  C_193
REMARK  122  A    between atoms: C_191  and  O_192
REMARK  123  A    between atoms: N_195  and  C_196
REMARK  124  A    between atoms: C_196  and  C_197
REMARK  125  A    between atoms: C_196  and  C_201
REMARK  126  A    between atoms: C_197  and  C_198
REMARK  127  A    between atoms: C_198  and  C_199
REMARK  128  A    between atoms: C_198  and  C_200
REMARK  129  A    between atoms: N_203  and  C_204
REMARK  130  A    between atoms: C_204  and  C_205
REMARK  131  A    between atoms: C_204  and  C_215
REMARK  132  A    between atoms: C_205  and  C_206
REMARK  133  A    between atoms: N_217  and  C_218
REMARK  134  A    between atoms: C_218  and  C_219
REMARK  135  A    between atoms: C_218  and  C_223
REMARK  136  A    between atoms: C_219  and  C_220
REMARK  137  A    between atoms: N_225  and  C_226
REMARK  138  A    between atoms: C_226  and  C_227
REMARK  139  A    between atoms: C_226  and  C_237
REMARK  140  A    between atoms: C_227  and  C_228
REMARK  141  A    between atoms: N_239  and  C_240
REMARK  142  A    between atoms: C_240  and  C_241
REMARK  143  A    between atoms: C_240  and  C_248
REMARK  144  A    between atoms: C_241  and  C_242
REMARK  145  A    between atoms: C_252  and  CA_254
REMARK  146  A    between atoms: CA_254  and  CB_255
REMARK  147  A    between atoms: CA_254  and  N_259
REMARK  148  A    between atoms: CB_255  and  CG_256
REMARK  149  A    between atoms: CG_256  and  CD1_257
REMARK  150  A    between atoms: CG_256  and  CD2_258
REMARK  151  A    between atoms: C_260  and  CA_262
REMARK  152  A    between atoms: CA_262  and  CB_263
REMARK  153  A    between atoms: CA_262  and  N_265
REMARK  154  A    between atoms: CB_263  and  O_264
REMARK  155  A    between atoms: C_266  and  CA_268
REMARK  156  A    between atoms: CA_268  and  CB_269
REMARK  157  A    between atoms: CA_268  and  N_275
REMARK  158  A    between atoms: CB_269  and  CG_270
REMARK  159  A    between atoms: C_276  and  CA_278
REMARK  160  A    between atoms: CA_278  and  CB_279
REMARK  161  A    between atoms: CA_278  and  N_283
REMARK  162  A    between atoms: CB_279  and  CG2_280
REMARK  163  A    between atoms: CB_279  and  CG1_281
REMARK  164  A    between atoms: CG1_281  and  CD1_282
REMARK  165  A    between atoms: C_284  and  CA_286
REMARK  166  A    between atoms: CA_286  and  CB_287
REMARK  167  A    between atoms: CA_286  and  N_291
REMARK  168  A    between atoms: CB_287  and  CG_288
REMARK  169  A    between atoms: CG_288  and  CD1_289
REMARK  170  A    between atoms: CG_288  and  CD2_290
REMARK  171  A    between atoms: C_292  and  CA_294
REMARK  172  A    between atoms: CA_294  and  CB_295
REMARK  173  A    between atoms: CA_294  and  N_297
REMARK  174  A    between atoms: CB_295  and  O_296
REMARK  175  A    between atoms: C_298  and  CA_300
REMARK  176  A    between atoms: CA_300  and  CB_301
REMARK  177  A    between atoms: CA_300  and  N_304
REMARK  178  A    between atoms: CB_301  and  CG2_302
REMARK  179  A    between atoms: CB_301  and  OG1_303
REMARK  180  A    between atoms: C_305  and  CA_307
REMARK  181  A    between atoms: CA_307  and  CB_308
REMARK  182  A    between atoms: CA_307  and  N_316
REMARK  183  A    between atoms: CB_308  and  CG_309
REMARK  184  A    between atoms: CZ_312  and  OH_315
REMARK  185  A    between atoms: C_317  and  C_319
REMARK                            x       y       z     vdW  Elec       q    Type
REMARK                         _______ _______ _______ _____ _____    ______ ____
ROOT
ATOM      1  CA  ASN A  11       4.261  25.596 -26.339  0.00  0.00    +0.168 C 
ENDROOT
BRANCH   1   3
ATOM      2  C   LYS A  10       5.455  24.135 -24.669  0.00  0.00    +0.234 C 
ATOM      3  N   ASN A  11       4.564  25.127 -24.987  0.00  0.00    -0.302 N 
ATOM      4  H   ASN A  11       4.215  25.735 -24.247  0.00  0.00    +0.150 HD
ATOM      5  O   LYS A  10       6.178  23.523 -25.447  0.00  0.00    -0.274 OA
BRANCH   2   6
ATOM      6  CA  LYS A  10       5.489  23.827 -23.204  0.00  0.00    +0.159 C 
BRANCH   6   8
ATOM      7  C   GLU A   9       5.757  22.008 -21.958  0.00  0.00    +0.234 C 
ATOM      8  N   LYS A  10       5.493  22.427 -23.198  0.00  0.00    -0.302 N 
ATOM      9  H   LYS A  10       6.018  21.998 -23.927  0.00  0.00    +0.150 HD
ATOM     10  O   GLU A   9       5.165  22.535 -21.018  0.00  0.00    -0.274 OA
BRANCH   7  11
ATOM     11  CA  GLU A   9       6.988  20.975 -21.914  0.00  0.00    +0.159 C 
BRANCH  11  13
ATOM     12  C   GLN A   8       8.728  18.838 -23.138  0.00  0.00    +0.234 C 
ATOM     13  N   GLU A   9       7.551  19.677 -22.288  0.00  0.00    -0.302 N 
ATOM     14  H   GLU A   9       6.577  19.396 -22.438  0.00  0.00    +0.150 HD
ATOM     15  O   GLN A   8       9.831  18.764 -22.647  0.00  0.00    -0.274 OA
BRANCH  12  16
ATOM     16  CA  GLN A   8       8.224  17.853 -24.767  0.00  0.00    +0.159 C 
BRANCH  16  18
ATOM     17  C   GLN A   7       5.259  18.104 -25.456  0.00  0.00    +0.234 C 
ATOM     18  N   GLN A   8       6.649  17.568 -25.642  0.00  0.00    -0.302 N 
ATOM     19  H   GLN A   8       6.768  17.263 -26.603  0.00  0.00    +0.150 HD
ATOM     20  O   GLN A   7       5.094  18.844 -24.487  0.00  0.00    -0.274 OA
BRANCH  17  21
ATOM     21  CA  GLN A   7       3.888  18.313 -26.356  0.00  0.00    +0.159 C 
BRANCH  21  23
ATOM     22  C   ASN A   6       1.773  17.394 -24.959  0.00  0.00    +0.234 C 
ATOM     23  N   GLN A   7       2.529  18.433 -25.493  0.00  0.00    -0.302 N 
ATOM     24  H   GLN A   7       2.702  19.078 -24.718  0.00  0.00    +0.150 HD
ATOM     25  O   ASN A   6       1.916  16.269 -25.432  0.00  0.00    -0.274 OA
BRANCH  22  26
ATOM     26  CA  ASN A   6       0.734  17.709 -23.633  0.00  0.00    +0.168 C 
BRANCH  26  28
ATOM     27  C   GLN A   5      -0.400  16.586 -21.412  0.00  0.00    +0.234 C 
ATOM     28  N   ASN A   6       0.575  16.664 -22.429  0.00  0.00    -0.302 N 
ATOM     29  H   ASN A   6       1.006  15.784 -22.632  0.00  0.00    +0.150 HD
ATOM     30  O   GLN A   5      -1.369  17.346 -21.379  0.00  0.00    -0.274 OA
BRANCH  27  31
ATOM     31  CA  GLN A   5      -0.205  15.487 -20.120  0.00  0.00    +0.159 C 
BRANCH  31  33
ATOM     32  C   SER A   4       0.564  16.053 -17.653  0.00  0.00    +0.236 C 
ATOM     33  N   GLN A   5      -0.370  16.046 -18.686  0.00  0.00    -0.302 N 
ATOM     34  H   GLN A   5      -1.211  16.612 -18.590  0.00  0.00    +0.150 HD
ATOM     35  O   SER A   4       1.448  15.194 -17.551  0.00  0.00    -0.274 OA
BRANCH  32  36
ATOM     36  CA  SER A   4       0.696  17.462 -16.770  0.00  0.00    +0.184 C 
BRANCH  36  38
ATOM     37  C   GLU A   3       3.092  19.168 -16.869  0.00  0.00    +0.234 C 
ATOM     38  N   SER A   4       2.239  17.937 -16.726  0.00  0.00    -0.301 N 
ATOM     39  H   SER A   4       2.647  17.134 -16.300  0.00  0.00    +0.150 HD
ATOM     40  O   GLU A   3       2.575  20.117 -17.473  0.00  0.00    -0.274 OA
BRANCH  37  41
ATOM     41  CA  GLU A   3       4.613  19.485 -15.796  0.00  0.00    +0.159 C 
BRANCH  41  43
ATOM     42  C   GLU A   2       6.858  18.640 -17.196  0.00  0.00    +0.234 C 
ATOM     43  N   GLU A   3       6.037  19.498 -16.410  0.00  0.00    -0.302 N 
ATOM     44  H   GLU A   3       6.642  19.832 -15.670  0.00  0.00    +0.150 HD
ATOM     45  O   GLU A   2       6.823  17.432 -17.417  0.00  0.00    -0.274 OA
BRANCH  42  46
ATOM     46  CA  GLU A   2       7.814  19.185 -18.175  0.00  0.00    +0.159 C 
BRANCH  46  48
ATOM     47  C   TYR A   1       7.679  17.874 -21.018  0.00  0.00    +0.234 C 
ATOM     48  N   GLU A   2       7.246  18.377 -19.724  0.00  0.00    -0.302 N 
ATOM     49  H   GLU A   2       6.461  17.816 -19.419  0.00  0.00    +0.150 HD
ATOM     50  O   TYR A   1       8.863  17.493 -20.983  0.00  0.00    -0.274 OA
BRANCH  47  51
ATOM     51  CA  TYR A   1       6.815  17.879 -22.854  0.00  0.00    +0.162 C 
BRANCH  51  52
ATOM     52  N   TYR A   1       5.743  16.948 -22.647  0.00  0.00    -0.302 N 
ATOM     53  H   TYR A   1       5.834  16.424 -21.798  0.00  0.00    +0.150 HD
ATOM     54  C   TYR A   1       4.475  16.856 -23.126  0.00  0.00    +0.234 C 
ATOM     55  O   TYR A   1       3.733  17.603 -23.624  0.00  0.00    -0.274 OA
BRANCH  54  56
ATOM     56  CA  TYR A   1       3.619  15.754 -22.522  0.00  0.00    +0.159 C 
BRANCH  56  57
ATOM     57  N   TYR A   1       3.408  16.155 -21.194  0.00  0.00    -0.302 N 
ATOM     58  H   TYR A   1       2.534  15.761 -20.905  0.00  0.00    +0.150 HD
ATOM     59  C   TYR A   1       3.464  17.484 -20.800  0.00  0.00    +0.236 C 
ATOM     60  O   TYR A   1       3.577  18.473 -21.501  0.00  0.00    -0.274 OA
BRANCH  59  61
ATOM     61  CA  TYR A   1       3.032  17.671 -19.427  0.00  0.00    +0.184 C 
BRANCH  61  62
ATOM     62  N   TYR A   1       3.522  16.566 -18.475  0.00  0.00    -0.301 N 
ATOM     63  H   TYR A   1       2.844  15.942 -18.059  0.00  0.00    +0.150 HD
ATOM     64  C   TYR A   1       4.449  17.038 -17.630  0.00  0.00    +0.234 C 
ATOM     65  O   TYR A   1       4.880  18.086 -18.106  0.00  0.00    -0.274 OA
BRANCH  64  66
ATOM     66  CA  TYR A   1       4.832  16.602 -16.089  0.00  0.00    +0.165 C 
BRANCH  66  67
ATOM     67  N   TYR A   1       6.201  15.785 -16.023  0.00  0.00    -0.302 N 
ATOM     68  H   TYR A   1       6.493  15.758 -17.003  0.00  0.00    +0.150 HD
ATOM     69  C   TYR A   1       7.377  16.387 -15.412  0.00  0.00    +0.234 C 
ATOM     70  O   TYR A   1       7.224  17.272 -14.565  0.00  0.00    -0.274 OA
BRANCH  69  71
ATOM     71  CA  TYR A   1       8.908  15.938 -15.932  0.00  0.00    +0.162 C 
BRANCH  71  72
ATOM     72  N   TYR A   1      10.056  16.913 -15.744  0.00  0.00    -0.302 N 
ATOM     73  H   TYR A   1      10.831  16.706 -16.355  0.00  0.00    +0.150 HD
ATOM     74  C   TYR A   1      10.387  17.684 -14.641  0.00  0.00    +0.234 C 
ATOM     75  O   TYR A   1       9.642  17.891 -13.700  0.00  0.00    -0.274 OA
BRANCH  74  76
ATOM     76  CA  TYR A   1      11.823  18.393 -14.643  0.00  0.00    +0.159 C 
BRANCH  76  77
ATOM     77  N   TYR A   1      11.791  19.879 -14.651  0.00  0.00    -0.302 N 
ATOM     78  H   TYR A   1      12.543  20.350 -14.165  0.00  0.00    +0.150 HD
ATOM     79  C   TYR A   1      11.355  20.549 -15.763  0.00  0.00    +0.236 C 
ATOM     80  O   TYR A   1      11.048  19.878 -16.760  0.00  0.00    -0.274 OA
BRANCH  79  81
ATOM     81  CA  TYR A   1      11.256  22.224 -15.683  0.00  0.00    +0.184 C 
BRANCH  81  82
ATOM     82  N   TYR A   1       9.989  22.903 -14.927  0.00  0.00    -0.300 N 
ATOM     83  H   TYR A   1       9.465  22.199 -14.399  0.00  0.00    +0.150 HD
ATOM     84  C   TYR A   1       9.341  24.124 -15.202  0.00  0.00    +0.237 C 
ATOM     85  O   TYR A   1       9.813  24.889 -16.045  0.00  0.00    -0.274 OA
BRANCH  84  86
ATOM     86  CA  TYR A   1       7.904  24.522 -14.520  0.00  0.00    +0.187 C 
BRANCH  86  87
ATOM     87  N   TYR A   1       7.810  23.939 -13.184  0.00  0.00    -0.300 N 
ATOM     88  H   TYR A   1       8.535  23.291 -12.928  0.00  0.00    +0.150 HD
ATOM     89  C   TYR A   1       6.872  24.349 -12.248  0.00  0.00    +0.234 C 
ATOM     90  O   TYR A   1       6.067  25.247 -12.468  0.00  0.00    -0.274 OA
BRANCH  89  91
ATOM     91  CA  TYR A   1       6.942  23.644 -10.867  0.00  0.00    +0.163 C 
BRANCH  91  92
ATOM     92  N   TYR A   1       7.331  24.633  -9.869  0.00  0.00    -0.304 N 
ATOM     93  H   TYR A   1       6.756  24.723  -9.040  0.00  0.00    +0.149 HD
ATOM     94  C   UNK A   0       8.563  25.236  -9.901  0.00  0.00    +0.211 C 
ATOM     95  C   UNK A   0       8.826  26.187  -8.768  0.00  0.00    +0.109 C 
ATOM     96  O   UNK A   0       9.389  25.024 -10.784  0.00  0.00    -0.276 OA
ENDBRANCH  91  92
BRANCH  91  97
ATOM     97  CB  TYR A   1       7.795  22.364 -10.886  0.00  0.00    +0.067 C 
BRANCH  97  98
ATOM     98  CG  TYR A   1       7.925  21.627  -9.585  0.00  0.00    -0.045 A 
ATOM     99  CD2 TYR A   1       8.941  21.965  -8.687  0.00  0.00    +0.007 A 
ATOM    100  CE2 TYR A   1       9.123  21.226  -7.521  0.00  0.00    +0.045 A 
ATOM    101  CZ  TYR A   1       8.287  20.152  -7.247  0.00  0.00    +0.117 A 
ATOM    102  CE1 TYR A   1       7.276  19.796  -8.126  0.00  0.00    +0.045 A 
ATOM    103  CD1 TYR A   1       7.110  20.533  -9.294  0.00  0.00    +0.007 A 
BRANCH 101 104
ATOM    104  OH  TYR A   1       8.504  19.449  -6.102  0.00  0.00    -0.507 OA
ATOM    105  HH  TYR A   1       7.827  18.754  -6.039  0.00  0.00    +0.292 HD
ENDBRANCH 101 104
ENDBRANCH  97  98
ENDBRANCH  91  97
ENDBRANCH  89  91
ENDBRANCH  86  87
BRANCH  86 106
ATOM    106  CB  TYR A   1       6.568  24.192 -15.244  0.00  0.00    +0.141 C 
ATOM    107  CG2 TYR A   1       6.455  24.574 -16.725  0.00  0.00    +0.040 C 
BRANCH 106 108
ATOM    108  OG1 TYR A   1       6.217  22.853 -14.930  0.00  0.00    -0.390 OA
ATOM    109  HG1 TYR A   1       6.959  22.430 -14.433  0.00  0.00    +0.210 HD
ENDBRANCH 106 108
ENDBRANCH  86 106
ENDBRANCH  84  86
ENDBRANCH  81  82
BRANCH  81 110
ATOM    110  CB  TYR A   1      11.553  22.723 -17.185  0.00  0.00    +0.187 C 
BRANCH 110 111
ATOM    111  O   TYR A   1      10.720  22.234 -18.280  0.00  0.00    -0.393 OA
ATOM    112  H   TYR A   1      10.879  21.259 -18.359  0.00  0.00    +0.209 HD
ENDBRANCH 110 111
ENDBRANCH  81 110
ENDBRANCH  79  81
ENDBRANCH  76  77
BRANCH  76 113
ATOM    113  CB  TYR A   1      12.789  17.774 -15.652  0.00  0.00    +0.034 C 
BRANCH 113 114
ATOM    114  CG  TYR A   1      14.229  18.281 -15.631  0.00  0.00    -0.015 C 
ATOM    115  CD2 TYR A   1      14.971  17.403 -16.611  0.00  0.00    +0.007 C 
ATOM    116  CD1 TYR A   1      14.985  18.188 -14.318  0.00  0.00    +0.007 C 
ENDBRANCH 113 114
ENDBRANCH  76 113
ENDBRANCH  74  76
ENDBRANCH  71  72
BRANCH  71 117
ATOM    117  CB  TYR A   1       9.061  15.359 -17.417  0.00  0.00    +0.015 C 
ATOM    118  CG2 TYR A   1       9.373  16.400 -18.477  0.00  0.00    +0.010 C 
BRANCH 117 119
ATOM    119  CG1 TYR A   1      10.190  14.346 -17.668  0.00  0.00    +0.002 C 
ATOM    120  CD1 TYR A   1      10.018  13.088 -16.867  0.00  0.00    +0.004 C 
ENDBRANCH 117 119
ENDBRANCH  71 117
ENDBRANCH  69  71
ENDBRANCH  66  67
BRANCH  66 121
ATOM    121  CB  TYR A   1       3.832  16.977 -14.697  0.00  0.00    +0.086 C 
BRANCH 121 122
ATOM    122  CG  TYR A   1       2.518  18.247 -14.401  0.00  0.00    +0.038 A 
ATOM    123  ND1 TYR A   1       2.139  19.597 -14.848  0.00  0.00    -0.348 N 
ATOM    124  HD1 TYR A   1       2.592  20.303 -15.417  0.00  0.00    +0.166 HD
ATOM    125  CE1 TYR A   1       0.870  19.938 -14.548  0.00  0.00    +0.196 A 
ATOM    126  NE2 TYR A   1       0.412  19.030 -13.681  0.00  0.00    -0.244 NA
ATOM    127  CD2 TYR A   1       1.431  18.089 -13.560  0.00  0.00    +0.133 A 
ENDBRANCH 121 122
ENDBRANCH  66 121
ENDBRANCH  64  66
ENDBRANCH  61  62
BRANCH  61 128
ATOM    128  CB  TYR A   1       1.582  17.669 -19.568  0.00  0.00    +0.187 C 
BRANCH 128 129
ATOM    129  O   TYR A   1       0.798  18.487 -20.351  0.00  0.00    -0.393 OA
ATOM    130  H   TYR A   1      -0.133  18.423 -20.035  0.00  0.00    +0.209 HD
ENDBRANCH 128 129
ENDBRANCH  61 128
ENDBRANCH  59  61
ENDBRANCH  56  57
BRANCH  56 131
ATOM    131  CB  TYR A   1       4.126  14.413 -22.772  0.00  0.00    +0.034 C 
BRANCH 131 132
ATOM    132  CG  TYR A   1       2.889  13.535 -22.628  0.00  0.00    -0.015 C 
ATOM    133  CD2 TYR A   1       3.348  12.111 -22.544  0.00  0.00    +0.007 C 
ATOM    134  CD1 TYR A   1       1.871  13.665 -23.769  0.00  0.00    +0.007 C 
ENDBRANCH 131 132
ENDBRANCH  56 131
ENDBRANCH  54  56
ENDBRANCH  51  52
BRANCH  51 135
ATOM    135  CB  TYR A   1       7.036  19.545 -24.178  0.00  0.00    +0.015 C 
ATOM    136  CG2 TYR A   1       7.048  19.893 -25.890  0.00  0.00    +0.010 C 
BRANCH 135 138
ATOM    137  CD1 TYR A   1       9.730  21.053 -23.689  0.00  0.00    +0.004 C 
ATOM    138  CG1 TYR A   1       8.240  21.049 -24.053  0.00  0.00    +0.002 C 
ENDBRANCH 135 138
ENDBRANCH  51 135
ENDBRANCH  47  51
ENDBRANCH  46  48
BRANCH  46 139
ATOM    139  CB  GLU A   2       7.603  20.683 -17.924  0.00  0.00    +0.043 C 
BRANCH 139 140
ATOM    140  CG  GLU A   2       7.296  21.727 -16.928  0.00  0.00    +0.123 C 
BRANCH 140 141
ATOM    141  CD  GLU A   2       8.247  21.300 -15.946  0.00  0.00    +0.305 C 
ATOM    142  OE1 GLU A   2       8.113  20.954 -14.854  0.00  0.00    -0.251 OA
BRANCH 141 143
ATOM    143  OE2 GLU A   2       9.380  21.428 -16.643  0.00  0.00    -0.481 OA
ATOM    144  HE2 GLU A   2       9.439  22.049 -17.436  0.00  0.00    +0.295 HD
ENDBRANCH 141 143
ENDBRANCH 140 141
ENDBRANCH 139 140
ENDBRANCH  46 139
ENDBRANCH  42  46
ENDBRANCH  41  43
BRANCH  41 145
ATOM    145  CB  GLU A   3       4.555  20.652 -14.560  0.00  0.00    +0.043 C 
BRANCH 145 146
ATOM    146  CG  GLU A   3       3.816  20.580 -13.131  0.00  0.00    +0.123 C 
BRANCH 146 147
ATOM    147  CD  GLU A   3       4.066  19.468 -12.076  0.00  0.00    +0.305 C 
ATOM    148  OE1 GLU A   3       3.878  18.272 -12.139  0.00  0.00    -0.251 OA
BRANCH 147 149
ATOM    149  OE2 GLU A   3       4.422  19.996 -10.891  0.00  0.00    -0.481 OA
ATOM    150  HE2 GLU A   3       4.538  20.963 -10.917  0.00  0.00    +0.295 HD
ENDBRANCH 147 149
ENDBRANCH 146 147
ENDBRANCH 145 146
ENDBRANCH  41 145
ENDBRANCH  37  41
ENDBRANCH  36  38
BRANCH  36 151
ATOM    151  CB  SER A   4      -0.340  18.571 -17.062  0.00  0.00    +0.187 C 
BRANCH 151 152
ATOM    152  OG  SER A   4       0.068  19.608 -17.946  0.00  0.00    -0.393 OA
ATOM    153  H   SER A   4       1.033  19.780 -17.838  0.00  0.00    +0.209 HD
ENDBRANCH 151 152
ENDBRANCH  36 151
ENDBRANCH  32  36
ENDBRANCH  31  33
BRANCH  31 154
ATOM    154  CB  GLN A   5      -1.255  14.446 -20.270  0.00  0.00    +0.041 C 
BRANCH 154 155
ATOM    155  CG  GLN A   5      -0.987  13.789 -21.591  0.00  0.00    +0.098 C 
BRANCH 155 156
ATOM    156  CD  GLN A   5      -2.090  12.838 -21.907  0.00  0.00    +0.211 C 
ATOM    157  NE2 GLN A   5      -1.905  12.256 -23.117  0.00  0.00    -0.329 N 
ATOM    158 HE21 GLN A   5      -2.629  11.625 -23.446  0.00  0.00    +0.145 HD
ATOM    159 HE22 GLN A   5      -1.151  12.496 -23.738  0.00  0.00    +0.145 HD
ATOM    160  OE1 GLN A   5      -3.045  12.624 -21.187  0.00  0.00    -0.276 OA
ENDBRANCH 155 156
ENDBRANCH 154 155
ENDBRANCH  31 154
ENDBRANCH  27  31
ENDBRANCH  26  28
BRANCH  26 161
ATOM    161  CB  ASN A   6       0.601  19.210 -23.213  0.00  0.00    +0.127 C 
BRANCH 161 162
ATOM    162  CG  ASN A   6       1.721  20.016 -22.544  0.00  0.00    +0.213 C 
ATOM    163  ND2 ASN A   6       1.495  20.513 -21.291  0.00  0.00    -0.329 N 
ATOM    164 HD21 ASN A   6       2.371  20.644 -20.795  0.00  0.00    +0.145 HD
ATOM    165 HD22 ASN A   6       0.898  19.916 -20.723  0.00  0.00    +0.145 HD
ATOM    166  OD1 ASN A   6       2.722  20.412 -23.130  0.00  0.00    -0.276 OA
ENDBRANCH 161 162
ENDBRANCH  26 161
ENDBRANCH  22  26
ENDBRANCH  21  23
BRANCH  21 167
ATOM    167  CB  GLN A   7       3.952  19.768 -26.940  0.00  0.00    +0.041 C 
BRANCH 167 168
ATOM    168  CG  GLN A   7       3.949  20.829 -25.836  0.00  0.00    +0.098 C 
BRANCH 168 169
ATOM    169  CD  GLN A   7       3.783  22.195 -26.317  0.00  0.00    +0.211 C 
ATOM    170  NE2 GLN A   7       3.073  22.892 -25.364  0.00  0.00    -0.329 N 
ATOM    171 HE21 GLN A   7       3.367  23.845 -25.313  0.00  0.00    +0.145 HD
ATOM    172 HE22 GLN A   7       3.028  22.496 -24.425  0.00  0.00    +0.145 HD
ATOM    173  OE1 GLN A   7       4.304  22.651 -27.320  0.00  0.00    -0.276 OA
ENDBRANCH 168 169
ENDBRANCH 167 168
ENDBRANCH  21 167
ENDBRANCH  17  21
ENDBRANCH  16  18
BRANCH  16 174
ATOM    174  CB  GLN A   8       9.432  18.403 -25.628  0.00  0.00    +0.041 C 
BRANCH 174 175
ATOM    175  CG  GLN A   8      10.862  18.137 -25.049  0.00  0.00    +0.098 C 
BRANCH 175 176
ATOM    176  CD  GLN A   8      11.142  16.821 -24.337  0.00  0.00    +0.211 C 
ATOM    177  NE2 GLN A   8      10.261  16.334 -23.439  0.00  0.00    -0.329 N 
ATOM    178 HE21 GLN A   8      10.647  15.489 -23.046  0.00  0.00    +0.145 HD
ATOM    179 HE22 GLN A   8      10.073  17.009 -22.687  0.00  0.00    +0.145 HD
ATOM    180  OE1 GLN A   8      12.169  16.160 -24.412  0.00  0.00    -0.276 OA
ENDBRANCH 175 176
ENDBRANCH 174 175
ENDBRANCH  16 174
ENDBRANCH  12  16
ENDBRANCH  11  13
BRANCH  11 181
ATOM    181  CB  GLU A   9       7.964  21.331 -20.943  0.00  0.00    +0.043 C 
BRANCH 181 182
ATOM    182  CG  GLU A   9       6.866  21.256 -19.969  0.00  0.00    +0.123 C 
BRANCH 182 183
ATOM    183  CD  GLU A   9       5.461  20.398 -19.741  0.00  0.00    +0.305 C 
ATOM    184  OE1 GLU A   9       5.223  19.305 -20.166  0.00  0.00    -0.251 OA
BRANCH 183 185
ATOM    185  OE2 GLU A   9       4.571  21.075 -19.000  0.00  0.00    -0.481 OA
ATOM    186  HE2 GLU A   9       4.253  21.737 -19.641  0.00  0.00    +0.295 HD
ENDBRANCH 183 185
ENDBRANCH 182 183
ENDBRANCH 181 182
ENDBRANCH  11 181
ENDBRANCH   7  11
ENDBRANCH   6   8
BRANCH   6 187
ATOM    187  CB  LYS A  10       6.797  24.433 -22.728  0.00  0.00    +0.032 C 
BRANCH 187 188
ATOM    188  CG  LYS A  10       6.553  25.908 -22.853  0.00  0.00    +0.003 C 
BRANCH 188 189
ATOM    189  CD  LYS A  10       5.389  26.437 -21.994  0.00  0.00    +0.015 C 
BRANCH 189 190
ATOM    190  CE  LYS A  10       5.544  26.107 -20.522  0.00  0.00    +0.077 C 
BRANCH 190 191
ATOM    191  NZ  LYS A  10       6.786  26.717 -20.188  0.00  0.00    -0.330 NA
ATOM    192  HZ1 LYS A  10       6.959  26.849 -19.204  0.00  0.00    +0.118 HD
ATOM    193  HZ2 LYS A  10       7.534  26.187 -20.619  0.00  0.00    +0.118 HD
ENDBRANCH 190 191
ENDBRANCH 189 190
ENDBRANCH 188 189
ENDBRANCH 187 188
ENDBRANCH   6 187
ENDBRANCH   2   6
ENDBRANCH   1   3
BRANCH   1 194
ATOM    194  C   ASN A  11       4.824  26.987 -26.637  0.00  0.00    +0.234 C 
ATOM    195  N   GLU A  12       5.979  27.320 -25.956  0.00  0.00    -0.302 N 
ATOM    196  H   GLU A  12       6.537  26.536 -25.658  0.00  0.00    +0.150 HD
ATOM    197  O   ASN A  11       4.314  27.694 -27.500  0.00  0.00    -0.274 OA
BRANCH 195 198
ATOM    198  CA  GLU A  12       6.633  28.624 -26.110  0.00  0.00    +0.159 C 
BRANCH 198 199
ATOM    199  C   GLU A  12       7.956  28.776 -25.252  0.00  0.00    +0.234 C 
ATOM    200  N   GLN A  13       8.670  27.645 -24.879  0.00  0.00    -0.302 N 
ATOM    201  H   GLN A  13       8.519  26.793 -25.410  0.00  0.00    +0.150 HD
ATOM    202  O   GLU A  12       8.422  29.890 -25.005  0.00  0.00    -0.274 OA
BRANCH 200 203
ATOM    203  CA  GLN A  13      10.006  27.722 -24.183  0.00  0.00    +0.159 C 
BRANCH 203 204
ATOM    204  C   GLN A  13      10.605  26.267 -24.006  0.00  0.00    +0.234 C 
ATOM    205  N   GLU A  14      11.810  26.132 -23.321  0.00  0.00    -0.302 N 
ATOM    206  H   GLU A  14      12.241  26.944 -22.886  0.00  0.00    +0.150 HD
ATOM    207  O   GLN A  13      10.011  25.292 -24.474  0.00  0.00    -0.274 OA
BRANCH 205 208
ATOM    208  CA  GLU A  14      12.514  24.827 -23.067  0.00  0.00    +0.159 C 
BRANCH 208 209
ATOM    209  C   GLU A  14      13.793  25.006 -22.140  0.00  0.00    +0.234 C 
ATOM    210  N   LEU A  15      14.400  23.822 -21.737  0.00  0.00    -0.302 N 
ATOM    211  H   LEU A  15      13.823  22.984 -21.756  0.00  0.00    +0.150 HD
ATOM    212  O   GLU A  14      14.216  26.120 -21.836  0.00  0.00    -0.274 OA
BRANCH 210 213
ATOM    213  CA  LEU A  15      15.700  23.671 -21.040  0.00  0.00    +0.159 C 
BRANCH 213 214
ATOM    214  C   LEU A  15      16.581  22.453 -21.561  0.00  0.00    +0.234 C 
ATOM    215  N   LEU A  16      15.943  21.276 -21.919  0.00  0.00    -0.302 N 
ATOM    216  H   LEU A  16      14.928  21.243 -21.918  0.00  0.00    +0.150 HD
ATOM    217  O   LEU A  15      17.813  22.499 -21.490  0.00  0.00    -0.274 OA
BRANCH 215 218
ATOM    218  CA  LEU A  16      16.654  20.058 -22.418  0.00  0.00    +0.159 C 
BRANCH 218 219
ATOM    219  C   LEU A  16      16.335  19.717 -23.925  0.00  0.00    +0.234 C 
ATOM    220  N   GLU A  17      16.906  18.548 -24.423  0.00  0.00    -0.302 N 
ATOM    221  H   GLU A  17      17.209  17.848 -23.760  0.00  0.00    +0.150 HD
ATOM    222  O   LEU A  16      15.662  20.462 -24.633  0.00  0.00    -0.274 OA
BRANCH 220 223
ATOM    223  CA  GLU A  17      16.644  18.025 -25.787  0.00  0.00    +0.159 C 
BRANCH 223 224
ATOM    224  C   GLU A  17      15.427  17.046 -25.885  0.00  0.00    +0.234 C 
ATOM    225  N   LEU A  18      15.057  16.707 -27.192  0.00  0.00    -0.302 N 
ATOM    226  H   LEU A  18      15.631  17.054 -27.949  0.00  0.00    +0.150 HD
ATOM    227  O   GLU A  17      14.927  16.562 -24.876  0.00  0.00    -0.274 OA
BRANCH 225 228
ATOM    228  CA  LEU A  18      14.002  15.718 -27.553  0.00  0.00    +0.159 C 
BRANCH 228 229
ATOM    229  C   LEU A  18      14.007  15.414 -29.073  0.00  0.00    +0.234 C 
ATOM    230  N   ASP A  19      13.860  16.517 -29.895  0.00  0.00    -0.302 N 
ATOM    231  H   ASP A  19      13.820  17.446 -29.478  0.00  0.00    +0.150 HD
ATOM    232  O   LEU A  18      13.964  14.265 -29.510  0.00  0.00    -0.274 OA
BRANCH 230 233
ATOM    233  CA  ASP A  19      13.726  16.472 -31.368  0.00  0.00    +0.169 C 
BRANCH 233 234
ATOM    234  C   ASP A  19      13.580  17.920 -31.936  0.00  0.00    +0.234 C 
ATOM    235  N   LYS A  20      13.581  18.040 -33.317  0.00  0.00    -0.302 N 
ATOM    236  H   LYS A  20      13.648  17.216 -33.905  0.00  0.00    +0.150 HD
ATOM    237  O   ASP A  19      13.509  18.877 -31.163  0.00  0.00    -0.274 OA
BRANCH 235 238
ATOM    238  CA  LYS A  20      13.399  19.313 -34.071  0.00  0.00    +0.159 C 
BRANCH 238 239
ATOM    239  C   LYS A  20      13.514  19.076 -35.617  0.00  0.00    +0.234 C 
ATOM    240  N   TRP A  21      13.484  20.204 -36.427  0.00  0.00    -0.302 N 
ATOM    241  H   TRP A  21      13.305  21.122 -36.029  0.00  0.00    +0.150 HD
ATOM    242  O   LYS A  20      13.683  17.938 -36.062  0.00  0.00    -0.274 OA
BRANCH 240 243
ATOM    243  CA  TRP A  21      13.724  20.204 -37.898  0.00  0.00    +0.163 C 
BRANCH 243 244
ATOM    244  C   TRP A  21      13.704  21.674 -38.467  0.00  0.00    +0.234 C 
ATOM    245  N   ALA A  22      14.037  21.848 -39.806  0.00  0.00    -0.303 N 
ATOM    246  H   ALA A  22      14.250  21.042 -40.384  0.00  0.00    +0.149 HD
ATOM    247  O   TRP A  21      13.430  22.628 -37.736  0.00  0.00    -0.274 OA
BRANCH 245 248
ATOM    248  CA  ALA A  22      13.931  23.148 -40.517  0.00  0.00    +0.156 C 
ATOM    249  CB  ALA A  22      14.944  24.158 -39.990  0.00  0.00    +0.038 C 
BRANCH 248 250
ATOM    250  C   ALA A  22      14.157  22.984 -42.058  0.00  0.00    +0.234 C 
ATOM    251  N   UNK A  23      13.525  23.909 -42.882  0.00  0.00    -0.301 N 
ATOM    252  H   UNK A  23      13.247  24.765 -42.422  0.00  0.00    +0.150 HD
ATOM    253  O   ALA A  22      14.884  22.095 -42.503  0.00  0.00    -0.274 OA
BRANCH 251 254
ATOM    254  C   UNK A  23      13.711  23.983 -44.367  0.00  0.00    +0.184 C 
BRANCH 254 255
ATOM    255  C   UNK A  23      12.990  25.195 -45.081  0.00  0.00    +0.236 C 
ATOM    256  N   UNK A  23      12.085  25.926 -44.332  0.00  0.00    -0.302 N 
ATOM    257  H   UNK A  23      11.923  25.700 -43.358  0.00  0.00    +0.150 HD
ATOM    258  O   UNK A  23      13.173  25.435 -46.273  0.00  0.00    -0.274 OA
BRANCH 256 259
ATOM    259  C   UNK A  23      11.227  27.049 -44.826  0.00  0.00    +0.159 C 
BRANCH 259 260
ATOM    260  C   UNK A  23      10.434  27.565 -43.570  0.00  0.00    +0.234 C 
ATOM    261  N   UNK A  23       9.569  28.616 -43.775  0.00  0.00    -0.302 N 
ATOM    262  H   UNK A  23       9.690  29.206 -44.591  0.00  0.00    +0.150 HD
ATOM    263  O   UNK A  23      10.588  27.029 -42.470  0.00  0.00    -0.274 OA
BRANCH 261 264
ATOM    264  C   UNK A  23       8.587  29.174 -42.808  0.00  0.00    +0.163 C 
BRANCH 264 265
ATOM    265  C   UNK A  23       7.677  30.232 -43.553  0.00  0.00    +0.234 C 
ATOM    266  N   UNK A  23       6.654  30.816 -42.826  0.00  0.00    -0.302 N 
ATOM    267  H   UNK A  23       6.479  30.525 -41.869  0.00  0.00    +0.150 HD
ATOM    268  O   UNK A  23       7.872  30.501 -44.740  0.00  0.00    -0.274 OA
BRANCH 266 269
ATOM    269  C   UNK A  23       5.673  31.810 -43.350  0.00  0.00    +0.168 C 
BRANCH 269 270
ATOM    270  C   UNK A  23       4.615  32.181 -42.244  0.00  0.00    +0.234 C 
ATOM    271  N   UNK A  23       3.619  33.085 -42.593  0.00  0.00    -0.302 N 
ATOM    272  H   UNK A  23       3.663  33.604 -43.465  0.00  0.00    +0.150 HD
ATOM    273  O   UNK A  23       4.688  31.688 -41.119  0.00  0.00    -0.274 OA
BRANCH 271 274
ATOM    274  C   UNK A  23       2.484  33.476 -41.703  0.00  0.00    +0.163 C 
BRANCH 274 275
ATOM    275  C   UNK A  23       1.567  34.527 -42.416  0.00  0.00    +0.234 C 
ATOM    276  N   UNK A  23       0.433  34.923 -41.728  0.00  0.00    -0.302 N 
ATOM    277  H   UNK A  23       0.242  34.568 -40.795  0.00  0.00    +0.150 HD
ATOM    278  O   UNK A  23       1.845  34.959 -43.537  0.00  0.00    -0.274 OA
BRANCH 276 279
ATOM    279  C   UNK A  23      -0.456  36.021 -42.152  0.00  0.00    +0.163 C 
BRANCH 279 280
ATOM    280  C   UNK A  23      -1.496  36.308 -41.040  0.00  0.00    +0.231 C 
ATOM    281  N   UNK A  23      -2.386  37.323 -41.263  0.00  0.00    -0.328 N 
ATOM    282  H   UNK A  23      -3.106  37.484 -40.569  0.00  0.00    +0.145 HD
ATOM    283  H   UNK A  23      -2.405  37.886 -42.102  0.00  0.00    +0.145 HD
ATOM    284  O   UNK A  23      -1.531  35.685 -39.979  0.00  0.00    -0.274 OA
ENDBRANCH 279 280
BRANCH 279 285
ATOM    285  C   UNK A  23      -1.148  35.764 -43.500  0.00  0.00    +0.067 C 
BRANCH 285 286
ATOM    286  C   UNK A  23      -2.030  34.537 -43.538  0.00  0.00    -0.045 A 
ATOM    287  C   UNK A  23      -1.502  33.311 -43.962  0.00  0.00    +0.004 A 
ATOM    288  C   UNK A  23      -2.322  32.188 -44.069  0.00  0.00    +0.000 A 
ATOM    289  C   UNK A  23      -3.671  32.274 -43.733  0.00  0.00    +0.000 A 
ATOM    290  C   UNK A  23      -4.197  33.477 -43.269  0.00  0.00    +0.000 A 
ATOM    291  C   UNK A  23      -3.382  34.604 -43.173  0.00  0.00    +0.004 A 
ENDBRANCH 285 286
ENDBRANCH 279 285
ENDBRANCH 276 279
ENDBRANCH 274 275
BRANCH 274 292
ATOM    292  C   UNK A  23       2.921  34.044 -40.335  0.00  0.00    +0.069 C 
BRANCH 292 293
ATOM    293  C   UNK A  23       3.612  35.368 -40.477  0.00  0.00    -0.020 A 
ATOM    294  C   UNK A  23       3.136  36.642 -40.030  0.00  0.00    +0.003 A 
ATOM    295  C   UNK A  23       4.012  37.606 -40.532  0.00  0.00    +0.047 A 
ATOM    296  C   UNK A  23       3.830  38.977 -40.328  0.00  0.00    +0.026 A 
ATOM    297  C   UNK A  23       2.734  39.377 -39.559  0.00  0.00    +0.002 A 
ATOM    298  C   UNK A  23       1.846  38.441 -39.035  0.00  0.00    +0.001 A 
ATOM    299  N   UNK A  23       4.999  36.942 -41.219  0.00  0.00    -0.360 N 
ATOM    300  H   UNK A  23       5.756  37.390 -41.716  0.00  0.00    +0.165 HD
ATOM    301  C   UNK A  23       2.026  37.074 -39.274  0.00  0.00    +0.010 A 
ATOM    302  C   UNK A  23       4.803  35.594 -41.140  0.00  0.00    +0.087 A 
ENDBRANCH 292 293
ENDBRANCH 274 292
ENDBRANCH 271 274
ENDBRANCH 269 270
BRANCH 269 303
ATOM    303  C   UNK A  23       4.937  31.342 -44.610  0.00  0.00    +0.127 C 
BRANCH 303 304
ATOM    304  C   UNK A  23       4.020  30.182 -44.304  0.00  0.00    +0.213 C 
ATOM    305  N   UNK A  23       2.956  30.057 -45.146  0.00  0.00    -0.329 N 
ATOM    306  H   UNK A  23       2.383  29.237 -44.988  0.00  0.00    +0.145 HD
ATOM    307  H   UNK A  23       2.992  30.426 -46.086  0.00  0.00    +0.145 HD
ATOM    308  O   UNK A  23       4.179  29.378 -43.394  0.00  0.00    -0.276 OA
ENDBRANCH 303 304
ENDBRANCH 269 303
ENDBRANCH 266 269
ENDBRANCH 264 265
BRANCH 264 309
ATOM    309  C   UNK A  23       9.291  29.817 -41.607  0.00  0.00    +0.069 C 
BRANCH 309 310
ATOM    310  C   UNK A  23      10.121  30.995 -42.031  0.00  0.00    -0.020 A 
ATOM    311  C   UNK A  23       9.890  32.361 -41.689  0.00  0.00    +0.003 A 
ATOM    312  C   UNK A  23      10.764  33.130 -42.456  0.00  0.00    +0.047 A 
ATOM    313  C   UNK A  23      10.780  34.526 -42.414  0.00  0.00    +0.026 A 
ATOM    314  C   UNK A  23       9.899  35.153 -41.530  0.00  0.00    +0.002 A 
ATOM    315  C   UNK A  23       9.022  34.412 -40.739  0.00  0.00    +0.001 A 
ATOM    316  N   UNK A  23      11.527  32.265 -43.200  0.00  0.00    -0.360 N 
ATOM    317  H   UNK A  23      12.226  32.544 -43.873  0.00  0.00    +0.165 HD
ATOM    318  C   UNK A  23       8.995  33.017 -40.822  0.00  0.00    +0.010 A 
ATOM    319  C   UNK A  23      11.202  30.976 -42.893  0.00  0.00    +0.087 A 
ENDBRANCH 309 310
ENDBRANCH 264 309
ENDBRANCH 261 264
ENDBRANCH 259 260
BRANCH 259 320
ATOM    320  C   UNK A  23      10.247  26.568 -45.925  0.00  0.00    +0.034 C 
BRANCH 320 321
ATOM    321  C   UNK A  23       9.304  27.629 -46.541  0.00  0.00    -0.015 C 
ATOM    322  C   UNK A  23       8.303  27.000 -47.505  0.00  0.00    +0.007 C 
ATOM    323  C   UNK A  23      10.038  28.795 -47.209  0.00  0.00    +0.007 C 
ENDBRANCH 320 321
ENDBRANCH 259 320
ENDBRANCH 256 259
ENDBRANCH 254 255
BRANCH 254 324
ATOM    324  C   UNK A  23      13.261  22.705 -45.131  0.00  0.00    +0.187 C 
BRANCH 324 325
ATOM    325  O   UNK A  23      13.981  21.512 -44.826  0.00  0.00    -0.393 OA
ATOM    326  H   UNK A  23      14.532  21.665 -44.029  0.00  0.00    +0.209 HD
ENDBRANCH 324 325
ENDBRANCH 254 324
ENDBRANCH 251 254
ENDBRANCH 248 250
ENDBRANCH 245 248
ENDBRANCH 243 244
BRANCH 243 327
ATOM    327  CB  TRP A  21      12.727  19.304 -38.655  0.00  0.00    +0.069 C 
BRANCH 327 328
ATOM    328  CG  TRP A  21      11.310  19.745 -38.442  0.00  0.00    -0.020 A 
ATOM    329  CD2 TRP A  21      10.574  20.682 -39.233  0.00  0.00    +0.003 A 
ATOM    330  CE2 TRP A  21       9.393  20.961 -38.547  0.00  0.00    +0.047 A 
ATOM    331  CZ2 TRP A  21       8.467  21.911 -38.991  0.00  0.00    +0.026 A 
ATOM    332  CH2 TRP A  21       8.748  22.581 -40.186  0.00  0.00    +0.002 A 
ATOM    333  CZ3 TRP A  21       9.905  22.306 -40.909  0.00  0.00    +0.001 A 
ATOM    334  NE1 TRP A  21       9.371  20.158 -37.431  0.00  0.00    -0.360 N 
ATOM    335  HE1 TRP A  21       8.637  20.159 -36.738  0.00  0.00    +0.165 HD
ATOM    336  CE3 TRP A  21      10.820  21.357 -40.445  0.00  0.00    +0.010 A 
ATOM    337  CD1 TRP A  21      10.495  19.381 -37.388  0.00  0.00    +0.087 A 
ENDBRANCH 327 328
ENDBRANCH 243 327
ENDBRANCH 240 243
ENDBRANCH 238 239
BRANCH 238 338
ATOM    338  CB  LYS A  20      14.456  20.344 -33.678  0.00  0.00    +0.032 C 
BRANCH 338 339
ATOM    339  CG  LYS A  20      15.864  19.865 -34.062  0.00  0.00    +0.003 C 
BRANCH 339 340
ATOM    340  CD  LYS A  20      16.937  20.886 -33.720  0.00  0.00    +0.015 C 
BRANCH 340 341
ATOM    341  CE  LYS A  20      16.963  21.177 -32.225  0.00  0.00    +0.077 C 
BRANCH 341 342
ATOM    342  NZ  LYS A  20      18.026  22.116 -31.909  0.00  0.00    -0.330 NA
ATOM    343  HZ1 LYS A  20      18.039  22.248 -30.898  0.00  0.00    +0.118 HD
ATOM    344  HZ2 LYS A  20      18.923  21.704 -32.154  0.00  0.00    +0.118 HD
ENDBRANCH 341 342
ENDBRANCH 340 341
ENDBRANCH 339 340
ENDBRANCH 338 339
ENDBRANCH 238 338
ENDBRANCH 235 238
ENDBRANCH 233 234
BRANCH 233 345
ATOM    345  CB  ASP A  19      12.594  15.571 -31.860  0.00  0.00    +0.152 C 
BRANCH 345 346
ATOM    346  CG  ASP A  19      11.236  16.098 -31.478  0.00  0.00    +0.307 C 
ATOM    347  OD1 ASP A  19      10.772  17.155 -31.877  0.00  0.00    -0.251 OA
BRANCH 346 348
ATOM    348  OD2 ASP A  19      10.537  15.273 -30.670  0.00  0.00    -0.481 OA
ATOM    349  HD2 ASP A  19      11.028  14.472 -30.398  0.00  0.00    +0.295 HD
ENDBRANCH 346 348
ENDBRANCH 345 346
ENDBRANCH 233 345
ENDBRANCH 230 233
ENDBRANCH 228 229
BRANCH 228 350
ATOM    350  CB  LEU A  18      12.606  16.268 -27.234  0.00  0.00    +0.034 C 
BRANCH 350 351
ATOM    351  CG  LEU A  18      11.408  15.284 -27.401  0.00  0.00    -0.015 C 
ATOM    352  CD2 LEU A  18      10.050  15.946 -27.251  0.00  0.00    +0.007 C 
ATOM    353  CD1 LEU A  18      11.392  14.035 -26.526  0.00  0.00    +0.007 C 
ENDBRANCH 350 351
ENDBRANCH 228 350
ENDBRANCH 225 228
ENDBRANCH 223 224
BRANCH 223 354
ATOM    354  CB  GLU A  17      17.865  17.217 -26.279  0.00  0.00    +0.043 C 
BRANCH 354 355
ATOM    355  CG  GLU A  17      19.174  17.996 -26.327  0.00  0.00    +0.123 C 
BRANCH 355 356
ATOM    356  CD  GLU A  17      19.073  19.196 -27.233  0.00  0.00    +0.305 C 
ATOM    357  OE1 GLU A  17      18.321  19.269 -28.193  0.00  0.00    -0.251 OA
BRANCH 356 358
ATOM    358  OE2 GLU A  17      19.945  20.173 -26.910  0.00  0.00    -0.481 OA
ATOM    359  HE2 GLU A  17      20.489  19.986 -26.121  0.00  0.00    +0.295 HD
ENDBRANCH 356 358
ENDBRANCH 355 356
ENDBRANCH 354 355
ENDBRANCH 223 354
ENDBRANCH 220 223
ENDBRANCH 218 219
BRANCH 218 360
ATOM    360  CB  LEU A  16      16.267  18.840 -21.583  0.00  0.00    +0.034 C 
BRANCH 360 361
ATOM    361  CG  LEU A  16      16.545  18.957 -20.101  0.00  0.00    -0.015 C 
ATOM    362  CD2 LEU A  16      17.997  19.113 -19.660  0.00  0.00    +0.007 C 
ATOM    363  CD1 LEU A  16      16.006  17.701 -19.466  0.00  0.00    +0.007 C 
ENDBRANCH 360 361
ENDBRANCH 218 360
ENDBRANCH 215 218
ENDBRANCH 213 214
BRANCH 213 364
ATOM    364  CB  LEU A  15      15.421  23.542 -19.529  0.00  0.00    +0.034 C 
BRANCH 364 365
ATOM    365  CG  LEU A  15      16.647  23.451 -18.596  0.00  0.00    -0.015 C 
ATOM    366  CD2 LEU A  15      16.174  23.257 -17.148  0.00  0.00    +0.007 C 
ATOM    367  CD1 LEU A  15      17.569  24.671 -18.657  0.00  0.00    +0.007 C 
ENDBRANCH 364 365
ENDBRANCH 213 364
ENDBRANCH 210 213
ENDBRANCH 208 209
BRANCH 208 368
ATOM    368  CB  GLU A  14      12.904  24.185 -24.420  0.00  0.00    +0.043 C 
BRANCH 368 369
ATOM    369  CG  GLU A  14      13.712  22.894 -24.402  0.00  0.00    +0.123 C 
BRANCH 369 370
ATOM    370  CD  GLU A  14      13.039  21.777 -23.662  0.00  0.00    +0.305 C 
ATOM    371  OE1 GLU A  14      13.017  21.697 -22.435  0.00  0.00    -0.251 OA
BRANCH 370 372
ATOM    372  OE2 GLU A  14      12.448  20.884 -24.461  0.00  0.00    -0.481 OA
ATOM    373  HE2 GLU A  14      12.454  21.131 -25.404  0.00  0.00    +0.295 HD
ENDBRANCH 370 372
ENDBRANCH 369 370
ENDBRANCH 368 369
ENDBRANCH 208 368
ENDBRANCH 205 208
ENDBRANCH 203 204
BRANCH 203 374
ATOM    374  CB  GLN A  13       9.969  28.482 -22.830  0.00  0.00    +0.041 C 
BRANCH 374 375
ATOM    375  CG  GLN A  13       9.093  27.786 -21.818  0.00  0.00    +0.098 C 
BRANCH 375 376
ATOM    376  CD  GLN A  13       9.117  28.297 -20.399  0.00  0.00    +0.211 C 
ATOM    377  NE2 GLN A  13       9.268  27.330 -19.434  0.00  0.00    -0.329 N 
ATOM    378 HE21 GLN A  13       8.938  27.619 -18.520  0.00  0.00    +0.145 HD
ATOM    379 HE22 GLN A  13       9.109  26.354 -19.644  0.00  0.00    +0.145 HD
ATOM    380  OE1 GLN A  13       8.895  29.461 -20.096  0.00  0.00    -0.276 OA
ENDBRANCH 375 376
ENDBRANCH 374 375
ENDBRANCH 203 374
ENDBRANCH 200 203
ENDBRANCH 198 199
BRANCH 198 381
ATOM    381  CB  GLU A  12       5.617  29.759 -25.771  0.00  0.00    +0.043 C 
BRANCH 381 382
ATOM    382  CG  GLU A  12       6.053  31.200 -26.035  0.00  0.00    +0.123 C 
BRANCH 382 383
ATOM    383  CD  GLU A  12       6.422  31.477 -27.473  0.00  0.00    +0.305 C 
ATOM    384  OE1 GLU A  12       6.297  30.702 -28.406  0.00  0.00    -0.251 OA
BRANCH 383 385
ATOM    385  OE2 GLU A  12       6.912  32.728 -27.637  0.00  0.00    -0.481 OA
ATOM    386  HE2 GLU A  12       6.978  33.225 -26.800  0.00  0.00    +0.295 HD
ENDBRANCH 383 385
ENDBRANCH 382 383
ENDBRANCH 381 382
ENDBRANCH 198 381
ENDBRANCH 195 198
ENDBRANCH   1 194
BRANCH   1 387
ATOM    387  CB  ASN A  11       2.730  25.617 -26.571  0.00  0.00    +0.127 C 
BRANCH 387 388
ATOM    388  CG  ASN A  11       2.018  26.377 -25.468  0.00  0.00    +0.213 C 
ATOM    389  ND2 ASN A  11       0.662  26.230 -25.455  0.00  0.00    -0.329 N 
ATOM    390 HD21 ASN A  11       0.173  26.698 -24.703  0.00  0.00    +0.145 HD
ATOM    391 HD22 ASN A  11       0.245  25.371 -25.794  0.00  0.00    +0.145 HD
ATOM    392  OD1 ASN A  11       2.583  27.033 -24.599  0.00  0.00    -0.276 OA
ENDBRANCH 387 388
ENDBRANCH   1 387
TORSDOF 166
