REMARK  Name = 
REMARK  17 active torsions:
REMARK  status: ('A' for Active; 'I' for Inactive)
REMARK    1  A    between atoms: C_1  and  C_2
REMARK    2  A    between atoms: C_2  and  C_3
REMARK    3  A    between atoms: C_2  and  C_4
REMARK    4  A    between atoms: C_2  and  N_5
REMARK    5  A    between atoms: C_6  and  C_8
REMARK    6  A    between atoms: N_20  and  C_21
REMARK    7  A    between atoms: C_21  and  C_22
REMARK    8  A    between atoms: C_22  and  C_24
REMARK    9  A    between atoms: C_22  and  O_55
REMARK   10  A    between atoms: C_24  and  C_26
REMARK   11  A    between atoms: C_24  and  N_33
REMARK   12  A    between atoms: C_26  and  C_27
REMARK   13  A    between atoms: C_34  and  C_36
REMARK   14  A    between atoms: C_36  and  C_38
REMARK   15  A    between atoms: C_36  and  N_42
REMARK   16  A    between atoms: C_38  and  C_39
REMARK   17  A    between atoms: C_43  and  C_45
REMARK                            x       y       z     vdW  Elec       q    Type
REMARK                         _______ _______ _______ _____ _____    ______ ____
ROOT
ATOM      1  C   UNL     1       1.381   4.695  -1.971  0.00  0.00    +0.107 C 
ENDROOT
BRANCH   1   2
ATOM      2  N   UNL     1       2.103   4.302  -0.758  0.00  0.00    -0.308 N 
ATOM      3  H   UNL     1       1.532   4.138   0.064  0.00  0.00    +0.149 HD
ATOM      4  C   UNL     1       3.467   4.103  -0.743  0.00  0.00    +0.234 C 
ATOM      5  O   UNL     1       4.163   4.196  -1.759  0.00  0.00    -0.274 OA
BRANCH   4   6
ATOM      6  C   UNL     1       4.073   3.701   0.620  0.00  0.00    +0.168 C 
BRANCH   6   7
ATOM      7  N   UNL     1       5.509   3.462   0.458  0.00  0.00    -0.298 N 
ATOM      8  H   UNL     1       5.922   3.620  -0.465  0.00  0.00    +0.150 HD
ATOM      9  C   UNL     1       6.303   2.893   1.425  0.00  0.00    +0.263 C 
ATOM     10  O   UNL     1       5.901   2.623   2.552  0.00  0.00    -0.269 OA
BRANCH   9  11
ATOM     11  C   UNL     1       7.727   2.652   1.030  0.00  0.00    +0.126 A 
ATOM     12  C   UNL     1       8.624   2.165   1.969  0.00  0.00    +0.033 A 
ATOM     13  C   UNL     1       9.934   1.941   1.564  0.00  0.00    +0.012 A 
ATOM     14  C   UNL     1      10.302   2.196   0.236  0.00  0.00    +0.000 A 
ATOM     15  C   UNL     1       9.318   2.701  -0.644  0.00  0.00    +0.072 A 
ATOM     16  C   UNL     1       9.681   2.945  -1.961  0.00  0.00    +0.028 A 
ATOM     17  C   UNL     1      10.974   2.689  -2.426  0.00  0.00    +0.002 A 
ATOM     18  C   UNL     1      11.938   2.189  -1.556  0.00  0.00    +0.001 A 
ATOM     19  C   UNL     1      11.606   1.949  -0.225  0.00  0.00    +0.010 A 
ATOM     20  N   UNL     1       8.053   2.940  -0.258  0.00  0.00    -0.242 NA
ENDBRANCH   9  11
ENDBRANCH   6   7
BRANCH   6  21
ATOM     21  C   UNL     1       3.744   4.707   1.723  0.00  0.00    +0.127 C 
BRANCH  21  22
ATOM     22  C   UNL     1       4.348   6.059   1.446  0.00  0.00    +0.213 C 
ATOM     23  N   UNL     1       5.591   6.265   1.963  0.00  0.00    -0.329 N 
ATOM     24  H   UNL     1       6.063   7.128   1.724  0.00  0.00    +0.145 HD
ATOM     25  H   UNL     1       6.138   5.508   2.353  0.00  0.00    +0.145 HD
ATOM     26  O   UNL     1       3.773   6.928   0.800  0.00  0.00    -0.276 OA
ENDBRANCH  21  22
ENDBRANCH   6  21
ENDBRANCH   4   6
ENDBRANCH   1   2
BRANCH   1  27
ATOM     27  C   UNL     1       0.273   5.726  -1.640  0.00  0.00    +0.149 C 
BRANCH  27  28
ATOM     28  O   UNL     1      -0.713   5.201  -0.748  0.00  0.00    -0.389 OA
ATOM     29  H   UNL     1      -1.423   5.870  -0.724  0.00  0.00    +0.210 HD
ENDBRANCH  27  28
BRANCH  27  30
ATOM     30  C   UNL     1      -0.405   6.277  -2.924  0.00  0.00    +0.118 C 
BRANCH  30  32
ATOM     31  C   UNL     1      -1.888   7.953  -3.997  0.00  0.00    +0.143 C 
ATOM     32  N   UNL     1      -1.367   7.390  -2.701  0.00  0.00    -0.289 NA
ATOM     33  C   UNL     1      -0.728   8.526  -1.974  0.00  0.00    +0.089 C 
ATOM     34  C   UNL     1       0.458   9.164  -2.737  0.00  0.00    +0.006 C 
ATOM     35  C   UNL     1       0.017   9.677  -4.109  0.00  0.00    -0.005 C 
ATOM     36  C   UNL     1      -0.779  10.993  -4.066  0.00  0.00    +0.004 C 
ATOM     37  C   UNL     1      -0.650  11.898  -2.839  0.00  0.00    +0.000 C 
ATOM     38  C   UNL     1       0.199  11.432  -1.662  0.00  0.00    +0.000 C 
ATOM     39  C   UNL     1       1.149  10.296  -1.979  0.00  0.00    +0.005 C 
ATOM     40  C   UNL     1      -0.778   8.601  -4.862  0.00  0.00    +0.032 C 
BRANCH  31  43
ATOM     41  N   UNL     1      -3.497   6.038  -4.257  0.00  0.00    -0.309 N 
ATOM     42  H   UNL     1      -3.507   6.048  -3.242  0.00  0.00    +0.149 HD
ATOM     43  C   UNL     1      -2.719   6.992  -4.877  0.00  0.00    +0.231 C 
ATOM     44  O   UNL     1      -2.758   7.154  -6.101  0.00  0.00    -0.274 OA
BRANCH  41  46
ATOM     45  C   UNL     1      -3.675   4.407  -6.139  0.00  0.00    +0.031 C 
ATOM     46  C   UNL     1      -4.413   5.140  -5.000  0.00  0.00    +0.026 C 
ATOM     47  C   UNL     1      -4.973   4.069  -4.049  0.00  0.00    +0.031 C 
ATOM     48  C   UNL     1      -5.604   5.924  -5.585  0.00  0.00    +0.031 C 
ENDBRANCH  41  46
ENDBRANCH  31  43
ENDBRANCH  30  32
ENDBRANCH  27  30
ENDBRANCH   1  27
BRANCH   1  49
ATOM     49  C   UNL     1       0.964   3.482  -2.828  0.00  0.00    +0.060 C 
BRANCH  49  50
ATOM     50  C   UNL     1       0.015   2.464  -2.241  0.00  0.00    -0.046 A 
ATOM     51  C   UNL     1       0.512   1.304  -1.631  0.00  0.00    +0.004 A 
ATOM     52  C   UNL     1      -0.356   0.293  -1.214  0.00  0.00    +0.000 A 
ATOM     53  C   UNL     1      -1.732   0.436  -1.378  0.00  0.00    +0.000 A 
ATOM     54  C   UNL     1      -2.240   1.600  -1.946  0.00  0.00    +0.000 A 
ATOM     55  C   UNL     1      -1.373   2.604  -2.378  0.00  0.00    +0.004 A 
ENDBRANCH  49  50
ENDBRANCH   1  49
TORSDOF 14
