REMARK  Name = 
REMARK  17 active torsions:
REMARK  status: ('A' for Active; 'I' for Inactive)
REMARK    1  A    between atoms: C_1  and  C_2
REMARK    2  A    between atoms: C_2  and  C_3
REMARK    3  A    between atoms: C_2  and  C_4
REMARK    4  A    between atoms: C_2  and  N_5
REMARK    5  A    between atoms: C_6  and  C_8
REMARK    6  A    between atoms: N_20  and  C_21
REMARK    7  A    between atoms: C_21  and  C_22
REMARK    8  A    between atoms: C_22  and  C_24
REMARK    9  A    between atoms: C_22  and  O_55
REMARK   10  A    between atoms: C_24  and  C_26
REMARK   11  A    between atoms: C_24  and  N_33
REMARK   12  A    between atoms: C_26  and  C_27
REMARK   13  A    between atoms: C_34  and  C_36
REMARK   14  A    between atoms: C_36  and  C_38
REMARK   15  A    between atoms: C_36  and  N_42
REMARK   16  A    between atoms: C_38  and  C_39
REMARK   17  A    between atoms: C_43  and  C_45
REMARK                            x       y       z     vdW  Elec       q    Type
REMARK                         _______ _______ _______ _____ _____    ______ ____
ROOT
ATOM      1  C   UNL     1       8.683   7.652  -0.056  0.00  0.00    +0.107 C 
ENDROOT
BRANCH   1   2
ATOM      2  N   UNL     1       7.656   7.571  -1.098  0.00  0.00    -0.308 N 
ATOM      3  H   UNL     1       7.693   6.810  -1.772  0.00  0.00    +0.149 HD
ATOM      4  C   UNL     1       6.672   8.524  -1.242  0.00  0.00    +0.234 C 
ATOM      5  O   UNL     1       6.546   9.467  -0.463  0.00  0.00    -0.274 OA
BRANCH   4   6
ATOM      6  C   UNL     1       5.662   8.291  -2.381  0.00  0.00    +0.168 C 
BRANCH   6   7
ATOM      7  N   UNL     1       6.080   7.280  -3.350  0.00  0.00    -0.298 N 
ATOM      8  H   UNL     1       5.913   6.291  -3.156  0.00  0.00    +0.150 HD
ATOM      9  C   UNL     1       6.917   7.604  -4.397  0.00  0.00    +0.263 C 
ATOM     10  O   UNL     1       7.293   8.751  -4.618  0.00  0.00    -0.269 OA
BRANCH   9  11
ATOM     11  C   UNL     1       7.395   6.463  -5.238  0.00  0.00    +0.126 A 
ATOM     12  C   UNL     1       8.248   6.739  -6.297  0.00  0.00    +0.033 A 
ATOM     13  C   UNL     1       8.777   5.673  -7.008  0.00  0.00    +0.012 A 
ATOM     14  C   UNL     1       8.422   4.371  -6.662  0.00  0.00    +0.000 A 
ATOM     15  C   UNL     1       7.508   4.182  -5.595  0.00  0.00    +0.072 A 
ATOM     16  C   UNL     1       7.138   2.876  -5.293  0.00  0.00    +0.028 A 
ATOM     17  C   UNL     1       7.668   1.780  -5.978  0.00  0.00    +0.002 A 
ATOM     18  C   UNL     1       8.586   1.977  -7.009  0.00  0.00    +0.001 A 
ATOM     19  C   UNL     1       8.959   3.272  -7.352  0.00  0.00    +0.010 A 
ATOM     20  N   UNL     1       7.003   5.210  -4.881  0.00  0.00    -0.242 NA
ENDBRANCH   9  11
ENDBRANCH   6   7
BRANCH   6  21
ATOM     21  C   UNL     1       4.286   8.026  -1.772  0.00  0.00    +0.127 C 
BRANCH  21  22
ATOM     22  C   UNL     1       4.255   6.746  -0.971  0.00  0.00    +0.213 C 
ATOM     23  N   UNL     1       3.342   6.720   0.039  0.00  0.00    -0.329 N 
ATOM     24  H   UNL     1       3.318   5.898   0.628  0.00  0.00    +0.145 HD
ATOM     25  H   UNL     1       2.836   7.541   0.346  0.00  0.00    +0.145 HD
ATOM     26  O   UNL     1       4.940   5.762  -1.227  0.00  0.00    -0.276 OA
ENDBRANCH  21  22
ENDBRANCH   6  21
ENDBRANCH   4   6
ENDBRANCH   1   2
BRANCH   1  27
ATOM     27  C   UNL     1      10.052   8.177  -0.588  0.00  0.00    +0.149 C 
BRANCH  27  28
ATOM     28  O   UNL     1      10.898   8.463   0.536  0.00  0.00    -0.389 OA
ATOM     29  H   UNL     1      11.659   8.962   0.187  0.00  0.00    +0.210 HD
ENDBRANCH  27  28
BRANCH  27  30
ATOM     30  C   UNL     1       9.933   9.438  -1.500  0.00  0.00    +0.118 C 
BRANCH  30  32
ATOM     31  C   UNL     1      12.190   9.152  -2.542  0.00  0.00    +0.143 C 
ATOM     32  N   UNL     1      11.214  10.095  -1.918  0.00  0.00    -0.289 NA
ATOM     33  C   UNL     1      10.917  11.229  -2.842  0.00  0.00    +0.089 C 
ATOM     34  C   UNL     1      10.551  10.837  -4.290  0.00  0.00    +0.006 C 
ATOM     35  C   UNL     1      11.617   9.903  -4.884  0.00  0.00    -0.005 C 
ATOM     36  C   UNL     1      11.263   9.493  -6.317  0.00  0.00    +0.004 C 
ATOM     37  C   UNL     1      11.069  10.719  -7.207  0.00  0.00    +0.000 C 
ATOM     38  C   UNL     1      10.039  11.682  -6.621  0.00  0.00    +0.000 C 
ATOM     39  C   UNL     1      10.384  12.075  -5.184  0.00  0.00    +0.005 C 
ATOM     40  C   UNL     1      11.798   8.694  -3.959  0.00  0.00    +0.032 C 
BRANCH  31  43
ATOM     41  N   UNL     1      13.877  10.749  -1.644  0.00  0.00    -0.309 N 
ATOM     42  H   UNL     1      13.049  11.113  -1.180  0.00  0.00    +0.149 HD
ATOM     43  C   UNL     1      13.629   9.743  -2.561  0.00  0.00    +0.231 C 
ATOM     44  O   UNL     1      14.491   9.297  -3.316  0.00  0.00    -0.274 OA
BRANCH  41  46
ATOM     45  C   UNL     1      15.347  12.248  -2.965  0.00  0.00    +0.031 C 
ATOM     46  C   UNL     1      15.124  11.529  -1.621  0.00  0.00    +0.026 C 
ATOM     47  C   UNL     1      15.037  12.606  -0.524  0.00  0.00    +0.031 C 
ATOM     48  C   UNL     1      16.320  10.618  -1.296  0.00  0.00    +0.031 C 
ENDBRANCH  41  46
ENDBRANCH  31  43
ENDBRANCH  30  32
ENDBRANCH  27  30
ENDBRANCH   1  27
BRANCH   1  49
ATOM     49  C   UNL     1       8.798   6.313   0.726  0.00  0.00    +0.060 C 
BRANCH  49  50
ATOM     50  C   UNL     1       9.175   5.107  -0.109  0.00  0.00    -0.046 A 
ATOM     51  C   UNL     1       8.188   4.329  -0.730  0.00  0.00    +0.004 A 
ATOM     52  C   UNL     1       8.542   3.283  -1.584  0.00  0.00    +0.000 A 
ATOM     53  C   UNL     1       9.885   2.998  -1.818  0.00  0.00    +0.000 A 
ATOM     54  C   UNL     1      10.874   3.729  -1.164  0.00  0.00    +0.000 A 
ATOM     55  C   UNL     1      10.521   4.769  -0.303  0.00  0.00    +0.004 A 
ENDBRANCH  49  50
ENDBRANCH   1  49
TORSDOF 14
