REMARK  Name = 
REMARK  17 active torsions:
REMARK  status: ('A' for Active; 'I' for Inactive)
REMARK    1  A    between atoms: C_1  and  C_2
REMARK    2  A    between atoms: C_2  and  C_3
REMARK    3  A    between atoms: C_2  and  C_4
REMARK    4  A    between atoms: C_2  and  N_5
REMARK    5  A    between atoms: C_6  and  C_8
REMARK    6  A    between atoms: N_20  and  C_21
REMARK    7  A    between atoms: C_21  and  C_22
REMARK    8  A    between atoms: C_22  and  C_24
REMARK    9  A    between atoms: C_22  and  O_55
REMARK   10  A    between atoms: C_24  and  C_26
REMARK   11  A    between atoms: C_24  and  N_33
REMARK   12  A    between atoms: C_26  and  C_27
REMARK   13  A    between atoms: C_34  and  C_36
REMARK   14  A    between atoms: C_36  and  C_38
REMARK   15  A    between atoms: C_36  and  N_42
REMARK   16  A    between atoms: C_38  and  C_39
REMARK   17  A    between atoms: C_43  and  C_45
REMARK                            x       y       z     vdW  Elec       q    Type
REMARK                         _______ _______ _______ _____ _____    ______ ____
ROOT
ATOM      1  C   UNL     1       0.576  -2.861   0.449  0.00  0.00    +0.107 C 
ENDROOT
BRANCH   1   2
ATOM      2  N   UNL     1       1.689  -2.255  -0.302  0.00  0.00    -0.308 N 
ATOM      3  H   UNL     1       1.475  -1.474  -0.903  0.00  0.00    +0.149 HD
ATOM      4  C   UNL     1       2.935  -2.844  -0.376  0.00  0.00    +0.234 C 
ATOM      5  O   UNL     1       3.264  -3.781   0.336  0.00  0.00    -0.274 OA
BRANCH   4   6
ATOM      6  C   UNL     1       3.927  -2.157  -1.342  0.00  0.00    +0.168 C 
BRANCH   6   7
ATOM      7  N   UNL     1       3.257  -1.727  -2.584  0.00  0.00    -0.298 N 
ATOM      8  H   UNL     1       2.254  -1.579  -2.646  0.00  0.00    +0.150 HD
ATOM      9  C   UNL     1       3.932  -1.776  -3.786  0.00  0.00    +0.263 C 
ATOM     10  O   UNL     1       5.133  -2.023  -3.856  0.00  0.00    -0.269 OA
BRANCH   9  11
ATOM     11  C   UNL     1       3.112  -1.570  -5.026  0.00  0.00    +0.126 A 
ATOM     12  C   UNL     1       3.729  -1.759  -6.251  0.00  0.00    +0.033 A 
ATOM     13  C   UNL     1       2.957  -1.676  -7.396  0.00  0.00    +0.012 A 
ATOM     14  C   UNL     1       1.588  -1.413  -7.292  0.00  0.00    +0.000 A 
ATOM     15  C   UNL     1       1.040  -1.192  -6.005  0.00  0.00    +0.072 A 
ATOM     16  C   UNL     1      -0.323  -0.911  -5.939  0.00  0.00    +0.028 A 
ATOM     17  C   UNL     1      -1.135  -0.882  -7.084  0.00  0.00    +0.002 A 
ATOM     18  C   UNL     1      -0.586  -1.132  -8.335  0.00  0.00    +0.001 A 
ATOM     19  C   UNL     1       0.778  -1.388  -8.438  0.00  0.00    +0.010 A 
ATOM     20  N   UNL     1       1.787  -1.270  -4.877  0.00  0.00    -0.242 NA
ENDBRANCH   9  11
ENDBRANCH   6   7
BRANCH   6  21
ATOM     21  C   UNL     1       4.642  -0.981  -0.687  0.00  0.00    +0.127 C 
BRANCH  21  22
ATOM     22  C   UNL     1       5.460  -1.384   0.517  0.00  0.00    +0.213 C 
ATOM     23  N   UNL     1       6.532  -2.188   0.280  0.00  0.00    -0.329 N 
ATOM     24  H   UNL     1       7.106  -2.450   1.072  0.00  0.00    +0.145 HD
ATOM     25  H   UNL     1       6.822  -2.484  -0.643  0.00  0.00    +0.145 HD
ATOM     26  O   UNL     1       5.217  -0.975   1.648  0.00  0.00    -0.276 OA
ENDBRANCH  21  22
ENDBRANCH   6  21
ENDBRANCH   4   6
ENDBRANCH   1   2
BRANCH   1  27
ATOM     27  C   UNL     1       0.108  -4.202  -0.193  0.00  0.00    +0.149 C 
BRANCH  27  28
ATOM     28  O   UNL     1      -0.485  -4.048  -1.483  0.00  0.00    -0.389 OA
ATOM     29  H   UNL     1      -0.783  -4.944  -1.731  0.00  0.00    +0.210 HD
ENDBRANCH  27  28
BRANCH  27  30
ATOM     30  C   UNL     1      -0.847  -5.067   0.698  0.00  0.00    +0.118 C 
BRANCH  30  32
ATOM     31  C   UNL     1      -1.703  -7.403   1.163  0.00  0.00    +0.143 C 
ATOM     32  N   UNL     1      -0.952  -6.492   0.221  0.00  0.00    -0.289 NA
ATOM     33  C   UNL     1       0.416  -7.095   0.114  0.00  0.00    +0.089 C 
ATOM     34  C   UNL     1       1.207  -7.028   1.443  0.00  0.00    +0.006 C 
ATOM     35  C   UNL     1       0.465  -7.809   2.534  0.00  0.00    -0.005 C 
ATOM     36  C   UNL     1       0.673  -9.333   2.443  0.00  0.00    +0.004 C 
ATOM     37  C   UNL     1       1.856  -9.890   1.638  0.00  0.00    +0.000 C 
ATOM     38  C   UNL     1       2.736  -8.932   0.846  0.00  0.00    +0.000 C 
ATOM     39  C   UNL     1       2.654  -7.501   1.323  0.00  0.00    +0.005 C 
ATOM     40  C   UNL     1      -1.050  -7.456   2.568  0.00  0.00    +0.032 C 
BRANCH  31  43
ATOM     41  N   UNL     1      -3.915  -6.848   0.072  0.00  0.00    -0.309 N 
ATOM     42  H   UNL     1      -3.317  -6.625  -0.716  0.00  0.00    +0.149 HD
ATOM     43  C   UNL     1      -3.261  -7.239   1.226  0.00  0.00    +0.231 C 
ATOM     44  O   UNL     1      -3.884  -7.582   2.232  0.00  0.00    -0.274 OA
BRANCH  41  46
ATOM     45  C   UNL     1      -6.024  -5.862   1.010  0.00  0.00    +0.031 C 
ATOM     46  C   UNL     1      -5.395  -6.733  -0.094  0.00  0.00    +0.026 C 
ATOM     47  C   UNL     1      -5.692  -6.059  -1.450  0.00  0.00    +0.031 C 
ATOM     48  C   UNL     1      -6.114  -8.101  -0.097  0.00  0.00    +0.031 C 
ENDBRANCH  41  46
ENDBRANCH  31  43
ENDBRANCH  30  32
ENDBRANCH  27  30
ENDBRANCH   1  27
BRANCH   1  49
ATOM     49  C   UNL     1      -0.513  -1.817   0.742  0.00  0.00    +0.060 C 
BRANCH  49  50
ATOM     50  C   UNL     1      -1.288  -1.265  -0.431  0.00  0.00    -0.046 A 
ATOM     51  C   UNL     1      -0.844  -0.143  -1.147  0.00  0.00    +0.004 A 
ATOM     52  C   UNL     1      -1.613   0.379  -2.190  0.00  0.00    +0.000 A 
ATOM     53  C   UNL     1      -2.832  -0.208  -2.524  0.00  0.00    +0.000 A 
ATOM     54  C   UNL     1      -3.274  -1.330  -1.831  0.00  0.00    +0.000 A 
ATOM     55  C   UNL     1      -2.506  -1.856  -0.794  0.00  0.00    +0.004 A 
ENDBRANCH  49  50
ENDBRANCH   1  49
TORSDOF 14
