REMARK  Name = 
REMARK  17 active torsions:
REMARK  status: ('A' for Active; 'I' for Inactive)
REMARK    1  A    between atoms: C_1  and  C_2
REMARK    2  A    between atoms: C_2  and  C_3
REMARK    3  A    between atoms: C_2  and  C_4
REMARK    4  A    between atoms: C_2  and  N_5
REMARK    5  A    between atoms: C_6  and  C_8
REMARK    6  A    between atoms: N_20  and  C_21
REMARK    7  A    between atoms: C_21  and  C_22
REMARK    8  A    between atoms: C_22  and  C_24
REMARK    9  A    between atoms: C_22  and  O_55
REMARK   10  A    between atoms: C_24  and  C_26
REMARK   11  A    between atoms: C_24  and  N_33
REMARK   12  A    between atoms: C_26  and  C_27
REMARK   13  A    between atoms: C_34  and  C_36
REMARK   14  A    between atoms: C_36  and  C_38
REMARK   15  A    between atoms: C_36  and  N_42
REMARK   16  A    between atoms: C_38  and  C_39
REMARK   17  A    between atoms: C_43  and  C_45
REMARK                            x       y       z     vdW  Elec       q    Type
REMARK                         _______ _______ _______ _____ _____    ______ ____
ROOT
ATOM      1  C   UNL     1       0.949   5.939   4.798  0.00  0.00    +0.107 C 
ENDROOT
BRANCH   1   2
ATOM      2  N   UNL     1       2.311   5.424   5.044  0.00  0.00    -0.308 N 
ATOM      3  H   UNL     1       2.410   4.549   5.542  0.00  0.00    +0.149 HD
ATOM      4  C   UNL     1       3.441   6.073   4.600  0.00  0.00    +0.234 C 
ATOM      5  O   UNL     1       3.386   7.130   3.974  0.00  0.00    -0.274 OA
BRANCH   4   6
ATOM      6  C   UNL     1       4.767   5.310   4.812  0.00  0.00    +0.168 C 
BRANCH   6   7
ATOM      7  N   UNL     1       4.781   4.623   6.122  0.00  0.00    -0.298 N 
ATOM      8  H   UNL     1       4.063   4.837   6.818  0.00  0.00    +0.150 HD
ATOM      9  C   UNL     1       5.950   4.086   6.628  0.00  0.00    +0.263 C 
ATOM     10  O   UNL     1       6.993   4.035   5.972  0.00  0.00    -0.269 OA
BRANCH   9  11
ATOM     11  C   UNL     1       5.910   3.566   8.039  0.00  0.00    +0.126 A 
ATOM     12  C   UNL     1       7.043   2.923   8.522  0.00  0.00    +0.033 A 
ATOM     13  C   UNL     1       7.018   2.430   9.821  0.00  0.00    +0.012 A 
ATOM     14  C   UNL     1       5.874   2.599  10.600  0.00  0.00    +0.000 A 
ATOM     15  C   UNL     1       4.763   3.274  10.030  0.00  0.00    +0.072 A 
ATOM     16  C   UNL     1       3.645   3.431  10.843  0.00  0.00    +0.028 A 
ATOM     17  C   UNL     1       3.600   2.950  12.163  0.00  0.00    +0.002 A 
ATOM     18  C   UNL     1       4.692   2.289  12.698  0.00  0.00    +0.001 A 
ATOM     19  C   UNL     1       5.834   2.111  11.918  0.00  0.00    +0.010 A 
ATOM     20  N   UNL     1       4.771   3.750   8.764  0.00  0.00    -0.242 NA
ENDBRANCH   9  11
ENDBRANCH   6   7
BRANCH   6  21
ATOM     21  C   UNL     1       5.015   4.333   3.654  0.00  0.00    +0.127 C 
BRANCH  21  22
ATOM     22  C   UNL     1       5.017   5.022   2.310  0.00  0.00    +0.213 C 
ATOM     23  N   UNL     1       6.177   5.649   1.966  0.00  0.00    -0.329 N 
ATOM     24  H   UNL     1       6.215   6.075   1.049  0.00  0.00    +0.145 HD
ATOM     25  H   UNL     1       7.046   5.504   2.462  0.00  0.00    +0.145 HD
ATOM     26  O   UNL     1       4.049   5.025   1.556  0.00  0.00    -0.276 OA
ENDBRANCH  21  22
ENDBRANCH   6  21
ENDBRANCH   4   6
ENDBRANCH   1   2
BRANCH   1  27
ATOM     27  C   UNL     1       0.611   7.115   5.777  0.00  0.00    +0.149 C 
BRANCH  27  28
ATOM     28  O   UNL     1       0.548   6.629   7.127  0.00  0.00    -0.389 OA
ATOM     29  H   UNL     1       0.277   7.399   7.662  0.00  0.00    +0.210 HD
ENDBRANCH  27  28
BRANCH  27  30
ATOM     30  C   UNL     1      -0.722   7.858   5.443  0.00  0.00    +0.118 C 
BRANCH  30  32
ATOM     31  C   UNL     1      -0.081  10.124   6.327  0.00  0.00    +0.143 C 
ATOM     32  N   UNL     1      -1.079   9.003   6.339  0.00  0.00    -0.289 NA
ATOM     33  C   UNL     1      -2.432   9.524   6.008  0.00  0.00    +0.089 C 
ATOM     34  C   UNL     1      -2.531  10.431   4.770  0.00  0.00    +0.006 C 
ATOM     35  C   UNL     1      -1.462  11.536   4.747  0.00  0.00    -0.005 C 
ATOM     36  C   UNL     1      -1.547  12.311   3.422  0.00  0.00    +0.004 C 
ATOM     37  C   UNL     1      -2.938  12.931   3.246  0.00  0.00    +0.000 C 
ATOM     38  C   UNL     1      -4.055  11.898   3.396  0.00  0.00    +0.000 C 
ATOM     39  C   UNL     1      -3.917  11.092   4.686  0.00  0.00    +0.005 C 
ATOM     40  C   UNL     1      -0.079  10.936   5.016  0.00  0.00    +0.032 C 
BRANCH  31  43
ATOM     41  N   UNL     1      -0.930  10.468   8.629  0.00  0.00    -0.309 N 
ATOM     42  H   UNL     1      -1.268   9.530   8.435  0.00  0.00    +0.149 HD
ATOM     43  C   UNL     1      -0.297  11.070   7.558  0.00  0.00    +0.231 C 
ATOM     44  O   UNL     1       0.102  12.231   7.577  0.00  0.00    -0.274 OA
BRANCH  41  46
ATOM     45  C   UNL     1      -2.302  12.317   9.584  0.00  0.00    +0.031 C 
ATOM     46  C   UNL     1      -1.353  11.138   9.867  0.00  0.00    +0.026 C 
ATOM     47  C   UNL     1      -2.118  10.114  10.726  0.00  0.00    +0.031 C 
ATOM     48  C   UNL     1      -0.133  11.633  10.656  0.00  0.00    +0.031 C 
ENDBRANCH  41  46
ENDBRANCH  31  43
ENDBRANCH  30  32
ENDBRANCH  27  30
ENDBRANCH   1  27
BRANCH   1  49
ATOM     49  C   UNL     1      -0.051   4.760   4.854  0.00  0.00    +0.060 C 
BRANCH  49  50
ATOM     50  C   UNL     1       0.167   3.636   3.846  0.00  0.00    -0.046 A 
ATOM     51  C   UNL     1       0.631   3.865   2.543  0.00  0.00    +0.004 A 
ATOM     52  C   UNL     1       0.754   2.813   1.627  0.00  0.00    +0.000 A 
ATOM     53  C   UNL     1       0.410   1.516   1.997  0.00  0.00    +0.000 A 
ATOM     54  C   UNL     1      -0.054   1.270   3.285  0.00  0.00    +0.000 A 
ATOM     55  C   UNL     1      -0.178   2.321   4.201  0.00  0.00    +0.004 A 
ENDBRANCH  49  50
ENDBRANCH   1  49
TORSDOF 14
