REMARK  Name = 
REMARK  17 active torsions:
REMARK  status: ('A' for Active; 'I' for Inactive)
REMARK    1  A    between atoms: C_1  and  C_2
REMARK    2  A    between atoms: C_2  and  C_3
REMARK    3  A    between atoms: C_2  and  C_4
REMARK    4  A    between atoms: C_2  and  N_5
REMARK    5  A    between atoms: C_6  and  C_8
REMARK    6  A    between atoms: N_20  and  C_21
REMARK    7  A    between atoms: C_21  and  C_22
REMARK    8  A    between atoms: C_22  and  C_24
REMARK    9  A    between atoms: C_22  and  O_55
REMARK   10  A    between atoms: C_24  and  C_26
REMARK   11  A    between atoms: C_24  and  N_33
REMARK   12  A    between atoms: C_26  and  C_27
REMARK   13  A    between atoms: C_34  and  C_36
REMARK   14  A    between atoms: C_36  and  C_38
REMARK   15  A    between atoms: C_36  and  N_42
REMARK   16  A    between atoms: C_38  and  C_39
REMARK   17  A    between atoms: C_43  and  C_45
REMARK                            x       y       z     vdW  Elec       q    Type
REMARK                         _______ _______ _______ _____ _____    ______ ____
ROOT
ATOM      1  C   UNL     1       0.994   2.483  -1.324  0.00  0.00    +0.107 C 
ENDROOT
BRANCH   1   2
ATOM      2  N   UNL     1       2.364   2.044  -1.029  0.00  0.00    -0.308 N 
ATOM      3  H   UNL     1       2.633   1.930  -0.057  0.00  0.00    +0.149 HD
ATOM      4  C   UNL     1       3.393   2.094  -1.943  0.00  0.00    +0.234 C 
ATOM      5  O   UNL     1       3.197   2.399  -3.116  0.00  0.00    -0.274 OA
BRANCH   4   6
ATOM      6  C   UNL     1       4.730   1.497  -1.440  0.00  0.00    +0.168 C 
BRANCH   6   7
ATOM      7  N   UNL     1       4.864   1.678   0.021  0.00  0.00    -0.298 N 
ATOM      8  H   UNL     1       4.726   0.917   0.680  0.00  0.00    +0.150 HD
ATOM      9  C   UNL     1       5.307   2.888   0.512  0.00  0.00    +0.263 C 
ATOM     10  O   UNL     1       5.535   3.840  -0.228  0.00  0.00    -0.269 OA
BRANCH   9  11
ATOM     11  C   UNL     1       5.468   3.031   1.994  0.00  0.00    +0.126 A 
ATOM     12  C   UNL     1       6.135   4.160   2.442  0.00  0.00    +0.033 A 
ATOM     13  C   UNL     1       6.023   4.512   3.777  0.00  0.00    +0.012 A 
ATOM     14  C   UNL     1       5.342   3.669   4.648  0.00  0.00    +0.000 A 
ATOM     15  C   UNL     1       4.808   2.460   4.137  0.00  0.00    +0.072 A 
ATOM     16  C   UNL     1       4.235   1.595   5.064  0.00  0.00    +0.028 A 
ATOM     17  C   UNL     1       4.157   1.909   6.429  0.00  0.00    +0.002 A 
ATOM     18  C   UNL     1       4.625   3.133   6.893  0.00  0.00    +0.001 A 
ATOM     19  C   UNL     1       5.212   4.018   6.001  0.00  0.00    +0.010 A 
ATOM     20  N   UNL     1       4.841   2.146   2.815  0.00  0.00    -0.242 NA
ENDBRANCH   9  11
ENDBRANCH   6   7
BRANCH   6  21
ATOM     21  C   UNL     1       4.806   0.018  -1.804  0.00  0.00    +0.127 C 
BRANCH  21  22
ATOM     22  C   UNL     1       4.781  -0.181  -3.301  0.00  0.00    +0.213 C 
ATOM     23  N   UNL     1       3.563  -0.496  -3.831  0.00  0.00    -0.329 N 
ATOM     24  H   UNL     1       3.526  -0.463  -4.844  0.00  0.00    +0.145 HD
ATOM     25  H   UNL     1       2.715  -0.195  -3.367  0.00  0.00    +0.145 HD
ATOM     26  O   UNL     1       5.778  -0.084  -4.005  0.00  0.00    -0.276 OA
ENDBRANCH  21  22
ENDBRANCH   6  21
ENDBRANCH   4   6
ENDBRANCH   1   2
BRANCH   1  27
ATOM     27  C   UNL     1       0.766   4.011  -1.101  0.00  0.00    +0.149 C 
BRANCH  27  28
ATOM     28  O   UNL     1      -0.623   4.328  -1.303  0.00  0.00    -0.389 OA
ATOM     29  H   UNL     1      -0.654   5.300  -1.395  0.00  0.00    +0.210 HD
ENDBRANCH  27  28
BRANCH  27  30
ATOM     30  C   UNL     1       1.614   4.923  -2.048  0.00  0.00    +0.118 C 
BRANCH  30  32
ATOM     31  C   UNL     1       2.285   7.214  -2.782  0.00  0.00    +0.143 C 
ATOM     32  N   UNL     1       1.364   6.398  -1.907  0.00  0.00    -0.289 NA
ATOM     33  C   UNL     1       1.563   6.876  -0.522  0.00  0.00    +0.089 C 
ATOM     34  C   UNL     1       3.012   6.753  -0.034  0.00  0.00    +0.006 C 
ATOM     35  C   UNL     1       3.975   7.557  -0.926  0.00  0.00    -0.005 C 
ATOM     36  C   UNL     1       5.427   7.394  -0.467  0.00  0.00    +0.004 C 
ATOM     37  C   UNL     1       5.587   7.745   1.013  0.00  0.00    +0.000 C 
ATOM     38  C   UNL     1       4.561   7.043   1.889  0.00  0.00    +0.000 C 
ATOM     39  C   UNL     1       3.131   7.218   1.423  0.00  0.00    +0.005 C 
ATOM     40  C   UNL     1       3.778   7.151  -2.391  0.00  0.00    +0.032 C 
BRANCH  31  43
ATOM     41  N   UNL     1       0.766   6.970  -4.689  0.00  0.00    -0.309 N 
ATOM     42  H   UNL     1       0.099   6.875  -3.933  0.00  0.00    +0.149 HD
ATOM     43  C   UNL     1       2.091   6.915  -4.282  0.00  0.00    +0.231 C 
ATOM     44  O   UNL     1       3.027   6.735  -5.041  0.00  0.00    -0.274 OA
BRANCH  41  46
ATOM     45  C   UNL     1       0.664   5.204  -6.410  0.00  0.00    +0.031 C 
ATOM     46  C   UNL     1       0.331   6.659  -6.064  0.00  0.00    +0.026 C 
ATOM     47  C   UNL     1      -1.191   6.851  -6.154  0.00  0.00    +0.031 C 
ATOM     48  C   UNL     1       0.984   7.619  -7.075  0.00  0.00    +0.031 C 
ENDBRANCH  41  46
ENDBRANCH  31  43
ENDBRANCH  30  32
ENDBRANCH  27  30
ENDBRANCH   1  27
BRANCH   1  49
ATOM     49  C   UNL     1      -0.007   1.579  -0.557  0.00  0.00    +0.060 C 
BRANCH  49  50
ATOM     50  C   UNL     1       0.134   1.527   0.954  0.00  0.00    -0.046 A 
ATOM     51  C   UNL     1       0.972   0.591   1.575  0.00  0.00    +0.004 A 
ATOM     52  C   UNL     1       1.057   0.520   2.967  0.00  0.00    +0.000 A 
ATOM     53  C   UNL     1       0.282   1.360   3.760  0.00  0.00    +0.000 A 
ATOM     54  C   UNL     1      -0.557   2.296   3.157  0.00  0.00    +0.000 A 
ATOM     55  C   UNL     1      -0.632   2.379   1.762  0.00  0.00    +0.004 A 
ENDBRANCH  49  50
ENDBRANCH   1  49
TORSDOF 14
