REMARK  Name = 
REMARK  3 active torsions:
REMARK  status: ('A' for Active; 'I' for Inactive)
REMARK    1  A    between atoms: C_2  and  N_10
REMARK    2  A    between atoms: C_5  and  C_8
REMARK    3  A    between atoms: C_8  and  O_9
REMARK                            x       y       z     vdW  Elec       q    Type
REMARK                         _______ _______ _______ _____ _____    ______ ____
ROOT
ATOM      1  N   UNL     1      -2.423   0.730  -0.411  0.00  0.00    -0.269 N 
ATOM      2  C   UNL     1      -3.609   0.364   0.241  0.00  0.00    +0.352 A 
ATOM      3  O   UNL     1      -3.576  -0.313   1.266  0.00  0.00    -0.244 OA
ATOM      4  N   UNL     1      -4.814   0.749  -0.308  0.00  0.00    -0.175 NA
ATOM      5  C   UNL     1      -4.838   1.393  -1.438  0.00  0.00    +0.159 A 
ATOM      6  N   UNL     1      -6.064   1.753  -1.931  0.00  0.00    -0.341 N 
ATOM      7  H   UNL     1      -6.840   1.263  -1.499  0.00  0.00    +0.144 HD
ATOM      8  H   UNL     1      -6.144   1.880  -2.933  0.00  0.00    +0.144 HD
ATOM      9  C   UNL     1      -3.603   1.719  -2.185  0.00  0.00    +0.179 A 
ATOM     10  F   UNL     1      -3.718   2.324  -3.379  0.00  0.00    -0.200 F 
ATOM     11  C   UNL     1      -2.446   1.373  -1.632  0.00  0.00    +0.135 A 
ENDROOT
BRANCH   1  16
ATOM     12  C   UNL     1      -0.861  -1.179  -0.216  0.00  0.00    +0.126 C 
ATOM     13  S   UNL     1       0.912  -1.353   0.043  0.00  0.00    -0.123 S 
ATOM     14  C   UNL     1       1.164   0.444   0.047  0.00  0.00    +0.203 C 
ATOM     15  O   UNL     1      -0.078   1.097  -0.257  0.00  0.00    -0.340 OA
ATOM     16  C   UNL     1      -1.169   0.268   0.182  0.00  0.00    +0.235 C 
BRANCH  14  17
ATOM     17  C   UNL     1       1.743   0.911   1.396  0.00  0.00    +0.198 C 
BRANCH  17  18
ATOM     18  O   UNL     1       0.924   0.554   2.510  0.00  0.00    -0.392 OA
ATOM     19  H   UNL     1       0.861  -0.420   2.514  0.00  0.00    +0.210 HD
ENDBRANCH  17  18
ENDBRANCH  14  17
ENDBRANCH   1  16
TORSDOF 3
