REMARK  Name = 
REMARK  3 active torsions:
REMARK  status: ('A' for Active; 'I' for Inactive)
REMARK    1  A    between atoms: C_2  and  N_10
REMARK    2  A    between atoms: C_5  and  C_8
REMARK    3  A    between atoms: C_8  and  O_9
REMARK                            x       y       z     vdW  Elec       q    Type
REMARK                         _______ _______ _______ _____ _____    ______ ____
ROOT
ATOM      1  N   UNL     1      -2.417   0.702  -0.460  0.00  0.00    -0.269 N 
ATOM      2  C   UNL     1      -3.610   0.375   0.201  0.00  0.00    +0.352 A 
ATOM      3  O   UNL     1      -3.592  -0.245   1.262  0.00  0.00    -0.244 OA
ATOM      4  N   UNL     1      -4.808   0.739  -0.373  0.00  0.00    -0.175 NA
ATOM      5  C   UNL     1      -4.821   1.330  -1.531  0.00  0.00    +0.159 A 
ATOM      6  N   UNL     1      -6.046   1.666  -2.048  0.00  0.00    -0.341 N 
ATOM      7  H   UNL     1      -6.819   1.191  -1.594  0.00  0.00    +0.144 HD
ATOM      8  H   UNL     1      -6.121   1.733  -3.056  0.00  0.00    +0.144 HD
ATOM      9  C   UNL     1      -3.580   1.620  -2.283  0.00  0.00    +0.179 A 
ATOM     10  F   UNL     1      -3.685   2.179  -3.500  0.00  0.00    -0.200 F 
ATOM     11  C   UNL     1      -2.429   1.291  -1.708  0.00  0.00    +0.135 A 
ENDROOT
BRANCH   1  16
ATOM     12  C   UNL     1      -0.858  -1.200  -0.154  0.00  0.00    +0.126 C 
ATOM     13  S   UNL     1       0.901  -1.365   0.194  0.00  0.00    -0.123 S 
ATOM     14  C   UNL     1       1.156   0.430   0.107  0.00  0.00    +0.203 C 
ATOM     15  O   UNL     1      -0.068   1.064  -0.302  0.00  0.00    -0.340 OA
ATOM     16  C   UNL     1      -1.171   0.264   0.169  0.00  0.00    +0.235 C 
BRANCH  14  17
ATOM     17  C   UNL     1       1.682   1.016   1.434  0.00  0.00    +0.198 C 
BRANCH  17  18
ATOM     18  O   UNL     1       0.772   0.830   2.518  0.00  0.00    -0.392 OA
ATOM     19  H   UNL     1       1.208   1.163   3.321  0.00  0.00    +0.210 HD
ENDBRANCH  17  18
ENDBRANCH  14  17
ENDBRANCH   1  16
TORSDOF 3
