REMARK  Name = 
REMARK  3 active torsions:
REMARK  status: ('A' for Active; 'I' for Inactive)
REMARK    1  A    between atoms: C_2  and  N_10
REMARK    2  A    between atoms: C_5  and  C_8
REMARK    3  A    between atoms: C_8  and  O_9
REMARK                            x       y       z     vdW  Elec       q    Type
REMARK                         _______ _______ _______ _____ _____    ______ ____
ROOT
ATOM      1  N   UNL     1      -2.432   0.738  -0.433  0.00  0.00    -0.269 N 
ATOM      2  C   UNL     1      -3.606   0.469   0.285  0.00  0.00    +0.352 A 
ATOM      3  O   UNL     1      -3.553  -0.087   1.381  0.00  0.00    -0.244 OA
ATOM      4  N   UNL     1      -4.818   0.822  -0.267  0.00  0.00    -0.175 NA
ATOM      5  C   UNL     1      -4.861   1.349  -1.455  0.00  0.00    +0.159 A 
ATOM      6  N   UNL     1      -6.093   1.698  -1.942  0.00  0.00    -0.341 N 
ATOM      7  H   UNL     1      -6.874   1.282  -1.446  0.00  0.00    +0.144 HD
ATOM      8  H   UNL     1      -6.205   1.769  -2.946  0.00  0.00    +0.144 HD
ATOM      9  C   UNL     1      -3.643   1.561  -2.269  0.00  0.00    +0.179 A 
ATOM     10  F   UNL     1      -3.784   2.045  -3.514  0.00  0.00    -0.200 F 
ATOM     11  C   UNL     1      -2.478   1.248  -1.715  0.00  0.00    +0.135 A 
ENDROOT
BRANCH   1  16
ATOM     12  C   UNL     1      -0.869  -1.150  -0.062  0.00  0.00    +0.126 C 
ATOM     13  S   UNL     1       0.873  -1.282   0.372  0.00  0.00    -0.123 S 
ATOM     14  C   UNL     1       1.148   0.491   0.070  0.00  0.00    +0.203 C 
ATOM     15  O   UNL     1      -0.083   1.093  -0.358  0.00  0.00    -0.340 OA
ATOM     16  C   UNL     1      -1.174   0.329   0.181  0.00  0.00    +0.235 C 
BRANCH  14  17
ATOM     17  C   UNL     1       2.219   0.695  -1.013  0.00  0.00    +0.198 C 
BRANCH  17  18
ATOM     18  O   UNL     1       1.853   0.080  -2.254  0.00  0.00    -0.392 OA
ATOM     19  H   UNL     1       1.615  -0.841  -2.043  0.00  0.00    +0.210 HD
ENDBRANCH  17  18
ENDBRANCH  14  17
ENDBRANCH   1  16
TORSDOF 3
