REMARK  Name = 
REMARK  3 active torsions:
REMARK  status: ('A' for Active; 'I' for Inactive)
REMARK    1  A    between atoms: C_2  and  N_10
REMARK    2  A    between atoms: C_5  and  C_8
REMARK    3  A    between atoms: C_8  and  O_9
REMARK                            x       y       z     vdW  Elec       q    Type
REMARK                         _______ _______ _______ _____ _____    ______ ____
ROOT
ATOM      1  N   UNL     1      -2.429   0.739  -0.442  0.00  0.00    -0.269 N 
ATOM      2  C   UNL     1      -3.603   0.461   0.273  0.00  0.00    +0.352 A 
ATOM      3  O   UNL     1      -3.548  -0.092   1.369  0.00  0.00    -0.244 OA
ATOM      4  N   UNL     1      -4.816   0.807  -0.283  0.00  0.00    -0.175 NA
ATOM      5  C   UNL     1      -4.860   1.333  -1.469  0.00  0.00    +0.159 A 
ATOM      6  N   UNL     1      -6.092   1.679  -1.958  0.00  0.00    -0.341 N 
ATOM      7  H   UNL     1      -6.880   1.277  -1.463  0.00  0.00    +0.144 HD
ATOM      8  H   UNL     1      -6.207   1.793  -2.957  0.00  0.00    +0.144 HD
ATOM      9  C   UNL     1      -3.640   1.556  -2.280  0.00  0.00    +0.179 A 
ATOM     10  F   UNL     1      -3.780   2.044  -3.524  0.00  0.00    -0.200 F 
ATOM     11  C   UNL     1      -2.473   1.251  -1.722  0.00  0.00    +0.135 A 
ENDROOT
BRANCH   1  16
ATOM     12  C   UNL     1      -0.867  -1.148  -0.066  0.00  0.00    +0.126 C 
ATOM     13  S   UNL     1       0.873  -1.282   0.372  0.00  0.00    -0.123 S 
ATOM     14  C   UNL     1       1.152   0.489   0.069  0.00  0.00    +0.203 C 
ATOM     15  O   UNL     1      -0.078   1.094  -0.362  0.00  0.00    -0.340 OA
ATOM     16  C   UNL     1      -1.172   0.333   0.176  0.00  0.00    +0.235 C 
BRANCH  14  17
ATOM     17  C   UNL     1       2.224   0.689  -1.013  0.00  0.00    +0.198 C 
BRANCH  17  18
ATOM     18  O   UNL     1       1.856   0.078  -2.256  0.00  0.00    -0.392 OA
ATOM     19  H   UNL     1       1.611  -0.842  -2.045  0.00  0.00    +0.210 HD
ENDBRANCH  17  18
ENDBRANCH  14  17
ENDBRANCH   1  16
TORSDOF 3
