REMARK  Name = 
REMARK  5 active torsions:
REMARK  status: ('A' for Active; 'I' for Inactive)
REMARK    1  A    between atoms: C_1  and  C_2
REMARK    2  A    between atoms: N_4  and  C_10
REMARK    3  A    between atoms: C_13  and  N_19
REMARK    4  A    between atoms: C_14  and  C_17
REMARK    5  A    between atoms: C_17  and  O_18
REMARK                            x       y       z     vdW  Elec       q    Type
REMARK                         _______ _______ _______ _____ _____    ______ ____
ROOT
ATOM      1  C   UNL     1       5.483   2.432  -0.349  0.00  0.00    +0.226 C 
ATOM      2  O   UNL     1       6.392   2.533   0.761  0.00  0.00    -0.349 OA
ATOM      3  C   UNL     1       6.740   3.929   0.916  0.00  0.00    +0.177 C 
ATOM      4  C   UNL     1       5.811   4.741  -0.002  0.00  0.00    +0.226 C 
ATOM      5  C   UNL     1       4.721   3.747  -0.357  0.00  0.00    +0.091 C 
ENDROOT
BRANCH   1  14
ATOM      6  C   UNL     1       3.249  -1.061   2.432  0.00  0.00    +0.051 C 
ATOM      7  C   UNL     1       3.579  -0.406   1.130  0.00  0.00    +0.030 A 
ATOM      8  C   UNL     1       2.999  -0.998  -0.097  0.00  0.00    +0.257 A 
ATOM      9  O   UNL     1       2.267  -1.981  -0.062  0.00  0.00    -0.267 OA
ATOM     10  N   UNL     1       3.325  -0.379  -1.268  0.00  0.00    -0.275 N 
ATOM     11  H   UNL     1       2.930  -0.760  -2.112  0.00  0.00    +0.173 HD
ATOM     12  C   UNL     1       4.080   0.756  -1.400  0.00  0.00    +0.331 A 
ATOM     13  O   UNL     1       4.230   1.272  -2.505  0.00  0.00    -0.246 OA
ATOM     14  N   UNL     1       4.632   1.252  -0.227  0.00  0.00    -0.274 N 
ATOM     15  C   UNL     1       4.364   0.669   0.997  0.00  0.00    +0.101 A 
ENDBRANCH   1  14
BRANCH   4  16
ATOM     16  N   UNL     1       6.524   5.112  -1.242  0.00  0.00    +0.082 NA
ATOM     17  N   UNL     1       7.052   6.241  -1.251  0.00  0.00    -0.014 NA
ATOM     18  N   UNL     1       7.540   7.269  -1.246  0.00  0.00    -0.328 NA
ENDBRANCH   4  16
BRANCH   3  19
ATOM     19  C   UNL     1       6.588   4.292   2.395  0.00  0.00    +0.189 C 
BRANCH  19  20
ATOM     20  O   UNL     1       5.232   4.159   2.814  0.00  0.00    -0.392 OA
ATOM     21  H   UNL     1       4.990   3.230   2.647  0.00  0.00    +0.210 HD
ENDBRANCH  19  20
ENDBRANCH   3  19
TORSDOF 4
