REMARK  Name = 
REMARK  5 active torsions:
REMARK  status: ('A' for Active; 'I' for Inactive)
REMARK    1  A    between atoms: C_1  and  C_2
REMARK    2  A    between atoms: N_4  and  C_10
REMARK    3  A    between atoms: C_13  and  N_19
REMARK    4  A    between atoms: C_14  and  C_17
REMARK    5  A    between atoms: C_17  and  O_18
REMARK                            x       y       z     vdW  Elec       q    Type
REMARK                         _______ _______ _______ _____ _____    ______ ____
ROOT
ATOM      1  C   UNL     1       5.367   2.570  -0.358  0.00  0.00    +0.226 C 
ATOM      2  O   UNL     1       6.248   2.678   0.774  0.00  0.00    -0.349 OA
ATOM      3  C   UNL     1       6.630   4.070   0.890  0.00  0.00    +0.177 C 
ATOM      4  C   UNL     1       5.698   4.881  -0.024  0.00  0.00    +0.226 C 
ATOM      5  C   UNL     1       4.609   3.886  -0.383  0.00  0.00    +0.091 C 
ENDROOT
BRANCH   1  14
ATOM      6  C   UNL     1       3.085  -0.934   2.372  0.00  0.00    +0.051 C 
ATOM      7  C   UNL     1       3.449  -0.281   1.078  0.00  0.00    +0.030 A 
ATOM      8  C   UNL     1       2.935  -0.899  -0.165  0.00  0.00    +0.257 A 
ATOM      9  O   UNL     1       2.231  -1.903  -0.148  0.00  0.00    -0.267 OA
ATOM     10  N   UNL     1       3.286  -0.279  -1.328  0.00  0.00    -0.275 N 
ATOM     11  H   UNL     1       2.935  -0.679  -2.183  0.00  0.00    +0.173 HD
ATOM     12  C   UNL     1       4.023   0.869  -1.441  0.00  0.00    +0.331 A 
ATOM     13  O   UNL     1       4.208   1.376  -2.548  0.00  0.00    -0.246 OA
ATOM     14  N   UNL     1       4.520   1.388  -0.254  0.00  0.00    -0.274 N 
ATOM     15  C   UNL     1       4.213   0.814   0.966  0.00  0.00    +0.101 A 
ENDBRANCH   1  14
BRANCH   4  16
ATOM     16  N   UNL     1       6.409   5.261  -1.262  0.00  0.00    +0.082 NA
ATOM     17  N   UNL     1       6.946   6.388  -1.260  0.00  0.00    -0.014 NA
ATOM     18  N   UNL     1       7.442   7.412  -1.243  0.00  0.00    -0.328 NA
ENDBRANCH   4  16
BRANCH   3  19
ATOM     19  C   UNL     1       6.520   4.467   2.362  0.00  0.00    +0.189 C 
BRANCH  19  20
ATOM     20  O   UNL     1       5.167   4.392   2.805  0.00  0.00    -0.392 OA
ATOM     21  H   UNL     1       4.879   3.477   2.637  0.00  0.00    +0.210 HD
ENDBRANCH  19  20
ENDBRANCH   3  19
TORSDOF 4
