REMARK  Name = 
REMARK  3 active torsions:
REMARK  status: ('A' for Active; 'I' for Inactive)
REMARK    1  A    between atoms: C_3  and  N_10
REMARK    2  A    between atoms: C_6  and  C_8
REMARK    3  A    between atoms: C_8  and  O_9
REMARK                            x       y       z     vdW  Elec       q    Type
REMARK                         _______ _______ _______ _____ _____    ______ ____
ROOT
ATOM      1  N   UNL     1       0.231   2.523   0.559  0.00  0.00    -0.273 N 
ATOM      2  C   UNL     1      -0.380   3.650   0.001  0.00  0.00    +0.352 A 
ATOM      3  O   UNL     1      -1.097   3.556  -0.996  0.00  0.00    -0.244 OA
ATOM      4  N   UNL     1      -0.159   4.872   0.593  0.00  0.00    -0.178 NA
ATOM      5  C   UNL     1       0.560   4.948   1.669  0.00  0.00    +0.123 A 
ATOM      6  N   UNL     1       0.776   6.193   2.189  0.00  0.00    -0.343 N 
ATOM      7  H   UNL     1       0.160   6.898   1.795  0.00  0.00    +0.144 HD
ATOM      8  H   UNL     1       0.915   6.278   3.188  0.00  0.00    +0.144 HD
ATOM      9  C   UNL     1       1.137   3.771   2.342  0.00  0.00    +0.061 A 
ATOM     10  C   UNL     1       0.939   2.602   1.736  0.00  0.00    +0.096 A 
ENDROOT
BRANCH   1  14
ATOM     11  C   UNL     1      -0.830  -0.906  -0.192  0.00  0.00    +0.038 C 
ATOM     12  C   UNL     1       0.670  -0.983   0.056  0.00  0.00    +0.146 C 
ATOM     13  O   UNL     1       1.163   0.374   0.124  0.00  0.00    -0.351 OA
ATOM     14  C   UNL     1       0.059   1.264  -0.141  0.00  0.00    +0.224 C 
ATOM     15  C   UNL     1      -1.184   0.490   0.269  0.00  0.00    +0.057 C 
BRANCH  12  16
ATOM     16  C   UNL     1       1.021  -1.683   1.371  0.00  0.00    +0.187 C 
BRANCH  16  17
ATOM     17  O   UNL     1       2.432  -1.656   1.580  0.00  0.00    -0.392 OA
ATOM     18  H   UNL     1       2.711  -0.740   1.392  0.00  0.00    +0.210 HD
ENDBRANCH  16  17
ENDBRANCH  12  16
ENDBRANCH   1  14
TORSDOF 3
