REMARK  Name = 
REMARK  3 active torsions:
REMARK  status: ('A' for Active; 'I' for Inactive)
REMARK    1  A    between atoms: C_3  and  N_10
REMARK    2  A    between atoms: C_6  and  C_8
REMARK    3  A    between atoms: C_8  and  O_9
REMARK                            x       y       z     vdW  Elec       q    Type
REMARK                         _______ _______ _______ _____ _____    ______ ____
ROOT
ATOM      1  N   UNL     1       0.229   2.510   0.540  0.00  0.00    -0.273 N 
ATOM      2  C   UNL     1      -0.381   3.642  -0.013  0.00  0.00    +0.352 A 
ATOM      3  O   UNL     1      -1.096   3.551  -1.010  0.00  0.00    -0.244 OA
ATOM      4  N   UNL     1      -0.157   4.862   0.581  0.00  0.00    -0.178 NA
ATOM      5  C   UNL     1       0.559   4.933   1.659  0.00  0.00    +0.123 A 
ATOM      6  N   UNL     1       0.774   6.178   2.184  0.00  0.00    -0.343 N 
ATOM      7  H   UNL     1       0.160   6.882   1.790  0.00  0.00    +0.144 HD
ATOM      8  H   UNL     1       0.908   6.257   3.183  0.00  0.00    +0.144 HD
ATOM      9  C   UNL     1       1.132   3.750   2.330  0.00  0.00    +0.061 A 
ATOM     10  C   UNL     1       0.936   2.585   1.718  0.00  0.00    +0.096 A 
ENDROOT
BRANCH   1  14
ATOM     11  C   UNL     1      -0.827  -0.922  -0.172  0.00  0.00    +0.038 C 
ATOM     12  C   UNL     1       0.668  -0.987   0.119  0.00  0.00    +0.146 C 
ATOM     13  O   UNL     1       1.164   0.364   0.076  0.00  0.00    -0.351 OA
ATOM     14  C   UNL     1       0.050   1.251  -0.161  0.00  0.00    +0.224 C 
ATOM     15  C   UNL     1      -1.191   0.479   0.259  0.00  0.00    +0.057 C 
BRANCH  12  16
ATOM     16  C   UNL     1       0.998  -1.590   1.488  0.00  0.00    +0.187 C 
BRANCH  16  17
ATOM     17  O   UNL     1       0.600  -2.951   1.574  0.00  0.00    -0.392 OA
ATOM     18  H   UNL     1       1.304  -3.487   1.169  0.00  0.00    +0.210 HD
ENDBRANCH  16  17
ENDBRANCH  12  16
ENDBRANCH   1  14
TORSDOF 3
