REMARK  Name = 
REMARK  3 active torsions:
REMARK  status: ('A' for Active; 'I' for Inactive)
REMARK    1  A    between atoms: C_3  and  N_10
REMARK    2  A    between atoms: C_6  and  C_8
REMARK    3  A    between atoms: C_8  and  O_9
REMARK                            x       y       z     vdW  Elec       q    Type
REMARK                         _______ _______ _______ _____ _____    ______ ____
ROOT
ATOM      1  N   UNL     1      -0.078   1.473  -1.753  0.00  0.00    -0.273 N 
ATOM      2  C   UNL     1      -0.731   2.679  -2.044  0.00  0.00    +0.352 A 
ATOM      3  O   UNL     1      -1.164   3.396  -1.143  0.00  0.00    -0.244 OA
ATOM      4  N   UNL     1      -0.886   3.041  -3.362  0.00  0.00    -0.178 NA
ATOM      5  C   UNL     1      -0.480   2.252  -4.304  0.00  0.00    +0.123 A 
ATOM      6  N   UNL     1      -0.669   2.655  -5.597  0.00  0.00    -0.343 N 
ATOM      7  H   UNL     1      -0.865   3.648  -5.673  0.00  0.00    +0.144 HD
ATOM      8  H   UNL     1      -0.025   2.312  -6.299  0.00  0.00    +0.144 HD
ATOM      9  C   UNL     1       0.176   0.957  -4.044  0.00  0.00    +0.061 A 
ATOM     10  C   UNL     1       0.353   0.642  -2.762  0.00  0.00    +0.096 A 
ENDROOT
BRANCH   1  14
ATOM     11  C   UNL     1      -0.912  -1.049  -0.000  0.00  0.00    +0.038 C 
ATOM     12  C   UNL     1       0.603  -1.135   0.083  0.00  0.00    +0.146 C 
ATOM     13  O   UNL     1       1.130   0.193  -0.131  0.00  0.00    -0.351 OA
ATOM     14  C   UNL     1       0.038   1.108  -0.343  0.00  0.00    +0.224 C 
ATOM     15  C   UNL     1      -1.203   0.418   0.208  0.00  0.00    +0.057 C 
BRANCH  12  16
ATOM     16  C   UNL     1       1.111  -1.672   1.421  0.00  0.00    +0.187 C 
BRANCH  16  17
ATOM     17  O   UNL     1       2.538  -1.707   1.420  0.00  0.00    -0.392 OA
ATOM     18  H   UNL     1       2.825  -0.813   1.151  0.00  0.00    +0.210 HD
ENDBRANCH  16  17
ENDBRANCH  12  16
ENDBRANCH   1  14
TORSDOF 3
