REMARK  Name = 
REMARK  3 active torsions:
REMARK  status: ('A' for Active; 'I' for Inactive)
REMARK    1  A    between atoms: C_3  and  N_10
REMARK    2  A    between atoms: C_6  and  C_8
REMARK    3  A    between atoms: C_8  and  O_9
REMARK                            x       y       z     vdW  Elec       q    Type
REMARK                         _______ _______ _______ _____ _____    ______ ____
ROOT
ATOM      1  N   UNL     1      -0.100   1.472  -1.750  0.00  0.00    -0.273 N 
ATOM      2  C   UNL     1      -0.750   2.683  -2.032  0.00  0.00    +0.352 A 
ATOM      3  O   UNL     1      -1.181   3.394  -1.126  0.00  0.00    -0.244 OA
ATOM      4  N   UNL     1      -0.901   3.057  -3.348  0.00  0.00    -0.178 NA
ATOM      5  C   UNL     1      -0.493   2.273  -4.296  0.00  0.00    +0.123 A 
ATOM      6  N   UNL     1      -0.678   2.691  -5.585  0.00  0.00    -0.343 N 
ATOM      7  H   UNL     1      -0.880   3.684  -5.649  0.00  0.00    +0.144 HD
ATOM      8  H   UNL     1      -0.026   2.362  -6.285  0.00  0.00    +0.144 HD
ATOM      9  C   UNL     1       0.158   0.976  -4.045  0.00  0.00    +0.061 A 
ATOM     10  C   UNL     1       0.328   0.649  -2.766  0.00  0.00    +0.096 A 
ENDROOT
BRANCH   1  14
ATOM     11  C   UNL     1      -0.912  -1.063   0.004  0.00  0.00    +0.038 C 
ATOM     12  C   UNL     1       0.601  -1.134   0.111  0.00  0.00    +0.146 C 
ATOM     13  O   UNL     1       1.120   0.189  -0.147  0.00  0.00    -0.351 OA
ATOM     14  C   UNL     1       0.021   1.100  -0.342  0.00  0.00    +0.224 C 
ATOM     15  C   UNL     1      -1.217   0.402   0.205  0.00  0.00    +0.057 C 
BRANCH  12  16
ATOM     16  C   UNL     1       1.096  -1.601   1.481  0.00  0.00    +0.187 C 
BRANCH  16  17
ATOM     17  O   UNL     1       2.523  -1.620   1.495  0.00  0.00    -0.392 OA
ATOM     18  H   UNL     1       2.803  -0.752   1.147  0.00  0.00    +0.210 HD
ENDBRANCH  16  17
ENDBRANCH  12  16
ENDBRANCH   1  14
TORSDOF 3
