REMARK  Name = 
REMARK  13 active torsions:
REMARK  status: ('A' for Active; 'I' for Inactive)
REMARK    1  A    between atoms: C_1  and  C_2
REMARK    2  A    between atoms: C_2  and  C_3
REMARK    3  A    between atoms: C_3  and  C_4
REMARK    4  A    between atoms: C_3  and  O_6
REMARK    5  A    between atoms: C_4  and  C_5
REMARK    6  A    between atoms: O_6  and  C_7
REMARK    7  A    between atoms: C_9  and  C_18
REMARK    8  A    between atoms: C_11  and  N_17
REMARK    9  A    between atoms: C_12  and  N_13
REMARK   10  A    between atoms: C_14  and  C_16
REMARK   11  A    between atoms: C_18  and  O_20
REMARK   12  A    between atoms: O_20  and  C_21
REMARK   13  A    between atoms: C_21  and  C_22
REMARK                            x       y       z     vdW  Elec       q    Type
REMARK                         _______ _______ _______ _____ _____    ______ ____
ROOT
ATOM      1  C   UNL     1       4.804   1.602  -2.314  0.00  0.00    +0.164 C 
ATOM      2  C   UNL     1       6.352   1.445  -2.165  0.00  0.00    +0.122 C 
ATOM      3  C   UNL     1       7.213   2.748  -2.224  0.00  0.00    +0.078 C 
ATOM      4  C   UNL     1       6.467   4.081  -2.072  0.00  0.00    +0.062 C 
ATOM      5  C   UNL     1       5.038   4.090  -2.501  0.00  0.00    +0.037 C 
ATOM      6  C   UNL     1       4.318   2.970  -2.658  0.00  0.00    +0.016 C 
ENDROOT
BRANCH   2   7
ATOM      7  N   UNL     1       6.711   0.628  -1.000  0.00  0.00    -0.308 N 
ATOM      8  H   UNL     1       5.992   0.514  -0.292  0.00  0.00    +0.149 HD
ATOM      9  C   UNL     1       7.952   0.053  -0.862  0.00  0.00    +0.210 C 
ATOM     10  C   UNL     1       8.159  -0.673   0.439  0.00  0.00    +0.109 C 
ATOM     11  O   UNL     1       8.838   0.153  -1.703  0.00  0.00    -0.276 OA
ENDBRANCH   2   7
BRANCH   3  12
ATOM     12  N   UNL     1       8.066   2.776  -3.435  0.00  0.00    -0.325 NA
ATOM     13  H   UNL     1       8.707   1.975  -3.368  0.00  0.00    +0.119 HD
ATOM     14  H   UNL     1       7.509   2.615  -4.270  0.00  0.00    +0.119 HD
ENDBRANCH   3  12
BRANCH   5  15
ATOM     15  C   UNL     1       4.402   5.441  -2.554  0.00  0.00    +0.335 C 
ATOM     16  O   UNL     1       5.025   6.483  -2.432  0.00  0.00    -0.245 OA
BRANCH  15  17
ATOM     17  O   UNL     1       3.050   5.317  -2.531  0.00  0.00    -0.462 OA
BRANCH  17  18
ATOM     18  C   UNL     1       2.349   6.380  -1.873  0.00  0.00    +0.229 C 
ATOM     19  C   UNL     1       2.234   6.013  -0.402  0.00  0.00    +0.048 C 
ENDBRANCH  17  18
ENDBRANCH  15  17
ENDBRANCH   5  15
BRANCH   1  20
ATOM     20  O   UNL     1       4.169   1.166  -1.086  0.00  0.00    -0.367 OA
BRANCH  20  21
ATOM     21  C   UNL     1       2.731   1.030  -1.073  0.00  0.00    +0.119 C 
BRANCH  21  23
ATOM     22  C   UNL     1       0.754  -0.220  -2.164  0.00  0.00    +0.006 C 
ATOM     23  C   UNL     1       2.257   0.010  -2.127  0.00  0.00    +0.028 C 
ENDBRANCH  21  23
BRANCH  21  24
ATOM     24  C   UNL     1       2.338   0.590   0.351  0.00  0.00    +0.028 C 
ATOM     25  C   UNL     1       2.672   1.623   1.423  0.00  0.00    +0.006 C 
ENDBRANCH  21  24
ENDBRANCH  20  21
ENDBRANCH   1  20
TORSDOF 9
