REMARK  Name = 
REMARK  13 active torsions:
REMARK  status: ('A' for Active; 'I' for Inactive)
REMARK    1  A    between atoms: C_1  and  C_2
REMARK    2  A    between atoms: C_2  and  C_3
REMARK    3  A    between atoms: C_3  and  C_4
REMARK    4  A    between atoms: C_3  and  O_6
REMARK    5  A    between atoms: C_4  and  C_5
REMARK    6  A    between atoms: O_6  and  C_7
REMARK    7  A    between atoms: C_9  and  C_18
REMARK    8  A    between atoms: C_11  and  N_17
REMARK    9  A    between atoms: C_12  and  N_13
REMARK   10  A    between atoms: C_14  and  C_16
REMARK   11  A    between atoms: C_18  and  O_20
REMARK   12  A    between atoms: O_20  and  C_21
REMARK   13  A    between atoms: C_21  and  C_22
REMARK                            x       y       z     vdW  Elec       q    Type
REMARK                         _______ _______ _______ _____ _____    ______ ____
ROOT
ATOM      1  C   UNL     1       4.860   2.498  -0.922  0.00  0.00    +0.164 C 
ATOM      2  C   UNL     1       6.151   2.348  -0.051  0.00  0.00    +0.122 C 
ATOM      3  C   UNL     1       6.693   3.617   0.671  0.00  0.00    +0.078 C 
ATOM      4  C   UNL     1       5.794   4.857   0.722  0.00  0.00    +0.062 C 
ATOM      5  C   UNL     1       4.567   4.864  -0.130  0.00  0.00    +0.037 C 
ATOM      6  C   UNL     1       4.151   3.811  -0.850  0.00  0.00    +0.016 C 
ENDROOT
BRANCH   2   7
ATOM      7  N   UNL     1       6.013   1.232   0.899  0.00  0.00    -0.308 N 
ATOM      8  H   UNL     1       5.111   0.764   0.877  0.00  0.00    +0.149 HD
ATOM      9  C   UNL     1       7.078   0.655   1.540  0.00  0.00    +0.210 C 
ATOM     10  C   UNL     1       6.697  -0.458   2.475  0.00  0.00    +0.109 C 
ATOM     11  O   UNL     1       8.237   1.036   1.405  0.00  0.00    -0.276 OA
ENDBRANCH   2   7
BRANCH   3  12
ATOM     12  N   UNL     1       8.043   3.990   0.194  0.00  0.00    -0.325 NA
ATOM     13  H   UNL     1       8.665   3.201   0.409  0.00  0.00    +0.119 HD
ATOM     14  H   UNL     1       8.051   4.086  -0.819  0.00  0.00    +0.119 HD
ENDBRANCH   3  12
BRANCH   5  15
ATOM     15  C   UNL     1       3.794   6.140  -0.028  0.00  0.00    +0.335 C 
ATOM     16  O   UNL     1       4.165   7.090   0.643  0.00  0.00    -0.245 OA
BRANCH  15  17
ATOM     17  O   UNL     1       2.587   6.031  -0.638  0.00  0.00    -0.462 OA
BRANCH  17  18
ATOM     18  C   UNL     1       1.579   6.900  -0.106  0.00  0.00    +0.229 C 
ATOM     19  C   UNL     1       0.909   6.166   1.042  0.00  0.00    +0.048 C 
ENDBRANCH  17  18
ENDBRANCH  15  17
ENDBRANCH   5  15
BRANCH   1  20
ATOM     20  O   UNL     1       3.971   1.428  -0.534  0.00  0.00    -0.367 OA
BRANCH  20  21
ATOM     21  C   UNL     1       2.914   1.003  -1.409  0.00  0.00    +0.119 C 
BRANCH  21  23
ATOM     22  C   UNL     1       2.368   0.161  -3.784  0.00  0.00    +0.006 C 
ATOM     23  C   UNL     1       3.426   0.688  -2.827  0.00  0.00    +0.028 C 
ENDBRANCH  21  23
BRANCH  21  24
ATOM     24  C   UNL     1       2.316  -0.262  -0.753  0.00  0.00    +0.028 C 
ATOM     25  C   UNL     1       1.733  -0.033   0.638  0.00  0.00    +0.006 C 
ENDBRANCH  21  24
ENDBRANCH  20  21
ENDBRANCH   1  20
TORSDOF 9
