REMARK  Name = 
REMARK  6 active torsions:
REMARK  status: ('A' for Active; 'I' for Inactive)
REMARK    1  A    between atoms: C_3  and  C_19
REMARK    2  A    between atoms: N_5  and  C1*_6
REMARK    3  A    between atoms: C2*_8  and  O2*_18
REMARK    4  A    between atoms: C3*_10  and  O3*_17
REMARK    5  A    between atoms: C4*_12  and  C5*_15
REMARK    6  A    between atoms: C5*_15  and  O5*_16
REMARK                            x       y       z     vdW  Elec       q    Type
REMARK                         _______ _______ _______ _____ _____    ______ ____
ROOT
ATOM      1  C1* UNL     1      -0.873  -2.641  -0.174  0.00  0.00    +0.270 C 
ATOM      2  O4* UNL     1      -1.454  -2.973   1.108  0.00  0.00    -0.344 OA
ATOM      3  C4* UNL     1      -1.175  -4.367   1.379  0.00  0.00    +0.177 C 
ATOM      4  C3* UNL     1      -0.672  -4.993   0.079  0.00  0.00    +0.178 C 
ATOM      5  C2* UNL     1       0.011  -3.816  -0.599  0.00  0.00    +0.196 C 
ENDROOT
BRANCH   1   7
ATOM      6  C   UNL     1      -2.576  -1.126  -1.222  0.00  0.00    +0.223 A 
ATOM      7  N   UNL     1      -1.960  -2.328  -1.084  0.00  0.00    -0.220 N 
ATOM      8  N   UNL     1      -2.533  -3.263  -1.868  0.00  0.00    -0.142 NA
ATOM      9  C   UNL     1      -3.525  -2.562  -2.463  0.00  0.00    +0.236 A 
ATOM     10  N   UNL     1      -3.555  -1.232  -2.087  0.00  0.00    -0.211 NA
BRANCH   9  11
ATOM     11  C   UNL     1      -4.474  -3.170  -3.418  0.00  0.00    +0.281 C 
ATOM     12  N   UNL     1      -4.255  -4.501  -3.672  0.00  0.00    -0.323 N 
ATOM     13  H   UNL     1      -4.912  -4.998  -4.254  0.00  0.00    +0.145 HD
ATOM     14  H   UNL     1      -3.549  -4.999  -3.144  0.00  0.00    +0.145 HD
ATOM     15  O   UNL     1      -5.401  -2.575  -3.961  0.00  0.00    -0.267 OA
ENDBRANCH   9  11
ENDBRANCH   1   7
BRANCH   4  16
ATOM     16  O3* UNL     1       0.242  -6.061   0.314  0.00  0.00    -0.386 OA
ATOM     17  H3* UNL     1       1.116  -5.638   0.444  0.00  0.00    +0.210 HD
ENDBRANCH   4  16
BRANCH   5  18
ATOM     18  O2* UNL     1       1.342  -3.696  -0.047  0.00  0.00    -0.385 OA
ATOM     19  H2* UNL     1       1.822  -3.029  -0.572  0.00  0.00    +0.210 HD
ENDBRANCH   5  18
BRANCH   3  20
ATOM     20  C5* UNL     1      -2.441  -5.031   1.920  0.00  0.00    +0.190 C 
BRANCH  20  21
ATOM     21  O5* UNL     1      -3.526  -4.890   1.003  0.00  0.00    -0.392 OA
ATOM     22  H5* UNL     1      -3.636  -3.933   0.844  0.00  0.00    +0.210 HD
ENDBRANCH  20  21
ENDBRANCH   3  20
TORSDOF 6
