REMARK  Name = 
REMARK  6 active torsions:
REMARK  status: ('A' for Active; 'I' for Inactive)
REMARK    1  A    between atoms: C_3  and  C_19
REMARK    2  A    between atoms: N_5  and  C1*_6
REMARK    3  A    between atoms: C2*_8  and  O2*_18
REMARK    4  A    between atoms: C3*_10  and  O3*_17
REMARK    5  A    between atoms: C4*_12  and  C5*_15
REMARK    6  A    between atoms: C5*_15  and  O5*_16
REMARK                            x       y       z     vdW  Elec       q    Type
REMARK                         _______ _______ _______ _____ _____    ______ ____
ROOT
ATOM      1  C1* UNL     1      -0.873  -2.640  -0.170  0.00  0.00    +0.270 C 
ATOM      2  O4* UNL     1      -1.458  -2.976   1.109  0.00  0.00    -0.344 OA
ATOM      3  C4* UNL     1      -1.175  -4.369   1.380  0.00  0.00    +0.177 C 
ATOM      4  C3* UNL     1      -0.670  -4.992   0.079  0.00  0.00    +0.178 C 
ATOM      5  C2* UNL     1       0.011  -3.813  -0.597  0.00  0.00    +0.196 C 
ENDROOT
BRANCH   1   7
ATOM      6  C   UNL     1      -2.567  -1.119  -1.224  0.00  0.00    +0.223 A 
ATOM      7  N   UNL     1      -1.957  -2.324  -1.082  0.00  0.00    -0.220 N 
ATOM      8  N   UNL     1      -2.530  -3.257  -1.869  0.00  0.00    -0.142 NA
ATOM      9  C   UNL     1      -3.515  -2.551  -2.470  0.00  0.00    +0.236 A 
ATOM     10  N   UNL     1      -3.542  -1.221  -2.094  0.00  0.00    -0.211 NA
BRANCH   9  11
ATOM     11  C   UNL     1      -4.463  -3.154  -3.431  0.00  0.00    +0.281 C 
ATOM     12  N   UNL     1      -4.249  -4.486  -3.683  0.00  0.00    -0.323 N 
ATOM     13  H   UNL     1      -4.908  -4.980  -4.266  0.00  0.00    +0.145 HD
ATOM     14  H   UNL     1      -3.551  -4.989  -3.149  0.00  0.00    +0.145 HD
ATOM     15  O   UNL     1      -5.383  -2.554  -3.979  0.00  0.00    -0.267 OA
ENDBRANCH   9  11
ENDBRANCH   1   7
BRANCH   4  16
ATOM     16  O3* UNL     1       0.245  -6.060   0.313  0.00  0.00    -0.386 OA
ATOM     17  H3* UNL     1       1.118  -5.635   0.445  0.00  0.00    +0.210 HD
ENDBRANCH   4  16
BRANCH   5  18
ATOM     18  O2* UNL     1       1.342  -3.694  -0.044  0.00  0.00    -0.385 OA
ATOM     19  H2* UNL     1       1.824  -3.030  -0.572  0.00  0.00    +0.210 HD
ENDBRANCH   5  18
BRANCH   3  20
ATOM     20  C5* UNL     1      -2.439  -5.036   1.921  0.00  0.00    +0.190 C 
BRANCH  20  21
ATOM     21  O5* UNL     1      -3.525  -4.897   1.006  0.00  0.00    -0.392 OA
ATOM     22  H5* UNL     1      -3.639  -3.940   0.849  0.00  0.00    +0.210 HD
ENDBRANCH  20  21
ENDBRANCH   3  20
TORSDOF 6
