REMARK  Name = 
REMARK  21 active torsions:
REMARK  status: ('A' for Active; 'I' for Inactive)
REMARK    1  A    between atoms: C_1  and  C_2
REMARK    2  A    between atoms: C_2  and  C_3
REMARK    3  A    between atoms: C_2  and  C_4
REMARK    4  A    between atoms: C_9  and  C_12
REMARK    5  A    between atoms: C_18  and  O_21
REMARK    6  A    between atoms: O_21  and  C_22
REMARK    7  A    between atoms: C_23  and  O_25
REMARK    8  A    between atoms: O_25  and  C_26
REMARK    9  A    between atoms: C_29  and  C_50
REMARK   10  A    between atoms: C_33  and  C_35
REMARK   11  A    between atoms: C_35  and  C_37
REMARK   12  A    between atoms: C_35  and  N_41
REMARK   13  A    between atoms: C_37  and  C_38
REMARK   14  A    between atoms: C_37  and  C_39
REMARK   15  A    between atoms: C_37  and  C_40
REMARK   16  A    between atoms: C_42  and  O_44
REMARK   17  A    between atoms: O_44  and  C_45
REMARK   18  A    between atoms: N_52  and  C_53
REMARK   19  A    between atoms: C_53  and  C_59
REMARK   20  A    between atoms: C_55  and  C_57
REMARK   21  A    between atoms: C_59  and  O_61
REMARK                            x       y       z     vdW  Elec       q    Type
REMARK                         _______ _______ _______ _____ _____    ______ ____
ROOT
ATOM      1  C   UNL     1      -2.505   9.040  -1.678  0.00  0.00    +0.193 C 
ATOM      2  C   UNL     1      -1.075   9.637  -1.613  0.00  0.00    +0.153 C 
ATOM      3  N   UNL     1      -0.284   8.741  -0.774  0.00  0.00    -0.285 N 
ATOM      4  C   UNL     1       0.917   8.964  -0.131  0.00  0.00    +0.237 C 
ATOM      5  O   UNL     1       1.331   8.113   0.676  0.00  0.00    -0.274 OA
ATOM      6  C   UNL     1      -1.014   7.479  -0.561  0.00  0.00    +0.166 C 
ATOM      7  C   UNL     1      -2.203   7.554  -1.531  0.00  0.00    +0.078 C 
ENDROOT
BRANCH   6   8
ATOM      8  C   UNL     1      -0.183   6.207  -0.870  0.00  0.00    +0.235 C 
ATOM      9  N   UNL     1       0.481   5.688   0.233  0.00  0.00    -0.298 N 
ATOM     10  H   UNL     1       0.631   6.331   1.013  0.00  0.00    +0.150 HD
ATOM     11  O   UNL     1      -0.067   5.729  -1.991  0.00  0.00    -0.274 OA
BRANCH   9  12
ATOM     12  C   UNL     1       1.380   4.539   0.136  0.00  0.00    +0.138 C 
ATOM     13  C   UNL     1       1.560   3.710   1.418  0.00  0.00    +0.048 C 
ATOM     14  C   UNL     1       0.763   3.156   0.275  0.00  0.00    +0.048 C 
BRANCH  12  15
ATOM     15  C   UNL     1       2.576   4.683  -0.792  0.00  0.00    +0.329 C 
ATOM     16  O   UNL     1       2.914   3.817  -1.587  0.00  0.00    -0.249 OA
BRANCH  15  17
ATOM     17  O   UNL     1       3.270   5.833  -0.602  0.00  0.00    -0.479 OA
ATOM     18  H   UNL     1       2.817   6.428   0.027  0.00  0.00    +0.295 HD
ENDBRANCH  15  17
ENDBRANCH  12  15
BRANCH  13  19
ATOM     19  C   UNL     1       2.840   3.074   1.752  0.00  0.00    -0.028 C 
ATOM     20  C   UNL     1       3.885   3.669   2.338  0.00  0.00    +0.004 C 
ENDBRANCH  13  19
ENDBRANCH   9  12
ENDBRANCH   6   8
BRANCH   1  21
ATOM     21  O   UNL     1      -3.068   9.375  -2.949  0.00  0.00    -0.486 OA
BRANCH  21  24
ATOM     22  C   UNL     1      -6.639   8.447  -2.959  0.00  0.00    +0.094 A 
ATOM     23  C   UNL     1      -5.327   8.499  -2.501  0.00  0.00    +0.076 A 
ATOM     24  C   UNL     1      -4.402   9.228  -3.249  0.00  0.00    +0.132 A 
ATOM     25  C   UNL     1      -4.809   9.832  -4.475  0.00  0.00    +0.043 A 
ATOM     26  C   UNL     1      -3.918  10.520  -5.330  0.00  0.00    +0.017 A 
ATOM     27  C   UNL     1      -4.322  11.014  -6.575  0.00  0.00    +0.047 A 
ATOM     28  C   UNL     1      -5.640  10.865  -6.987  0.00  0.00    +0.136 A 
ATOM     29  C   UNL     1      -6.551  10.254  -6.108  0.00  0.00    +0.085 A 
ATOM     30 BR   UNL     1      -8.395  10.110  -6.632  0.00  0.00    -0.044 Br
ATOM     31  C   UNL     1      -6.156   9.716  -4.869  0.00  0.00    +0.093 A 
ATOM     32  N   UNL     1      -7.041   9.069  -4.093  0.00  0.00    -0.244 NA
BRANCH  22  39
ATOM     33  C   UNL     1      -7.852   4.521   0.651  0.00  0.00    +0.221 C 
ATOM     34  N   UNL     1      -8.813   5.060  -0.167  0.00  0.00    -0.264 N 
ATOM     35  H   UNL     1      -9.753   4.692  -0.169  0.00  0.00    +0.157 HD
ATOM     36  C   UNL     1      -8.572   6.107  -1.013  0.00  0.00    +0.165 A 
ATOM     37  S   UNL     1      -9.976   6.630  -1.832  0.00  0.00    -0.060 S 
ATOM     38  C   UNL     1      -9.025   7.766  -2.685  0.00  0.00    +0.078 A 
ATOM     39  C   UNL     1      -7.694   7.664  -2.304  0.00  0.00    +0.098 A 
ATOM     40  N   UNL     1      -7.452   6.724  -1.307  0.00  0.00    -0.223 NA
ATOM     41  O   UNL     1      -6.733   4.995   0.851  0.00  0.00    -0.275 OA
BRANCH  33  43
ATOM     42  C   UNL     1      -8.566   2.128   0.336  0.00  0.00    +0.017 C 
ATOM     43  C   UNL     1      -8.316   3.239   1.355  0.00  0.00    +0.069 C 
ATOM     44  C   UNL     1      -7.288   2.771   2.386  0.00  0.00    +0.017 C 
ENDBRANCH  33  43
ENDBRANCH  22  39
BRANCH  28  45
ATOM     45  O   UNL     1      -6.121  11.279  -8.202  0.00  0.00    -0.494 OA
ATOM     46  C   UNL     1      -5.177  11.638  -9.203  0.00  0.00    +0.277 C 
ENDBRANCH  28  45
ENDBRANCH  21  24
ENDBRANCH   1  21
BRANCH   4  47
ATOM     47  C   UNL     1       1.748  10.281  -0.298  0.00  0.00    +0.168 C 
BRANCH  47  48
ATOM     48  N   UNL     1       1.780  10.776  -1.670  0.00  0.00    -0.269 N 
ATOM     49  H   UNL     1       1.030  11.324  -2.060  0.00  0.00    +0.153 HD
ATOM     50  C   UNL     1       2.638  10.218  -2.583  0.00  0.00    +0.401 C 
ATOM     51  O   UNL     1       3.547   9.451  -2.304  0.00  0.00    -0.226 OA
BRANCH  50  52
ATOM     52  O   UNL     1       2.302  10.611  -3.837  0.00  0.00    -0.447 OA
BRANCH  52  53
ATOM     53  C   UNL     1       3.062   9.996  -4.890  0.00  0.00    +0.178 C 
ATOM     54  C   UNL     1       2.802  10.713  -6.219  0.00  0.00    +0.045 C 
ATOM     55  C   UNL     1       2.815   9.633  -7.304  0.00  0.00    +0.004 C 
ATOM     56  C   UNL     1       3.092   8.318  -6.587  0.00  0.00    +0.004 C 
ATOM     57  C   UNL     1       2.614   8.563  -5.167  0.00  0.00    +0.045 C 
ENDBRANCH  52  53
ENDBRANCH  50  52
ENDBRANCH  47  48
BRANCH  47  58
ATOM     58  C   UNL     1       1.495  11.368   0.808  0.00  0.00    -0.011 C 
ATOM     59  C   UNL     1       2.685  12.361   0.845  0.00  0.00    +0.013 C 
ATOM     60  C   UNL     1       1.391  10.690   2.195  0.00  0.00    +0.013 C 
ATOM     61  C   UNL     1       0.220  12.199   0.598  0.00  0.00    +0.013 C 
ENDBRANCH  47  58
ENDBRANCH   4  47
TORSDOF 15
