REMARK  Name = 
REMARK  4 active torsions:
REMARK  status: ('A' for Active; 'I' for Inactive)
REMARK    1  A    between atoms: C_1  and  C_2
REMARK    2  A    between atoms: C_16  and  C_20
REMARK    3  A    between atoms: N_22  and  C_23
REMARK    4  A    between atoms: C_23  and  C_24
REMARK                            x       y       z     vdW  Elec       q    Type
REMARK                         _______ _______ _______ _____ _____    ______ ____
ROOT
ATOM      1  C   UNL     1       0.945  -0.230  -0.488  0.00  0.00    +0.028 C 
ATOM      2  C   UNL     1       2.460  -0.128  -0.233  0.00  0.00    +0.078 C 
ATOM      3  N   UNL     1       2.848   0.666   0.935  0.00  0.00    -0.266 N 
ATOM      4  C   UNL     1       2.331   1.945   1.041  0.00  0.00    +0.265 C 
ATOM      5  C   UNL     1       3.284   3.087   1.423  0.00  0.00    +0.101 A 
ATOM      6  N   UNL     1       4.614   2.773   1.802  0.00  0.00    -0.339 N 
ATOM      7  C   UNL     1       5.104   1.403   1.682  0.00  0.00    +0.173 C 
ATOM      8  C   UNL     1       5.511   3.798   1.990  0.00  0.00    +0.103 A 
ATOM      9  C   UNL     1       5.210   5.101   1.955  0.00  0.00    +0.099 A 
ATOM     10  C   UNL     1       3.771   5.441   1.838  0.00  0.00    +0.187 A 
ATOM     11  O   UNL     1       3.389   6.569   2.157  0.00  0.00    -0.288 OA
ATOM     12  C   UNL     1       2.771   4.348   1.369  0.00  0.00    -0.030 A 
ATOM     13  O   UNL     1       1.609   4.757   1.051  0.00  0.00    -0.870 OA
ATOM     14  O   UNL     1       1.110   2.073   0.921  0.00  0.00    -0.268 OA
ATOM     15  C   UNL     1       3.994   0.350   1.764  0.00  0.00    +0.228 C 
ATOM     16  O   UNL     1       4.587  -0.906   1.454  0.00  0.00    -0.357 OA
ATOM     17  C   UNL     1       3.682  -1.917   1.066  0.00  0.00    +0.164 C 
ATOM     18  C   UNL     1       3.055  -1.544  -0.244  0.00  0.00    +0.050 C 
ENDROOT
BRANCH   9  19
ATOM     19  C   UNL     1       6.369   6.077   2.188  0.00  0.00    +0.249 C 
ATOM     20  N   UNL     1       6.420   7.251   1.477  0.00  0.00    -0.307 N 
ATOM     21  H   UNL     1       7.170   7.875   1.712  0.00  0.00    +0.149 HD
ATOM     22  O   UNL     1       7.300   5.744   2.917  0.00  0.00    -0.270 OA
BRANCH  20  23
ATOM     23  C   UNL     1       5.395   7.811   0.647  0.00  0.00    +0.142 C 
BRANCH  23  24
ATOM     24  C   UNL     1       5.863   8.856  -0.337  0.00  0.00    +0.005 A 
ATOM     25  C   UNL     1       5.198  10.108  -0.404  0.00  0.00    +0.011 A 
ATOM     26  C   UNL     1       5.552  11.023  -1.367  0.00  0.00    +0.039 A 
ATOM     27  C   UNL     1       6.578  10.731  -2.256  0.00  0.00    +0.126 A 
ATOM     28  F   UNL     1       6.912  11.650  -3.198  0.00  0.00    -0.205 F 
ATOM     29  C   UNL     1       7.285   9.508  -2.219  0.00  0.00    +0.077 A 
ATOM     30  C   UNL     1       6.904   8.601  -1.228  0.00  0.00    +0.131 A 
ATOM     31  F   UNL     1       7.529   7.414  -1.210  0.00  0.00    -0.205 F 
ENDBRANCH  23  24
ENDBRANCH  20  23
ENDBRANCH   9  19
TORSDOF 3
REMARK  Name = 
REMARK  4 active torsions:
REMARK  status: ('A' for Active; 'I' for Inactive)
REMARK    1  A    between atoms: C_1  and  C_2
REMARK    2  A    between atoms: C_16  and  C_20
REMARK    3  A    between atoms: N_22  and  C_23
REMARK    4  A    between atoms: C_23  and  C_24
REMARK                            x       y       z     vdW  Elec       q    Type
REMARK                         _______ _______ _______ _____ _____    ______ ____
ROOT
ATOM      1 NA   UNL     1      -0.263   2.489   2.369  0.00  0.00    +0.000 Na
ENDROOT
TORSDOF 0
