REMARK  Name = 
REMARK  7 active torsions:
REMARK  status: ('A' for Active; 'I' for Inactive)
REMARK    1  A    between atoms: C_1  and  C_2
REMARK    2  A    between atoms: N_4  and  C_10
REMARK    3  A    between atoms: C_14  and  C_17
REMARK    4  A    between atoms: C_17  and  O_18
REMARK    5  A    between atoms: C_20  and  N_28
REMARK    6  A    between atoms: C_23  and  C_26
REMARK    7  A    between atoms: C_26  and  O_27
REMARK                            x       y       z     vdW  Elec       q    Type
REMARK                         _______ _______ _______ _____ _____    ______ ____
ROOT
ATOM      1  C   UNL     1       1.747  -0.065  -2.183  0.00  0.00    +0.051 C 
ATOM      2  C   UNL     1       3.062   0.065  -1.491  0.00  0.00    +0.030 A 
ATOM      3  C   UNL     1       3.749  -1.183  -1.085  0.00  0.00    +0.257 A 
ATOM      4  O   UNL     1       3.303  -2.288  -1.361  0.00  0.00    -0.267 OA
ATOM      5  N   UNL     1       4.907  -1.021  -0.383  0.00  0.00    -0.275 N 
ATOM      6  H   UNL     1       5.415  -1.862  -0.159  0.00  0.00    +0.173 HD
ATOM      7  C   UNL     1       5.592   0.159  -0.241  0.00  0.00    +0.332 A 
ATOM      8  O   UNL     1       6.758   0.141   0.157  0.00  0.00    -0.246 OA
ATOM      9  N   UNL     1       4.897   1.299  -0.606  0.00  0.00    -0.270 N 
ATOM     10  C   UNL     1       3.641   1.231  -1.181  0.00  0.00    +0.102 A 
ENDROOT
BRANCH   9  11
ATOM     11  C   UNL     1       5.648   2.541  -0.622  0.00  0.00    +0.248 C 
ATOM     12  O   UNL     1       4.900   3.648  -0.062  0.00  0.00    -0.343 OA
ATOM     13  C   UNL     1       5.371   4.817  -0.780  0.00  0.00    +0.169 C 
ATOM     14  C   UNL     1       5.682   4.277  -2.137  0.00  0.00    +0.007 C 
ATOM     15  C   UNL     1       5.876   2.961  -2.037  0.00  0.00    +0.025 C 
BRANCH  13  16
ATOM     16  C   UNL     1       4.342   5.947  -0.778  0.00  0.00    +0.191 C 
BRANCH  16  17
ATOM     17  O   UNL     1       4.839   7.057  -1.528  0.00  0.00    -0.392 OA
ATOM     18  H   UNL     1       4.074   7.594  -1.796  0.00  0.00    +0.210 HD
ENDBRANCH  16  17
ENDBRANCH  13  16
ENDBRANCH   9  11
TORSDOF 3
REMARK  Name = 
REMARK  7 active torsions:
REMARK  status: ('A' for Active; 'I' for Inactive)
REMARK    1  A    between atoms: C_1  and  C_2
REMARK    2  A    between atoms: N_4  and  C_10
REMARK    3  A    between atoms: C_14  and  C_17
REMARK    4  A    between atoms: C_17  and  O_18
REMARK    5  A    between atoms: C_20  and  N_28
REMARK    6  A    between atoms: C_23  and  C_26
REMARK    7  A    between atoms: C_26  and  O_27
REMARK                            x       y       z     vdW  Elec       q    Type
REMARK                         _______ _______ _______ _____ _____    ______ ____
ROOT
ATOM      1  N   UNL     1      -2.181   0.580   2.078  0.00  0.00    -0.272 N 
ATOM      2  C   UNL     1      -3.298  -0.223   2.343  0.00  0.00    +0.352 A 
ATOM      3  O   UNL     1      -3.549  -1.221   1.671  0.00  0.00    -0.244 OA
ATOM      4  N   UNL     1      -4.155   0.142   3.351  0.00  0.00    -0.178 NA
ATOM      5  C   UNL     1      -3.965   1.247   3.996  0.00  0.00    +0.123 A 
ATOM      6  N   UNL     1      -4.906   1.603   4.913  0.00  0.00    -0.343 N 
ATOM      7  H   UNL     1      -5.536   0.843   5.150  0.00  0.00    +0.144 HD
ATOM      8  H   UNL     1      -4.624   2.177   5.694  0.00  0.00    +0.144 HD
ATOM      9  C   UNL     1      -2.807   2.124   3.767  0.00  0.00    +0.061 A 
ATOM     10  C   UNL     1      -1.985   1.749   2.792  0.00  0.00    +0.096 A 
ENDROOT
BRANCH   1  15
ATOM     11  C   UNL     1      -1.053  -1.051   0.406  0.00  0.00    +0.126 C 
ATOM     12  S   UNL     1       0.424  -1.370   1.375  0.00  0.00    -0.123 S 
ATOM     13  C   UNL     1       0.895   0.362   1.261  0.00  0.00    +0.203 C 
ATOM     14  O   UNL     1      -0.220   1.162   0.843  0.00  0.00    -0.340 OA
ATOM     15  C   UNL     1      -1.438   0.374   0.826  0.00  0.00    +0.235 C 
BRANCH  13  16
ATOM     16  C   UNL     1       1.587   0.881   2.528  0.00  0.00    +0.198 C 
BRANCH  16  17
ATOM     17  O   UNL     1       0.777   0.780   3.696  0.00  0.00    -0.392 OA
ATOM     18  H   UNL     1       0.397  -0.120   3.692  0.00  0.00    +0.210 HD
ENDBRANCH  16  17
ENDBRANCH  13  16
ENDBRANCH   1  15
TORSDOF 3
