REMARK  Name = 
REMARK  7 active torsions:
REMARK  status: ('A' for Active; 'I' for Inactive)
REMARK    1  A    between atoms: C_1  and  C_2
REMARK    2  A    between atoms: N_4  and  C_10
REMARK    3  A    between atoms: C_14  and  C_17
REMARK    4  A    between atoms: C_17  and  O_18
REMARK    5  A    between atoms: C_20  and  N_28
REMARK    6  A    between atoms: C_23  and  C_26
REMARK    7  A    between atoms: C_26  and  O_27
REMARK                            x       y       z     vdW  Elec       q    Type
REMARK                         _______ _______ _______ _____ _____    ______ ____
ROOT
ATOM      1  C   UNL     1       1.855  -0.252  -2.232  0.00  0.00    +0.051 C 
ATOM      2  C   UNL     1       3.114  -0.123  -1.442  0.00  0.00    +0.030 A 
ATOM      3  C   UNL     1       3.750  -1.366  -0.950  0.00  0.00    +0.257 A 
ATOM      4  O   UNL     1       3.278  -2.473  -1.182  0.00  0.00    -0.267 OA
ATOM      5  N   UNL     1       4.904  -1.201  -0.246  0.00  0.00    -0.275 N 
ATOM      6  H   UNL     1       5.394  -2.044   0.014  0.00  0.00    +0.173 HD
ATOM      7  C   UNL     1       5.618  -0.035  -0.160  0.00  0.00    +0.332 A 
ATOM      8  O   UNL     1       6.792  -0.066   0.200  0.00  0.00    -0.246 OA
ATOM      9  N   UNL     1       4.943   1.115  -0.550  0.00  0.00    -0.270 N 
ATOM     10  C   UNL     1       3.704   1.045  -1.157  0.00  0.00    +0.102 A 
ENDROOT
BRANCH   9  11
ATOM     11  C   UNL     1       5.725   2.339  -0.608  0.00  0.00    +0.248 C 
ATOM     12  O   UNL     1       5.016   3.492  -0.092  0.00  0.00    -0.343 OA
ATOM     13  C   UNL     1       5.608   4.615  -0.800  0.00  0.00    +0.169 C 
ATOM     14  C   UNL     1       5.848   4.044  -2.157  0.00  0.00    +0.007 C 
ATOM     15  C   UNL     1       5.965   2.720  -2.035  0.00  0.00    +0.025 C 
BRANCH  13  16
ATOM     16  C   UNL     1       4.736   5.871  -0.737  0.00  0.00    +0.191 C 
BRANCH  16  17
ATOM     17  O   UNL     1       3.441   5.659  -1.291  0.00  0.00    -0.392 OA
ATOM     18  H   UNL     1       3.092   4.869  -0.837  0.00  0.00    +0.210 HD
ENDBRANCH  16  17
ENDBRANCH  13  16
ENDBRANCH   9  11
TORSDOF 3
REMARK  Name = 
REMARK  7 active torsions:
REMARK  status: ('A' for Active; 'I' for Inactive)
REMARK    1  A    between atoms: C_1  and  C_2
REMARK    2  A    between atoms: N_4  and  C_10
REMARK    3  A    between atoms: C_14  and  C_17
REMARK    4  A    between atoms: C_17  and  O_18
REMARK    5  A    between atoms: C_20  and  N_28
REMARK    6  A    between atoms: C_23  and  C_26
REMARK    7  A    between atoms: C_26  and  O_27
REMARK                            x       y       z     vdW  Elec       q    Type
REMARK                         _______ _______ _______ _____ _____    ______ ____
ROOT
ATOM      1  N   UNL     1      -2.202   0.459   2.037  0.00  0.00    -0.272 N 
ATOM      2  C   UNL     1      -3.200  -0.451   2.412  0.00  0.00    +0.352 A 
ATOM      3  O   UNL     1      -3.428  -1.467   1.767  0.00  0.00    -0.244 OA
ATOM      4  N   UNL     1      -3.976  -0.160   3.513  0.00  0.00    -0.178 NA
ATOM      5  C   UNL     1      -3.840   0.970   4.116  0.00  0.00    +0.123 A 
ATOM      6  N   UNL     1      -4.708   1.236   5.141  0.00  0.00    -0.343 N 
ATOM      7  H   UNL     1      -5.212   0.412   5.451  0.00  0.00    +0.144 HD
ATOM      8  H   UNL     1      -4.404   1.849   5.880  0.00  0.00    +0.144 HD
ATOM      9  C   UNL     1      -2.829   1.975   3.753  0.00  0.00    +0.061 A 
ATOM     10  C   UNL     1      -2.072   1.665   2.698  0.00  0.00    +0.096 A 
ENDROOT
BRANCH   1  15
ATOM     11  C   UNL     1      -1.059  -1.128   0.332  0.00  0.00    +0.126 C 
ATOM     12  S   UNL     1       0.470  -1.318   1.252  0.00  0.00    -0.123 S 
ATOM     13  C   UNL     1       0.799   0.439   1.110  0.00  0.00    +0.203 C 
ATOM     14  O   UNL     1      -0.377   1.148   0.669  0.00  0.00    -0.340 OA
ATOM     15  C   UNL     1      -1.533   0.273   0.739  0.00  0.00    +0.235 C 
BRANCH  13  16
ATOM     16  C   UNL     1       1.386   1.055   2.381  0.00  0.00    +0.198 C 
BRANCH  16  17
ATOM     17  O   UNL     1       1.742   2.425   2.149  0.00  0.00    -0.392 OA
ATOM     18  H   UNL     1       1.086   2.788   1.525  0.00  0.00    +0.210 HD
ENDBRANCH  16  17
ENDBRANCH  13  16
ENDBRANCH   1  15
TORSDOF 3
