REMARK  Name = 
REMARK  11 active torsions:
REMARK  status: ('A' for Active; 'I' for Inactive)
REMARK    1  A    between atoms: C_1  and  C_2
REMARK    2  A    between atoms: C_2  and  C_3
REMARK    3  A    between atoms: C_3  and  C_4
REMARK    4  A    between atoms: C_3  and  O_6
REMARK    5  A    between atoms: C_4  and  C_5
REMARK    6  A    between atoms: O_6  and  C_7
REMARK    7  A    between atoms: C_9  and  C_18
REMARK    8  A    between atoms: C_11  and  N_17
REMARK    9  A    between atoms: C_12  and  N_13
REMARK   10  A    between atoms: C_14  and  C_16
REMARK   11  A    between atoms: C_18  and  O_20
REMARK                            x       y       z     vdW  Elec       q    Type
REMARK                         _______ _______ _______ _____ _____    ______ ____
ROOT
ATOM      1  C   UNL     1       4.799  -1.762   2.031  0.00  0.00    +0.164 C 
ATOM      2  C   UNL     1       5.415  -2.941   1.213  0.00  0.00    +0.122 C 
ATOM      3  C   UNL     1       5.010  -4.392   1.618  0.00  0.00    +0.078 C 
ATOM      4  C   UNL     1       3.936  -4.584   2.703  0.00  0.00    +0.062 C 
ATOM      5  C   UNL     1       3.420  -3.364   3.395  0.00  0.00    +0.036 C 
ATOM      6  C   UNL     1       3.837  -2.122   3.116  0.00  0.00    +0.016 C 
ENDROOT
BRANCH   2   7
ATOM      7  N   UNL     1       5.253  -2.735  -0.237  0.00  0.00    -0.308 N 
ATOM      8  H   UNL     1       4.664  -1.954  -0.506  0.00  0.00    +0.149 HD
ATOM      9  C   UNL     1       5.997  -3.411  -1.174  0.00  0.00    +0.210 C 
ATOM     10  C   UNL     1       5.645  -3.078  -2.597  0.00  0.00    +0.109 C 
ATOM     11  O   UNL     1       6.852  -4.239  -0.884  0.00  0.00    -0.276 OA
ENDBRANCH   2   7
BRANCH   3  12
ATOM     12  N   UNL     1       6.202  -5.212   1.942  0.00  0.00    -0.325 NA
ATOM     13  H   UNL     1       6.805  -5.215   1.108  0.00  0.00    +0.119 HD
ATOM     14  H   UNL     1       6.754  -4.772   2.677  0.00  0.00    +0.119 HD
ENDBRANCH   3  12
BRANCH   5  15
ATOM     15  C   UNL     1       2.446  -3.633   4.490  0.00  0.00    +0.333 C 
ATOM     16  O   UNL     1       2.397  -4.690   5.096  0.00  0.00    -0.245 OA
BRANCH  15  17
ATOM     17  O   UNL     1       1.584  -2.623   4.726  0.00  0.00    -0.477 OA
ATOM     18  H   UNL     1       1.580  -1.929   4.044  0.00  0.00    +0.295 HD
ENDBRANCH  15  17
ENDBRANCH   5  15
BRANCH   1  19
ATOM     19  O   UNL     1       4.165  -0.833   1.119  0.00  0.00    -0.367 OA
BRANCH  19  20
ATOM     20  C   UNL     1       3.841   0.485   1.608  0.00  0.00    +0.119 C 
BRANCH  20  22
ATOM     21  C   UNL     1       4.833   2.621   2.643  0.00  0.00    +0.006 C 
ATOM     22  C   UNL     1       5.100   1.232   2.086  0.00  0.00    +0.028 C 
ENDBRANCH  20  22
BRANCH  20  23
ATOM     23  C   UNL     1       3.150   1.240   0.454  0.00  0.00    +0.028 C 
ATOM     24  C   UNL     1       1.832   0.612   0.014  0.00  0.00    +0.006 C 
ENDBRANCH  20  23
ENDBRANCH  19  20
ENDBRANCH   1  19
TORSDOF 8
