REMARK  Name = 
REMARK  9 active torsions:
REMARK  status: ('A' for Active; 'I' for Inactive)
REMARK    1  A    between atoms: C_1  and  C_2
REMARK    2  A    between atoms: C_2  and  C_4
REMARK    3  A    between atoms: C_2  and  O_15
REMARK    4  A    between atoms: C_4  and  N_5
REMARK    5  A    between atoms: C_9  and  N_14
REMARK    6  A    between atoms: O_15  and  C_16
REMARK    7  A    between atoms: C_16  and  P_17
REMARK    8  A    between atoms: P_17  and  O_19
REMARK    9  A    between atoms: P_17  and  O_20
REMARK                            x       y       z     vdW  Elec       q    Type
REMARK                         _______ _______ _______ _____ _____    ______ ____
ROOT
ATOM      1  N   UNL     1       2.430   0.226  -2.638  0.00  0.00    -0.312 N 
ATOM      2  C   UNL     1       2.447   0.977  -3.786  0.00  0.00    +0.165 A 
ATOM      3  C   UNL     1       1.969   0.123  -4.772  0.00  0.00    +0.147 A 
ATOM      4  C   UNL     1       1.867   0.641  -6.068  0.00  0.00    +0.147 A 
ATOM      5  N   UNL     1       2.276   1.911  -6.293  0.00  0.00    -0.219 NA
ATOM      6  C   UNL     1       2.729   2.627  -5.240  0.00  0.00    +0.225 A 
ATOM      7  N   UNL     1       1.703  -1.124  -4.256  0.00  0.00    -0.231 NA
ATOM      8  N   UNL     1       2.846   2.248  -3.947  0.00  0.00    -0.216 NA
ATOM      9  C   UNL     1       2.008  -1.030  -2.982  0.00  0.00    +0.201 A 
ENDROOT
BRANCH   4  10
ATOM     10  N   UNL     1       1.391  -0.111  -7.138  0.00  0.00    -0.341 N 
ATOM     11  H   UNL     1       1.736   0.227  -8.026  0.00  0.00    +0.144 HD
ATOM     12  H   UNL     1       1.434  -1.110  -6.965  0.00  0.00    +0.144 HD
ENDBRANCH   4  10
BRANCH   1  13
ATOM     13  C   UNL     1       2.856   0.708  -1.338  0.00  0.00    +0.156 C 
BRANCH  13  15
ATOM     14  C   UNL     1       0.970  -0.125   0.150  0.00  0.00    +0.040 C 
ATOM     15  C   UNL     1       2.479  -0.145  -0.104  0.00  0.00    +0.136 C 
BRANCH  15  16
ATOM     16  O   UNL     1       2.949  -1.511  -0.161  0.00  0.00    -0.363 OA
BRANCH  16  17
ATOM     17  C   UNL     1       4.394  -1.589  -0.217  0.00  0.00    +0.286 C 
BRANCH  17  18
ATOM     18  P   UNL     1       4.958  -3.187   0.388  0.00  0.00    +0.353 P 
ATOM     19  O   UNL     1       6.191  -3.160   1.227  0.00  0.00    -0.256 OA
BRANCH  18  20
ATOM     20  O   UNL     1       5.086  -4.170  -0.873  0.00  0.00    -0.323 OA
ATOM     21  H   UNL     1       5.495  -5.015  -0.598  0.00  0.00    +0.220 HD
ENDBRANCH  18  20
BRANCH  18  22
ATOM     22  O   UNL     1       3.680  -3.839   1.111  0.00  0.00    -0.323 OA
ATOM     23  H   UNL     1       2.842  -3.474   0.758  0.00  0.00    +0.220 HD
ENDBRANCH  18  22
ENDBRANCH  17  18
ENDBRANCH  16  17
ENDBRANCH  15  16
ENDBRANCH  13  15
ENDBRANCH   1  13
TORSDOF 8
