REMARK  Name = 
REMARK  9 active torsions:
REMARK  status: ('A' for Active; 'I' for Inactive)
REMARK    1  A    between atoms: C_1  and  C_2
REMARK    2  A    between atoms: C_2  and  C_4
REMARK    3  A    between atoms: C_2  and  O_15
REMARK    4  A    between atoms: C_4  and  N_5
REMARK    5  A    between atoms: C_9  and  N_14
REMARK    6  A    between atoms: O_15  and  C_16
REMARK    7  A    between atoms: C_16  and  P_17
REMARK    8  A    between atoms: P_17  and  O_19
REMARK    9  A    between atoms: P_17  and  O_20
REMARK                            x       y       z     vdW  Elec       q    Type
REMARK                         _______ _______ _______ _____ _____    ______ ____
ROOT
ATOM      1  N   UNL     1       2.614  -0.783  -2.490  0.00  0.00    -0.312 N 
ATOM      2  C   UNL     1       1.580  -0.757  -3.383  0.00  0.00    +0.165 A 
ATOM      3  C   UNL     1       1.653  -1.969  -4.045  0.00  0.00    +0.147 A 
ATOM      4  C   UNL     1       0.675  -2.221  -5.016  0.00  0.00    +0.147 A 
ATOM      5  N   UNL     1      -0.237  -1.258  -5.276  0.00  0.00    -0.219 NA
ATOM      6  C   UNL     1      -0.181  -0.114  -4.555  0.00  0.00    +0.225 A 
ATOM      7  N   UNL     1       2.734  -2.707  -3.614  0.00  0.00    -0.231 NA
ATOM      8  N   UNL     1       0.686   0.225  -3.579  0.00  0.00    -0.216 NA
ATOM      9  C   UNL     1       3.291  -1.960  -2.685  0.00  0.00    +0.201 A 
ENDROOT
BRANCH   4  10
ATOM     10  N   UNL     1       0.620  -3.409  -5.734  0.00  0.00    -0.341 N 
ATOM     11  H   UNL     1       0.149  -3.299  -6.621  0.00  0.00    +0.144 HD
ATOM     12  H   UNL     1       1.494  -3.923  -5.718  0.00  0.00    +0.144 HD
ENDBRANCH   4  10
BRANCH   1  13
ATOM     13  C   UNL     1       2.960   0.272  -1.563  0.00  0.00    +0.156 C 
BRANCH  13  15
ATOM     14  C   UNL     1       1.056   0.012   0.117  0.00  0.00    +0.040 C 
ATOM     15  C   UNL     1       2.565  -0.010  -0.101  0.00  0.00    +0.136 C 
BRANCH  15  16
ATOM     16  O   UNL     1       3.067  -1.273   0.364  0.00  0.00    -0.363 OA
BRANCH  16  17
ATOM     17  C   UNL     1       4.489  -1.249   0.529  0.00  0.00    +0.286 C 
BRANCH  17  18
ATOM     18  P   UNL     1       5.142  -2.810   1.226  0.00  0.00    +0.353 P 
ATOM     19  O   UNL     1       4.438  -2.562   2.563  0.00  0.00    -0.256 OA
BRANCH  18  20
ATOM     20  O   UNL     1       5.758  -4.286   1.886  0.00  0.00    -0.323 OA
ATOM     21  H   UNL     1       5.169  -4.478   2.643  0.00  0.00    +0.220 HD
ENDBRANCH  18  20
BRANCH  18  22
ATOM     22  O   UNL     1       4.091  -3.690   0.331  0.00  0.00    -0.323 OA
ATOM     23  H   UNL     1       3.186  -3.592   0.696  0.00  0.00    +0.220 HD
ENDBRANCH  18  22
ENDBRANCH  17  18
ENDBRANCH  16  17
ENDBRANCH  15  16
ENDBRANCH  13  15
ENDBRANCH   1  13
TORSDOF 8
