REMARK  Name = 
REMARK  9 active torsions:
REMARK  status: ('A' for Active; 'I' for Inactive)
REMARK    1  A    between atoms: N_3  and  C_9
REMARK    2  A    between atoms: C_9  and  C_10
REMARK    3  A    between atoms: C_10  and  C_11
REMARK    4  A    between atoms: C_10  and  O_13
REMARK    5  A    between atoms: C_11  and  O_12
REMARK    6  A    between atoms: O_13  and  C_14
REMARK    7  A    between atoms: C_14  and  P_15
REMARK    8  A    between atoms: P_15  and  O_17
REMARK    9  A    between atoms: P_15  and  O_18
REMARK                            x       y       z     vdW  Elec       q    Type
REMARK                         _______ _______ _______ _____ _____    ______ ____
ROOT
ATOM      1  C   UNL     1       1.467  -3.169   0.652  0.00  0.00    +0.164 C 
ENDROOT
BRANCH   1   2
ATOM      2  C   UNL     1       0.105  -2.580   0.195  0.00  0.00    +0.160 C 
BRANCH   2  11
ATOM      3  C   UNL     1      -0.846   0.939   0.548  0.00  0.00    +0.061 A 
ATOM      4  C   UNL     1       0.175   1.502  -0.362  0.00  0.00    +0.123 A 
ATOM      5  N   UNL     1       0.317   2.857  -0.452  0.00  0.00    -0.343 N 
ATOM      6  H   UNL     1      -0.490   3.440  -0.275  0.00  0.00    +0.144 HD
ATOM      7  H   UNL     1       0.889   3.148  -1.236  0.00  0.00    +0.144 HD
ATOM      8  N   UNL     1       0.962   0.778  -1.095  0.00  0.00    -0.178 NA
ATOM      9  C   UNL     1       0.905  -0.591  -0.994  0.00  0.00    +0.350 A 
ATOM     10  O   UNL     1       1.596  -1.306  -1.720  0.00  0.00    -0.244 OA
ATOM     11  N   UNL     1       0.067  -1.147  -0.024  0.00  0.00    -0.296 N 
ATOM     12  C   UNL     1      -0.823  -0.381   0.688  0.00  0.00    +0.094 A 
ENDBRANCH   2  11
ENDBRANCH   1   2
BRANCH   1  13
ATOM     13  O   UNL     1       1.350  -4.597   0.855  0.00  0.00    -0.360 OA
BRANCH  13  14
ATOM     14  C   UNL     1       1.094  -5.268  -0.382  0.00  0.00    +0.286 C 
BRANCH  14  15
ATOM     15  P   UNL     1       0.964  -7.086  -0.219  0.00  0.00    +0.353 P 
ATOM     16  O   UNL     1       2.441  -7.212   0.164  0.00  0.00    -0.256 OA
BRANCH  15  17
ATOM     17  O   UNL     1       0.840  -8.805  -0.065  0.00  0.00    -0.323 OA
ATOM     18  H   UNL     1       1.671  -9.064   0.384  0.00  0.00    +0.220 HD
ENDBRANCH  15  17
BRANCH  15  19
ATOM     19  O   UNL     1       0.165  -6.954   1.206  0.00  0.00    -0.323 OA
ATOM     20  H   UNL     1       0.817  -6.857   1.929  0.00  0.00    +0.220 HD
ENDBRANCH  15  19
ENDBRANCH  14  15
ENDBRANCH  13  14
ENDBRANCH   1  13
BRANCH   1  21
ATOM     21  C   UNL     1       1.977  -2.574   1.974  0.00  0.00    +0.189 C 
BRANCH  21  22
ATOM     22  O   UNL     1       2.215  -1.175   1.924  0.00  0.00    -0.392 OA
ATOM     23  H   UNL     1       2.853  -1.002   1.208  0.00  0.00    +0.210 HD
ENDBRANCH  21  22
ENDBRANCH   1  21
TORSDOF 9
