REMARK  Name = 
REMARK  9 active torsions:
REMARK  status: ('A' for Active; 'I' for Inactive)
REMARK    1  A    between atoms: N_3  and  C_9
REMARK    2  A    between atoms: C_9  and  C_10
REMARK    3  A    between atoms: C_10  and  C_11
REMARK    4  A    between atoms: C_10  and  O_13
REMARK    5  A    between atoms: C_11  and  O_12
REMARK    6  A    between atoms: O_13  and  C_14
REMARK    7  A    between atoms: C_14  and  P_15
REMARK    8  A    between atoms: P_15  and  O_17
REMARK    9  A    between atoms: P_15  and  O_18
REMARK                            x       y       z     vdW  Elec       q    Type
REMARK                         _______ _______ _______ _____ _____    ______ ____
ROOT
ATOM      1  C   UNL     1       1.432  -3.184   0.626  0.00  0.00    +0.164 C 
ENDROOT
BRANCH   1   2
ATOM      2  C   UNL     1       0.067  -2.599   0.211  0.00  0.00    +0.160 C 
BRANCH   2  11
ATOM      3  C   UNL     1       0.027   0.480  -1.772  0.00  0.00    +0.061 A 
ATOM      4  C   UNL     1      -0.596   1.341  -0.744  0.00  0.00    +0.123 A 
ATOM      5  N   UNL     1      -1.034   2.588  -1.084  0.00  0.00    -0.343 N 
ATOM      6  H   UNL     1      -0.559   3.084  -1.826  0.00  0.00    +0.144 HD
ATOM      7  H   UNL     1      -1.269   3.160  -0.281  0.00  0.00    +0.144 HD
ATOM      8  N   UNL     1      -0.762   0.976   0.488  0.00  0.00    -0.178 NA
ATOM      9  C   UNL     1      -0.429  -0.294   0.872  0.00  0.00    +0.350 A 
ATOM     10  O   UNL     1      -0.548  -0.668   2.037  0.00  0.00    -0.244 OA
ATOM     11  N   UNL     1       0.037  -1.180  -0.106  0.00  0.00    -0.296 N 
ATOM     12  C   UNL     1       0.293  -0.768  -1.394  0.00  0.00    +0.094 A 
ENDBRANCH   2  11
ENDBRANCH   1   2
BRANCH   1  13
ATOM     13  O   UNL     1       1.324  -4.629   0.779  0.00  0.00    -0.360 OA
BRANCH  13  14
ATOM     14  C   UNL     1       1.087  -5.246  -0.487  0.00  0.00    +0.286 C 
BRANCH  14  15
ATOM     15  P   UNL     1       0.963  -7.069  -0.373  0.00  0.00    +0.353 P 
ATOM     16  O   UNL     1       1.282  -7.205  -1.864  0.00  0.00    -0.256 OA
BRANCH  15  17
ATOM     17  O   UNL     1       0.845  -8.791  -0.264  0.00  0.00    -0.323 OA
ATOM     18  H   UNL     1       1.453  -9.104  -0.966  0.00  0.00    +0.220 HD
ENDBRANCH  15  17
BRANCH  15  19
ATOM     19  O   UNL     1       2.385  -7.144   0.440  0.00  0.00    -0.323 OA
ATOM     20  H   UNL     1       2.313  -6.746   1.334  0.00  0.00    +0.220 HD
ENDBRANCH  15  19
ENDBRANCH  14  15
ENDBRANCH  13  14
ENDBRANCH   1  13
BRANCH   1  21
ATOM     21  C   UNL     1       1.963  -2.598   1.943  0.00  0.00    +0.189 C 
BRANCH  21  22
ATOM     22  O   UNL     1       1.052  -2.795   3.020  0.00  0.00    -0.392 OA
ATOM     23  H   UNL     1       0.373  -2.090   2.954  0.00  0.00    +0.210 HD
ENDBRANCH  21  22
ENDBRANCH   1  21
TORSDOF 9
