REMARK  Name = 
REMARK  17 active torsions:
REMARK  status: ('A' for Active; 'I' for Inactive)
REMARK    1  A    between atoms: C_1  and  C_2
REMARK    2  A    between atoms: C_2  and  C_3
REMARK    3  A    between atoms: C_2  and  C_4
REMARK    4  A    between atoms: C_2  and  N_5
REMARK    5  A    between atoms: C_6  and  C_8
REMARK    6  A    between atoms: N_20  and  C_21
REMARK    7  A    between atoms: C_21  and  C_22
REMARK    8  A    between atoms: C_22  and  C_24
REMARK    9  A    between atoms: C_22  and  O_55
REMARK   10  A    between atoms: C_24  and  C_26
REMARK   11  A    between atoms: C_24  and  N_33
REMARK   12  A    between atoms: C_26  and  C_27
REMARK   13  A    between atoms: C_34  and  C_36
REMARK   14  A    between atoms: C_36  and  C_38
REMARK   15  A    between atoms: C_36  and  N_42
REMARK   16  A    between atoms: C_38  and  C_39
REMARK   17  A    between atoms: C_43  and  C_45
REMARK                            x       y       z     vdW  Elec       q    Type
REMARK                         _______ _______ _______ _____ _____    ______ ____
ROOT
ATOM      1  C   UNL     1       6.330  -9.751  -1.291  0.00  0.00    +0.107 C 
ENDROOT
BRANCH   1   2
ATOM      2  N   UNL     1       6.405  -8.877  -0.075  0.00  0.00    -0.308 N 
ATOM      3  H   UNL     1       6.244  -9.324   0.829  0.00  0.00    +0.149 HD
ATOM      4  C   UNL     1       7.258  -7.785  -0.005  0.00  0.00    +0.234 C 
ATOM      5  O   UNL     1       8.024  -7.467  -0.913  0.00  0.00    -0.274 OA
BRANCH   4   6
ATOM      6  C   UNL     1       7.386  -7.134   1.398  0.00  0.00    +0.168 C 
BRANCH   6   7
ATOM      7  N   UNL     1       6.177  -7.179   2.217  0.00  0.00    -0.298 N 
ATOM      8  H   UNL     1       5.340  -7.642   1.871  0.00  0.00    +0.150 HD
ATOM      9  C   UNL     1       6.066  -6.536   3.433  0.00  0.00    +0.263 C 
ATOM     10  O   UNL     1       6.968  -5.881   3.944  0.00  0.00    -0.269 OA
BRANCH   9  11
ATOM     11  C   UNL     1       4.736  -6.690   4.107  0.00  0.00    +0.126 A 
ATOM     12  C   UNL     1       4.493  -6.055   5.316  0.00  0.00    +0.033 A 
ATOM     13  C   UNL     1       3.221  -6.169   5.865  0.00  0.00    +0.012 A 
ATOM     14  C   UNL     1       2.236  -6.902   5.189  0.00  0.00    +0.000 A 
ATOM     15  C   UNL     1       2.591  -7.535   3.976  0.00  0.00    +0.072 A 
ATOM     16  C   UNL     1       1.619  -8.263   3.306  0.00  0.00    +0.028 A 
ATOM     17  C   UNL     1       0.308  -8.349   3.782  0.00  0.00    +0.002 A 
ATOM     18  C   UNL     1      -0.042  -7.711   4.967  0.00  0.00    +0.001 A 
ATOM     19  C   UNL     1       0.922  -6.999   5.678  0.00  0.00    +0.010 A 
ATOM     20  N   UNL     1       3.817  -7.440   3.439  0.00  0.00    -0.242 NA
ENDBRANCH   9  11
ENDBRANCH   6   7
BRANCH   6  21
ATOM     21  C   UNL     1       8.611  -7.747   2.090  0.00  0.00    +0.127 C 
BRANCH  21  22
ATOM     22  C   UNL     1       8.421  -9.204   2.449  0.00  0.00    +0.213 C 
ATOM     23  N   UNL     1       9.530  -9.799   2.974  0.00  0.00    -0.329 N 
ATOM     24  H   UNL     1       9.471 -10.776   3.229  0.00  0.00    +0.145 HD
ATOM     25  H   UNL     1      10.416  -9.322   3.071  0.00  0.00    +0.145 HD
ATOM     26  O   UNL     1       7.386  -9.844   2.295  0.00  0.00    -0.276 OA
ENDBRANCH  21  22
ENDBRANCH   6  21
ENDBRANCH   4   6
ENDBRANCH   1   2
BRANCH   1  27
ATOM     27  C   UNL     1       5.366  -9.113  -2.350  0.00  0.00    +0.149 C 
BRANCH  27  28
ATOM     28  O   UNL     1       5.624  -7.706  -2.489  0.00  0.00    -0.389 OA
ATOM     29  H   UNL     1       4.870  -7.300  -2.946  0.00  0.00    +0.210 HD
ENDBRANCH  27  28
BRANCH  27  30
ATOM     30  C   UNL     1       5.261  -9.743  -3.778  0.00  0.00    +0.118 C 
BRANCH  30  32
ATOM     31  C   UNL     1       6.729  -8.440  -5.337  0.00  0.00    +0.143 C 
ATOM     32  N   UNL     1       6.371  -9.752  -4.756  0.00  0.00    -0.289 NA
ATOM     33  C   UNL     1       7.496 -10.575  -4.351  0.00  0.00    +0.089 C 
ATOM     34  C   UNL     1       8.647 -10.606  -5.345  0.00  0.00    +0.006 C 
ATOM     35  C   UNL     1       9.267  -9.209  -5.406  0.00  0.00    -0.005 C 
ATOM     36  C   UNL     1      10.316  -9.100  -6.520  0.00  0.00    +0.004 C 
ATOM     37  C   UNL     1       9.835  -9.646  -7.859  0.00  0.00    +0.000 C 
ATOM     38  C   UNL     1       9.349 -11.085  -7.728  0.00  0.00    +0.000 C 
ATOM     39  C   UNL     1       8.235 -11.194  -6.699  0.00  0.00    +0.005 C 
ATOM     40  C   UNL     1       8.233  -8.063  -5.380  0.00  0.00    +0.032 C 
BRANCH  31  43
ATOM     41  N   UNL     1       5.094  -9.123  -7.103  0.00  0.00    -0.309 N 
ATOM     42  H   UNL     1       5.073  -9.973  -6.544  0.00  0.00    +0.149 HD
ATOM     43  C   UNL     1       6.119  -8.264  -6.756  0.00  0.00    +0.231 C 
ATOM     44  O   UNL     1       6.483  -7.344  -7.496  0.00  0.00    -0.274 OA
BRANCH  41  46
ATOM     45  C   UNL     1       5.442  -9.410  -9.542  0.00  0.00    +0.031 C 
ATOM     46  C   UNL     1       4.435  -9.095  -8.421  0.00  0.00    +0.026 C 
ATOM     47  C   UNL     1       3.323 -10.160  -8.469  0.00  0.00    +0.031 C 
ATOM     48  C   UNL     1       3.771  -7.726  -8.666  0.00  0.00    +0.031 C 
ENDBRANCH  41  46
ENDBRANCH  31  43
ENDBRANCH  30  32
ENDBRANCH  27  30
ENDBRANCH   1  27
BRANCH   1  49
ATOM     49  C   UNL     1       5.907 -11.171  -0.806  0.00  0.00    +0.060 C 
BRANCH  49  50
ATOM     50  C   UNL     1       5.839 -12.375  -1.722  0.00  0.00    -0.046 A 
ATOM     51  C   UNL     1       4.589 -12.907  -2.083  0.00  0.00    +0.004 A 
ATOM     52  C   UNL     1       4.488 -14.078  -2.839  0.00  0.00    +0.000 A 
ATOM     53  C   UNL     1       5.639 -14.743  -3.250  0.00  0.00    +0.000 A 
ATOM     54  C   UNL     1       6.889 -14.235  -2.900  0.00  0.00    +0.000 A 
ATOM     55  C   UNL     1       6.990 -13.066  -2.131  0.00  0.00    +0.004 A 
ENDBRANCH  49  50
ENDBRANCH   1  49
TORSDOF 14
