REMARK  Name = 
REMARK  4 active torsions:
REMARK  status: ('A' for Active; 'I' for Inactive)
REMARK    1  A    between atoms: N_3  and  C_9
REMARK    2  A    between atoms: C_12  and  N_19
REMARK    3  A    between atoms: C_14  and  C_17
REMARK    4  A    between atoms: C_17  and  O_18
REMARK                            x       y       z     vdW  Elec       q    Type
REMARK                         _______ _______ _______ _____ _____    ______ ____
ROOT
ATOM      1  C   UNL     1      -2.647   0.034  -1.018  0.00  0.00    +0.212 C 
ATOM      2  O   UNL     1      -3.443   1.194  -0.738  0.00  0.00    -0.351 OA
ATOM      3  C   UNL     1      -4.832   0.841  -0.913  0.00  0.00    +0.177 C 
ATOM      4  C   UNL     1      -4.880  -0.651  -1.270  0.00  0.00    +0.226 C 
ATOM      5  C   UNL     1      -3.549  -1.160  -0.753  0.00  0.00    +0.088 C 
ENDROOT
BRANCH   1  13
ATOM      6  C   UNL     1       0.182   1.743   0.440  0.00  0.00    +0.115 C 
ATOM      7  C   UNL     1       1.240   0.679   0.341  0.00  0.00    +0.222 C 
ATOM      8  O   UNL     1       2.435   0.929   0.486  0.00  0.00    -0.275 OA
ATOM      9  N   UNL     1       0.808  -0.571  -0.028  0.00  0.00    -0.240 N 
ATOM     10  H   UNL     1       1.539  -1.223  -0.263  0.00  0.00    +0.159 HD
ATOM     11  C   UNL     1      -0.422  -0.841  -0.569  0.00  0.00    +0.310 C 
ATOM     12  O   UNL     1      -0.574  -1.796  -1.321  0.00  0.00    -0.252 OA
ATOM     13  N   UNL     1      -1.417   0.060  -0.252  0.00  0.00    -0.259 N 
ATOM     14  C   UNL     1      -1.143   1.080   0.749  0.00  0.00    +0.121 C 
ENDBRANCH   1  13
BRANCH   4  15
ATOM     15  N   UNL     1      -4.888  -0.814  -2.740  0.00  0.00    +0.082 NA
ATOM     16  N   UNL     1      -6.003  -0.919  -3.280  0.00  0.00    -0.014 NA
ATOM     17  N   UNL     1      -7.027  -1.004  -3.774  0.00  0.00    -0.328 NA
ENDBRANCH   4  15
BRANCH   3  18
ATOM     18  C   UNL     1      -5.587   1.187   0.375  0.00  0.00    +0.189 C 
BRANCH  18  19
ATOM     19  O   UNL     1      -5.084   0.463   1.494  0.00  0.00    -0.392 OA
ATOM     20  H   UNL     1      -4.189   0.810   1.661  0.00  0.00    +0.210 HD
ENDBRANCH  18  19
ENDBRANCH   3  18
TORSDOF 4
