REMARK  Name = 
REMARK  5 active torsions:
REMARK  status: ('A' for Active; 'I' for Inactive)
REMARK    1  A    between atoms: C5M_1  and  C5_2
REMARK    2  A    between atoms: N1_4  and  C1*_10
REMARK    3  A    between atoms: C3*_13  and  O3*_19
REMARK    4  A    between atoms: C4*_14  and  C5*_17
REMARK    5  A    between atoms: C5*_17  and  O5*_18
REMARK                            x       y       z     vdW  Elec       q    Type
REMARK                         _______ _______ _______ _____ _____    ______ ____
ROOT
ATOM      1  C5M   T A   1       8.036   0.602  -4.237  0.00  0.00    +0.051 C 
ATOM      2  C5    T A   1       7.015   1.591  -3.783  0.00  0.00    +0.030 A 
ATOM      3  C4    T A   1       6.200   2.251  -4.822  0.00  0.00    +0.257 A 
ATOM      4  O4    T A   1       6.339   1.998  -6.016  0.00  0.00    -0.267 OA
ATOM      5  N3    T A   1       5.256   3.119  -4.371  0.00  0.00    -0.275 N 
ATOM      6  H3    T A   1       4.618   3.472  -5.070  0.00  0.00    +0.173 HD
ATOM      7  C2    T A   1       4.818   3.191  -3.077  0.00  0.00    +0.331 A 
ATOM      8  O2    T A   1       3.695   3.627  -2.846  0.00  0.00    -0.246 OA
ATOM      9  N1    T A   1       5.713   2.730  -2.114  0.00  0.00    -0.274 N 
ATOM     10  C6    T A   1       6.752   1.886  -2.502  0.00  0.00    +0.101 A 
ENDROOT
BRANCH   9  11
ATOM     11  C1*   T A   1       5.349   2.789  -0.684  0.00  0.00    +0.226 C 
ATOM     12  O4*   T A   1       6.566   2.660   0.094  0.00  0.00    -0.348 OA
ATOM     13  C4*   T A   1       6.806   3.884   0.817  0.00  0.00    +0.175 C 
ATOM     14  C3*   T A   1       5.855   4.925   0.241  0.00  0.00    +0.150 C 
ATOM     15  C2*   T A   1       4.685   4.069  -0.170  0.00  0.00    +0.088 C 
BRANCH  14  16
ATOM     16  O3*   T A   1       6.401   5.610  -0.885  0.00  0.00    -0.389 OA
ATOM     17  H3*   T A   1       6.623   4.953  -1.571  0.00  0.00    +0.210 HD
ENDBRANCH  14  16
BRANCH  13  18
ATOM     18  C5*   T A   1       8.280   4.278   0.745  0.00  0.00    +0.190 C 
BRANCH  18  19
ATOM     19  O5*   T A   1       8.518   5.513   1.409  0.00  0.00    -0.392 OA
ATOM     20  H5*   T A   1       8.116   6.212   0.857  0.00  0.00    +0.210 HD
ENDBRANCH  18  19
ENDBRANCH  13  18
ENDBRANCH   9  11
TORSDOF 4
