REMARK  Name = 
REMARK  16 active torsions:
REMARK  status: ('A' for Active; 'I' for Inactive)
REMARK    1  A    between atoms: C_1  and  C_2
REMARK    2  A    between atoms: C_2  and  C_3
REMARK    3  A    between atoms: C_2  and  C_4
REMARK    4  A    between atoms: C_2  and  N_5
REMARK    5  A    between atoms: N_5  and  C_6
REMARK    6  A    between atoms: N_5  and  S_29
REMARK    7  A    between atoms: C_6  and  C_7
REMARK    8  A    between atoms: C_7  and  C_9
REMARK    9  A    between atoms: C_7  and  O_28
REMARK   10  A    between atoms: C_9  and  C_11
REMARK   11  A    between atoms: C_9  and  N_18
REMARK   12  A    between atoms: C_11  and  C_12
REMARK   13  A    between atoms: C_19  and  O_21
REMARK   14  A    between atoms: O_21  and  C_22
REMARK   15  A    between atoms: S_29  and  C_32
REMARK   16  A    between atoms: C_35  and  N_38
REMARK                            x       y       z     vdW  Elec       q    Type
REMARK                         _______ _______ _______ _____ _____    ______ ____
ROOT
ATOM      1  C   UNL     1       1.168  -0.611   2.216  0.00  0.00    +0.151 C 
ENDROOT
BRANCH   1   2
ATOM      2  O   UNL     1       1.205   0.124   3.449  0.00  0.00    -0.389 OA
ATOM      3  H   UNL     1       1.186  -0.555   4.154  0.00  0.00    +0.210 HD
ENDBRANCH   1   2
BRANCH   1   4
ATOM      4  C   UNL     1       2.540  -1.323   2.045  0.00  0.00    +0.143 C 
BRANCH   4   5
ATOM      5  N   UNL     1       2.893  -2.368   3.183  0.00  0.00    -0.169 NA
BRANCH   5   7
ATOM      6  C   UNL     1       5.381  -1.929   2.824  0.00  0.00    +0.029 C 
ATOM      7  C   UNL     1       4.290  -3.019   2.949  0.00  0.00    +0.035 C 
ATOM      8  C   UNL     1       4.757  -3.851   4.158  0.00  0.00    +0.029 C 
ATOM      9  C   UNL     1       4.321  -3.904   1.697  0.00  0.00    +0.029 C 
ENDBRANCH   5   7
BRANCH   5  10
ATOM     10  S   UNL     1       1.514  -3.381   3.532  0.00  0.00    +0.061 S 
ATOM     11  O   UNL     1       1.209  -4.111   2.319  0.00  0.00    -0.153 OA
ATOM     12  O   UNL     1       0.512  -2.530   4.146  0.00  0.00    -0.153 OA
BRANCH  10  13
ATOM     13  C   UNL     1       1.925  -4.533   4.799  0.00  0.00    +0.106 A 
ATOM     14  C   UNL     1       1.954  -5.902   4.522  0.00  0.00    +0.030 A 
ATOM     15  C   UNL     1       2.339  -6.792   5.526  0.00  0.00    +0.024 A 
ATOM     16  C   UNL     1       2.714  -6.324   6.789  0.00  0.00    +0.025 A 
ATOM     17  C   UNL     1       2.551  -4.967   7.084  0.00  0.00    +0.024 A 
ATOM     18  C   UNL     1       2.163  -4.065   6.095  0.00  0.00    +0.030 A 
BRANCH  16  19
ATOM     19  N   UNL     1       3.034  -7.230   7.806  0.00  0.00    -0.358 N 
ATOM     20  H   UNL     1       3.436  -8.099   7.468  0.00  0.00    +0.142 HD
ATOM     21  H   UNL     1       3.585  -6.822   8.556  0.00  0.00    +0.142 HD
ENDBRANCH  16  19
ENDBRANCH  10  13
ENDBRANCH   5  10
ENDBRANCH   4   5
ENDBRANCH   1   4
BRANCH   1  22
ATOM     22  C   UNL     1       0.657   0.339   1.085  0.00  0.00    +0.110 C 
BRANCH  22  23
ATOM     23  N   UNL     1       0.620  -0.311  -0.225  0.00  0.00    -0.275 N 
ATOM     24  H   UNL     1      -0.238  -0.706  -0.581  0.00  0.00    +0.152 HD
ATOM     25  C   UNL     1       1.683  -0.313  -1.081  0.00  0.00    +0.401 C 
ATOM     26  O   UNL     1       2.787   0.126  -0.803  0.00  0.00    -0.226 OA
BRANCH  25  27
ATOM     27  O   UNL     1       1.342  -0.882  -2.261  0.00  0.00    -0.445 OA
BRANCH  27  28
ATOM     28  C   UNL     1       2.403  -0.922  -3.224  0.00  0.00    +0.206 C 
ATOM     29  C   UNL     1       2.798   0.445  -3.773  0.00  0.00    +0.204 C 
ATOM     30  O   UNL     1       3.152   0.273  -5.156  0.00  0.00    -0.376 OA
ATOM     31  C   UNL     1       2.907  -1.092  -5.512  0.00  0.00    +0.163 C 
ATOM     32  C   UNL     1       1.962  -1.647  -4.476  0.00  0.00    +0.075 C 
ENDBRANCH  27  28
ENDBRANCH  25  27
ENDBRANCH  22  23
BRANCH  22  33
ATOM     33  C   UNL     1      -0.782   0.803   1.487  0.00  0.00    +0.060 C 
BRANCH  33  34
ATOM     34  C   UNL     1      -1.489   1.760   0.551  0.00  0.00    -0.046 A 
ATOM     35  C   UNL     1      -0.974   3.040   0.314  0.00  0.00    +0.004 A 
ATOM     36  C   UNL     1      -1.670   3.946  -0.491  0.00  0.00    +0.000 A 
ATOM     37  C   UNL     1      -2.888   3.586  -1.063  0.00  0.00    +0.000 A 
ATOM     38  C   UNL     1      -3.417   2.320  -0.826  0.00  0.00    +0.000 A 
ATOM     39  C   UNL     1      -2.724   1.413  -0.021  0.00  0.00    +0.004 A 
ENDBRANCH  33  34
ENDBRANCH  22  33
ENDBRANCH   1  22
TORSDOF 13
