REMARK  Name = 
REMARK  5 active torsions:
REMARK  status: ('A' for Active; 'I' for Inactive)
REMARK    1  A    between atoms: C5M_1  and  C5_2
REMARK    2  A    between atoms: N1_4  and  C1*_10
REMARK    3  A    between atoms: C3*_13  and  O3*_19
REMARK    4  A    between atoms: C4*_14  and  C5*_17
REMARK    5  A    between atoms: C5*_17  and  O5*_18
REMARK                            x       y       z     vdW  Elec       q    Type
REMARK                         _______ _______ _______ _____ _____    ______ ____
ROOT
ATOM      1  C5M   T A   1       8.022   0.629  -4.254  0.00  0.00    +0.051 C 
ATOM      2  C5    T A   1       6.999   1.616  -3.795  0.00  0.00    +0.030 A 
ATOM      3  C4    T A   1       6.177   2.272  -4.834  0.00  0.00    +0.257 A 
ATOM      4  O4    T A   1       6.312   2.023  -6.026  0.00  0.00    -0.267 OA
ATOM      5  N3    T A   1       5.231   3.138  -4.379  0.00  0.00    -0.275 N 
ATOM      6  H3    T A   1       4.590   3.486  -5.074  0.00  0.00    +0.173 HD
ATOM      7  C2    T A   1       4.800   3.207  -3.085  0.00  0.00    +0.331 A 
ATOM      8  O2    T A   1       3.674   3.633  -2.849  0.00  0.00    -0.246 OA
ATOM      9  N1    T A   1       5.699   2.748  -2.123  0.00  0.00    -0.274 N 
ATOM     10  C6    T A   1       6.739   1.909  -2.515  0.00  0.00    +0.101 A 
ENDROOT
BRANCH   9  11
ATOM     11  C1*   T A   1       5.333   2.802  -0.692  0.00  0.00    +0.226 C 
ATOM     12  O4*   T A   1       6.548   2.669   0.086  0.00  0.00    -0.348 OA
ATOM     13  C4*   T A   1       6.788   3.892   0.811  0.00  0.00    +0.175 C 
ATOM     14  C3*   T A   1       5.836   4.934   0.238  0.00  0.00    +0.150 C 
ATOM     15  C2*   T A   1       4.668   4.079  -0.174  0.00  0.00    +0.088 C 
BRANCH  14  16
ATOM     16  O3*   T A   1       6.381   5.621  -0.887  0.00  0.00    -0.389 OA
ATOM     17  H3*   T A   1       6.596   4.967  -1.577  0.00  0.00    +0.210 HD
ENDBRANCH  14  16
BRANCH  13  18
ATOM     18  C5*   T A   1       8.261   4.288   0.739  0.00  0.00    +0.190 C 
BRANCH  18  19
ATOM     19  O5*   T A   1       8.500   5.523   1.404  0.00  0.00    -0.392 OA
ATOM     20  H5*   T A   1       8.098   6.222   0.852  0.00  0.00    +0.210 HD
ENDBRANCH  18  19
ENDBRANCH  13  18
ENDBRANCH   9  11
TORSDOF 4
