REMARK  Name = 
REMARK  16 active torsions:
REMARK  status: ('A' for Active; 'I' for Inactive)
REMARK    1  A    between atoms: C_1  and  C_2
REMARK    2  A    between atoms: C_2  and  C_3
REMARK    3  A    between atoms: C_2  and  C_4
REMARK    4  A    between atoms: C_2  and  N_5
REMARK    5  A    between atoms: N_5  and  C_6
REMARK    6  A    between atoms: N_5  and  S_29
REMARK    7  A    between atoms: C_6  and  C_7
REMARK    8  A    between atoms: C_7  and  C_9
REMARK    9  A    between atoms: C_7  and  O_28
REMARK   10  A    between atoms: C_9  and  C_11
REMARK   11  A    between atoms: C_9  and  N_18
REMARK   12  A    between atoms: C_11  and  C_12
REMARK   13  A    between atoms: C_19  and  O_21
REMARK   14  A    between atoms: O_21  and  C_22
REMARK   15  A    between atoms: S_29  and  C_32
REMARK   16  A    between atoms: C_35  and  N_38
REMARK                            x       y       z     vdW  Elec       q    Type
REMARK                         _______ _______ _______ _____ _____    ______ ____
ROOT
ATOM      1  C   UNL     1       0.982   1.444  -1.665  0.00  0.00    +0.151 C 
ENDROOT
BRANCH   1   2
ATOM      2  O   UNL     1       2.124   0.971  -2.393  0.00  0.00    -0.389 OA
ATOM      3  H   UNL     1       2.424   1.739  -2.925  0.00  0.00    +0.210 HD
ENDBRANCH   1   2
BRANCH   1   4
ATOM      4  C   UNL     1       1.463   2.489  -0.592  0.00  0.00    +0.143 C 
BRANCH   4   5
ATOM      5  N   UNL     1       1.985   3.847  -1.109  0.00  0.00    -0.169 NA
BRANCH   5   7
ATOM      6  C   UNL     1       3.838   3.982   0.682  0.00  0.00    +0.029 C 
ATOM      7  C   UNL     1       2.700   4.746  -0.047  0.00  0.00    +0.035 C 
ATOM      8  C   UNL     1       3.437   5.964  -0.659  0.00  0.00    +0.029 C 
ATOM      9  C   UNL     1       1.721   5.246   1.018  0.00  0.00    +0.029 C 
ENDBRANCH   5   7
BRANCH   5  10
ATOM     10  S   UNL     1       1.049   4.563  -2.393  0.00  0.00    +0.061 S 
ATOM     11  O   UNL     1       1.125   3.648  -3.514  0.00  0.00    -0.153 OA
ATOM     12  O   UNL     1       1.423   5.943  -2.595  0.00  0.00    -0.153 OA
BRANCH  10  13
ATOM     13  C   UNL     1      -0.650   4.574  -1.815  0.00  0.00    +0.106 A 
ATOM     14  C   UNL     1      -1.563   3.599  -2.233  0.00  0.00    +0.030 A 
ATOM     15  C   UNL     1      -2.890   3.632  -1.792  0.00  0.00    +0.024 A 
ATOM     16  C   UNL     1      -3.343   4.649  -0.953  0.00  0.00    +0.025 A 
ATOM     17  C   UNL     1      -2.460   5.693  -0.657  0.00  0.00    +0.024 A 
ATOM     18  C   UNL     1      -1.127   5.657  -1.077  0.00  0.00    +0.030 A 
BRANCH  16  19
ATOM     19  N   UNL     1      -4.699   4.746  -0.647  0.00  0.00    -0.358 N 
ATOM     20  H   UNL     1      -5.181   3.850  -0.631  0.00  0.00    +0.142 HD
ATOM     21  H   UNL     1      -4.907   5.310   0.175  0.00  0.00    +0.142 HD
ENDBRANCH  16  19
ENDBRANCH  10  13
ENDBRANCH   5  10
ENDBRANCH   4   5
ENDBRANCH   1   4
BRANCH   1  22
ATOM     22  C   UNL     1       0.148   0.247  -1.066  0.00  0.00    +0.110 C 
BRANCH  22  23
ATOM     23  N   UNL     1      -0.656  -0.484  -2.118  0.00  0.00    -0.275 N 
ATOM     24  H   UNL     1      -0.168  -1.181  -2.663  0.00  0.00    +0.152 HD
ATOM     25  C   UNL     1      -1.976  -0.301  -2.448  0.00  0.00    +0.401 C 
ATOM     26  O   UNL     1      -2.728   0.483  -1.907  0.00  0.00    -0.226 OA
BRANCH  25  27
ATOM     27  O   UNL     1      -2.314  -1.123  -3.497  0.00  0.00    -0.445 OA
BRANCH  27  28
ATOM     28  C   UNL     1      -3.621  -1.261  -4.149  0.00  0.00    +0.206 C 
ATOM     29  C   UNL     1      -4.763  -0.248  -4.010  0.00  0.00    +0.204 C 
ATOM     30  O   UNL     1      -5.982  -0.980  -3.741  0.00  0.00    -0.376 OA
ATOM     31  C   UNL     1      -5.749  -2.356  -4.053  0.00  0.00    +0.163 C 
ATOM     32  C   UNL     1      -4.279  -2.587  -3.797  0.00  0.00    +0.075 C 
ENDBRANCH  27  28
ENDBRANCH  25  27
ENDBRANCH  22  23
BRANCH  22  33
ATOM     33  C   UNL     1       1.115  -0.710  -0.332  0.00  0.00    +0.060 C 
BRANCH  33  34
ATOM     34  C   UNL     1       0.543  -1.772   0.578  0.00  0.00    -0.046 A 
ATOM     35  C   UNL     1      -0.660  -1.612   1.274  0.00  0.00    +0.004 A 
ATOM     36  C   UNL     1      -1.133  -2.624   2.113  0.00  0.00    +0.000 A 
ATOM     37  C   UNL     1      -0.399  -3.796   2.285  0.00  0.00    +0.000 A 
ATOM     38  C   UNL     1       0.827  -3.946   1.644  0.00  0.00    +0.000 A 
ATOM     39  C   UNL     1       1.298  -2.937   0.804  0.00  0.00    +0.004 A 
ENDBRANCH  33  34
ENDBRANCH  22  33
ENDBRANCH   1  22
TORSDOF 13
