REMARK  Name = 
REMARK  13 active torsions:
REMARK  status: ('A' for Active; 'I' for Inactive)
REMARK    1  A    between atoms: C_1  and  C_2
REMARK    2  A    between atoms: N_4  and  C_10
REMARK    3  A    between atoms: C_13  and  N_20
REMARK    4  A    between atoms: C_15  and  C_18
REMARK    5  A    between atoms: C_18  and  O_19
REMARK    6  A    between atoms: C_25  and  N_26
REMARK    7  A    between atoms: N_26  and  C_27
REMARK    8  A    between atoms: N_34  and  C_37
REMARK    9  A    between atoms: C_40  and  C_44
REMARK   10  A    between atoms: C_44  and  O_45
REMARK   11  A    between atoms: C_47  and  N_55
REMARK   12  A    between atoms: C_50  and  C_53
REMARK   13  A    between atoms: C_53  and  O_54
REMARK                            x       y       z     vdW  Elec       q    Type
REMARK                         _______ _______ _______ _____ _____    ______ ____
ROOT
ATOM      1  C   UNL     1       5.995   2.605  -0.957  0.00  0.00    +0.226 C 
ATOM      2  O   UNL     1       5.005   3.649  -1.143  0.00  0.00    -0.349 OA
ATOM      3  C   UNL     1       5.716   4.908  -1.202  0.00  0.00    +0.177 C 
ATOM      4  C   UNL     1       7.207   4.559  -1.253  0.00  0.00    +0.226 C 
ATOM      5  C   UNL     1       7.214   3.125  -1.693  0.00  0.00    +0.091 C 
ENDROOT
BRANCH   1  14
ATOM      6  C   UNL     1       2.237  -0.252  -1.099  0.00  0.00    +0.051 C 
ATOM      7  C   UNL     1       3.630  -0.097  -1.502  0.00  0.00    +0.030 A 
ATOM      8  C   UNL     1       4.483  -1.286  -1.513  0.00  0.00    +0.257 A 
ATOM      9  O   UNL     1       4.021  -2.419  -1.465  0.00  0.00    -0.267 OA
ATOM     10  N   UNL     1       5.815  -1.021  -1.490  0.00  0.00    -0.275 N 
ATOM     11  H   UNL     1       6.409  -1.820  -1.324  0.00  0.00    +0.173 HD
ATOM     12  C   UNL     1       6.361   0.210  -1.237  0.00  0.00    +0.331 A 
ATOM     13  O   UNL     1       7.519   0.286  -0.829  0.00  0.00    -0.246 OA
ATOM     14  N   UNL     1       5.515   1.306  -1.411  0.00  0.00    -0.274 N 
ATOM     15  C   UNL     1       4.165   1.122  -1.541  0.00  0.00    +0.101 A 
ENDBRANCH   1  14
BRANCH   4  16
ATOM     16  N   UNL     1       7.751   4.583   0.133  0.00  0.00    +0.082 NA
ATOM     17  N   UNL     1       8.411   5.585   0.450  0.00  0.00    -0.014 NA
ATOM     18  N   UNL     1       9.006   6.510   0.739  0.00  0.00    -0.328 NA
ENDBRANCH   4  16
BRANCH   3  19
ATOM     19  C   UNL     1       5.251   5.719  -2.424  0.00  0.00    +0.189 C 
BRANCH  19  20
ATOM     20  O   UNL     1       5.468   5.021  -3.640  0.00  0.00    -0.392 OA
ATOM     21  H   UNL     1       4.728   4.393  -3.738  0.00  0.00    +0.210 HD
ENDBRANCH  19  20
ENDBRANCH   3  19
TORSDOF 4
REMARK  Name = 
REMARK  13 active torsions:
REMARK  status: ('A' for Active; 'I' for Inactive)
REMARK    1  A    between atoms: C_1  and  C_2
REMARK    2  A    between atoms: N_4  and  C_10
REMARK    3  A    between atoms: C_13  and  N_20
REMARK    4  A    between atoms: C_15  and  C_18
REMARK    5  A    between atoms: C_18  and  O_19
REMARK    6  A    between atoms: C_25  and  N_26
REMARK    7  A    between atoms: N_26  and  C_27
REMARK    8  A    between atoms: N_34  and  C_37
REMARK    9  A    between atoms: C_40  and  C_44
REMARK   10  A    between atoms: C_44  and  O_45
REMARK   11  A    between atoms: C_47  and  N_55
REMARK   12  A    between atoms: C_50  and  C_53
REMARK   13  A    between atoms: C_53  and  O_54
REMARK                            x       y       z     vdW  Elec       q    Type
REMARK                         _______ _______ _______ _____ _____    ______ ____
ROOT
ATOM      1  C   UNL     1       1.373  -3.112   3.472  0.00  0.00    +0.152 A 
ATOM      2  N   UNL     1       0.927  -4.330   3.090  0.00  0.00    -0.198 NA
ATOM      3  C   UNL     1       0.582  -5.220   4.010  0.00  0.00    +0.216 A 
ATOM      4  N   UNL     1       0.012  -6.380   3.516  0.00  0.00    -0.327 N 
ATOM      5  H   UNL     1      -0.424  -6.137   2.631  0.00  0.00    +0.145 HD
ATOM      6  H   UNL     1      -0.588  -6.783   4.215  0.00  0.00    +0.145 HD
ATOM      7  N   UNL     1       0.631  -5.059   5.337  0.00  0.00    -0.195 NA
ATOM      8  C   UNL     1       0.997  -3.813   5.680  0.00  0.00    +0.168 A 
ATOM      9  N   UNL     1       1.065  -3.271   6.930  0.00  0.00    -0.308 N 
ATOM     10  C   UNL     1       1.336  -1.930   6.781  0.00  0.00    +0.202 A 
ATOM     11  N   UNL     1       1.567  -1.613   5.527  0.00  0.00    -0.231 NA
ATOM     12  C   UNL     1       1.353  -2.785   4.826  0.00  0.00    +0.148 A 
ENDROOT
BRANCH   9  13
ATOM     13  C   UNL     1       0.909  -4.016   8.175  0.00  0.00    +0.113 C 
ATOM     14  C   UNL     1       0.751  -3.116   9.370  0.00  0.00    -0.006 C 
ATOM     15  C   UNL     1      -0.524  -3.037   9.766  0.00  0.00    -0.023 C 
ATOM     16  C   UNL     1      -1.419  -3.931   8.948  0.00  0.00    +0.039 C 
ATOM     17  C   UNL     1      -0.384  -4.848   8.280  0.00  0.00    +0.039 C 
BRANCH  16  18
ATOM     18  C   UNL     1      -2.269  -3.191   7.907  0.00  0.00    +0.163 C 
BRANCH  18  19
ATOM     19  O   UNL     1      -3.218  -2.330   8.523  0.00  0.00    -0.394 OA
ATOM     20  H   UNL     1      -2.723  -1.646   9.006  0.00  0.00    +0.209 HD
ENDBRANCH  18  19
ENDBRANCH  16  18
ENDBRANCH   9  13
BRANCH   1  21
ATOM     21  N   UNL     1       1.782  -2.228   2.490  0.00  0.00    -0.324 N 
ATOM     22  H   UNL     1       2.432  -1.511   2.783  0.00  0.00    +0.148 HD
BRANCH  21  24
ATOM     23  C   UNL     1       0.066  -1.059   1.186  0.00  0.00    +0.024 C 
ATOM     24  C   UNL     1       1.055  -2.182   1.249  0.00  0.00    +0.072 C 
ATOM     25  C   UNL     1      -0.401  -2.450   0.967  0.00  0.00    +0.024 C 
ENDBRANCH  21  24
ENDBRANCH   1  21
TORSDOF 5
REMARK  Name = 
REMARK  13 active torsions:
REMARK  status: ('A' for Active; 'I' for Inactive)
REMARK    1  A    between atoms: C_1  and  C_2
REMARK    2  A    between atoms: N_4  and  C_10
REMARK    3  A    between atoms: C_13  and  N_20
REMARK    4  A    between atoms: C_15  and  C_18
REMARK    5  A    between atoms: C_18  and  O_19
REMARK    6  A    between atoms: C_25  and  N_26
REMARK    7  A    between atoms: N_26  and  C_27
REMARK    8  A    between atoms: N_34  and  C_37
REMARK    9  A    between atoms: C_40  and  C_44
REMARK   10  A    between atoms: C_44  and  O_45
REMARK   11  A    between atoms: C_47  and  N_55
REMARK   12  A    between atoms: C_50  and  C_53
REMARK   13  A    between atoms: C_53  and  O_54
REMARK                            x       y       z     vdW  Elec       q    Type
REMARK                         _______ _______ _______ _____ _____    ______ ____
ROOT
ATOM      1  N   UNL     1      -2.436   0.982   1.813  0.00  0.00    -0.272 N 
ATOM      2  C   UNL     1      -3.167  -0.142   2.232  0.00  0.00    +0.352 A 
ATOM      3  O   UNL     1      -3.771  -0.834   1.412  0.00  0.00    -0.244 OA
ATOM      4  N   UNL     1      -3.213  -0.443   3.579  0.00  0.00    -0.178 NA
ATOM      5  C   UNL     1      -2.636   0.333   4.440  0.00  0.00    +0.123 A 
ATOM      6  N   UNL     1      -2.749   0.045   5.770  0.00  0.00    -0.343 N 
ATOM      7  H   UNL     1      -3.117  -0.879   5.970  0.00  0.00    +0.144 HD
ATOM      8  H   UNL     1      -2.002   0.342   6.384  0.00  0.00    +0.144 HD
ATOM      9  C   UNL     1      -1.881   1.532   4.055  0.00  0.00    +0.061 A 
ATOM     10  C   UNL     1      -1.862   1.808   2.756  0.00  0.00    +0.096 A 
ENDROOT
BRANCH   1  15
ATOM     11  C   UNL     1      -2.192   0.364  -0.694  0.00  0.00    +0.126 C 
ATOM     12  S   UNL     1      -0.809   1.042  -1.629  0.00  0.00    -0.123 S 
ATOM     13  C   UNL     1      -0.548   2.394  -0.469  0.00  0.00    +0.203 C 
ATOM     14  O   UNL     1      -1.801   2.635   0.185  0.00  0.00    -0.340 OA
ATOM     15  C   UNL     1      -2.533   1.398   0.400  0.00  0.00    +0.235 C 
BRANCH  13  16
ATOM     16  C   UNL     1       0.586   2.318   0.596  0.00  0.00    +0.198 C 
BRANCH  16  17
ATOM     17  O   UNL     1       0.719   3.583   1.270  0.00  0.00    -0.392 OA
ATOM     18  H   UNL     1      -0.158   4.008   1.258  0.00  0.00    +0.210 HD
ENDBRANCH  16  17
ENDBRANCH  13  16
ENDBRANCH   1  15
TORSDOF 3
