REMARK  Name = 
REMARK  13 active torsions:
REMARK  status: ('A' for Active; 'I' for Inactive)
REMARK    1  A    between atoms: C_1  and  C_2
REMARK    2  A    between atoms: N_4  and  C_10
REMARK    3  A    between atoms: C_13  and  N_20
REMARK    4  A    between atoms: C_15  and  C_18
REMARK    5  A    between atoms: C_18  and  O_19
REMARK    6  A    between atoms: C_25  and  N_26
REMARK    7  A    between atoms: N_26  and  C_27
REMARK    8  A    between atoms: N_34  and  C_37
REMARK    9  A    between atoms: C_40  and  C_44
REMARK   10  A    between atoms: C_44  and  O_45
REMARK   11  A    between atoms: C_47  and  N_55
REMARK   12  A    between atoms: C_50  and  C_53
REMARK   13  A    between atoms: C_53  and  O_54
REMARK                            x       y       z     vdW  Elec       q    Type
REMARK                         _______ _______ _______ _____ _____    ______ ____
ROOT
ATOM      1  C   UNL     1       6.099   2.792  -0.538  0.00  0.00    +0.226 C 
ATOM      2  O   UNL     1       5.396   3.612   0.430  0.00  0.00    -0.349 OA
ATOM      3  C   UNL     1       5.441   4.984  -0.024  0.00  0.00    +0.177 C 
ATOM      4  C   UNL     1       6.233   4.985  -1.335  0.00  0.00    +0.226 C 
ATOM      5  C   UNL     1       6.023   3.588  -1.854  0.00  0.00    +0.091 C 
ENDROOT
BRANCH   1  14
ATOM      6  C   UNL     1       2.276   1.222  -2.354  0.00  0.00    +0.051 C 
ATOM      7  C   UNL     1       3.507   0.719  -1.726  0.00  0.00    +0.030 A 
ATOM      8  C   UNL     1       4.194  -0.553  -2.011  0.00  0.00    +0.257 A 
ATOM      9  O   UNL     1       3.761  -1.372  -2.817  0.00  0.00    -0.267 OA
ATOM     10  N   UNL     1       5.382  -0.714  -1.346  0.00  0.00    -0.275 N 
ATOM     11  H   UNL     1       5.876  -1.574  -1.529  0.00  0.00    +0.173 HD
ATOM     12  C   UNL     1       6.153   0.348  -0.927  0.00  0.00    +0.331 A 
ATOM     13  O   UNL     1       7.376   0.260  -0.877  0.00  0.00    -0.246 OA
ATOM     14  N   UNL     1       5.437   1.508  -0.658  0.00  0.00    -0.274 N 
ATOM     15  C   UNL     1       4.108   1.588  -0.929  0.00  0.00    +0.101 A 
ENDBRANCH   1  14
BRANCH   4  16
ATOM     16  N   UNL     1       7.672   5.078  -1.008  0.00  0.00    +0.082 NA
ATOM     17  N   UNL     1       8.218   6.159  -1.254  0.00  0.00    -0.014 NA
ATOM     18  N   UNL     1       8.720   7.156  -1.450  0.00  0.00    -0.328 NA
ENDBRANCH   4  16
BRANCH   3  19
ATOM     19  C   UNL     1       4.022   5.571  -0.142  0.00  0.00    +0.189 C 
BRANCH  19  20
ATOM     20  O   UNL     1       3.232   4.945  -1.151  0.00  0.00    -0.392 OA
ATOM     21  H   UNL     1       2.580   4.390  -0.686  0.00  0.00    +0.210 HD
ENDBRANCH  19  20
ENDBRANCH   3  19
TORSDOF 4
REMARK  Name = 
REMARK  13 active torsions:
REMARK  status: ('A' for Active; 'I' for Inactive)
REMARK    1  A    between atoms: C_1  and  C_2
REMARK    2  A    between atoms: N_4  and  C_10
REMARK    3  A    between atoms: C_13  and  N_20
REMARK    4  A    between atoms: C_15  and  C_18
REMARK    5  A    between atoms: C_18  and  O_19
REMARK    6  A    between atoms: C_25  and  N_26
REMARK    7  A    between atoms: N_26  and  C_27
REMARK    8  A    between atoms: N_34  and  C_37
REMARK    9  A    between atoms: C_40  and  C_44
REMARK   10  A    between atoms: C_44  and  O_45
REMARK   11  A    between atoms: C_47  and  N_55
REMARK   12  A    between atoms: C_50  and  C_53
REMARK   13  A    between atoms: C_53  and  O_54
REMARK                            x       y       z     vdW  Elec       q    Type
REMARK                         _______ _______ _______ _____ _____    ______ ____
ROOT
ATOM      1  C   UNL     1       2.528  -2.183   0.862  0.00  0.00    +0.152 A 
ATOM      2  N   UNL     1       3.523  -2.794   0.182  0.00  0.00    -0.198 NA
ATOM      3  C   UNL     1       4.383  -3.592   0.856  0.00  0.00    +0.216 A 
ATOM      4  N   UNL     1       5.429  -4.114   0.125  0.00  0.00    -0.327 N 
ATOM      5  H   UNL     1       5.161  -4.126  -0.849  0.00  0.00    +0.145 HD
ATOM      6  H   UNL     1       5.699  -4.997   0.540  0.00  0.00    +0.145 HD
ATOM      7  N   UNL     1       4.298  -4.011   2.135  0.00  0.00    -0.195 NA
ATOM      8  C   UNL     1       3.351  -3.351   2.803  0.00  0.00    +0.168 A 
ATOM      9  N   UNL     1       2.880  -3.572   4.081  0.00  0.00    -0.308 N 
ATOM     10  C   UNL     1       2.012  -2.550   4.359  0.00  0.00    +0.202 A 
ATOM     11  N   UNL     1       1.783  -1.820   3.294  0.00  0.00    -0.231 NA
ATOM     12  C   UNL     1       2.527  -2.373   2.280  0.00  0.00    +0.148 A 
ENDROOT
BRANCH   9  13
ATOM     13  C   UNL     1       3.079  -4.779   4.879  0.00  0.00    +0.113 C 
ATOM     14  C   UNL     1       2.182  -4.848   6.097  0.00  0.00    -0.006 C 
ATOM     15  C   UNL     1       1.110  -5.625   5.892  0.00  0.00    -0.023 C 
ATOM     16  C   UNL     1       1.143  -6.270   4.533  0.00  0.00    +0.039 C 
ATOM     17  C   UNL     1       2.621  -6.064   4.152  0.00  0.00    +0.039 C 
BRANCH  16  18
ATOM     18  C   UNL     1       0.178  -5.648   3.516  0.00  0.00    +0.163 C 
BRANCH  18  19
ATOM     19  O   UNL     1      -1.173  -5.879   3.899  0.00  0.00    -0.394 OA
ATOM     20  H   UNL     1      -1.384  -5.232   4.595  0.00  0.00    +0.209 HD
ENDBRANCH  18  19
ENDBRANCH  16  18
ENDBRANCH   9  13
BRANCH   1  21
ATOM     21  N   UNL     1       1.470  -1.439   0.259  0.00  0.00    -0.324 N 
ATOM     22  H   UNL     1       0.735  -1.531   0.964  0.00  0.00    +0.148 HD
BRANCH  21  24
ATOM     23  C   UNL     1       0.050  -0.299  -1.677  0.00  0.00    +0.024 C 
ATOM     24  C   UNL     1       0.931  -1.450  -1.127  0.00  0.00    +0.072 C 
ATOM     25  C   UNL     1      -0.564  -1.584  -1.351  0.00  0.00    +0.024 C 
ENDBRANCH  21  24
ENDBRANCH   1  21
TORSDOF 5
REMARK  Name = 
REMARK  13 active torsions:
REMARK  status: ('A' for Active; 'I' for Inactive)
REMARK    1  A    between atoms: C_1  and  C_2
REMARK    2  A    between atoms: N_4  and  C_10
REMARK    3  A    between atoms: C_13  and  N_20
REMARK    4  A    between atoms: C_15  and  C_18
REMARK    5  A    between atoms: C_18  and  O_19
REMARK    6  A    between atoms: C_25  and  N_26
REMARK    7  A    between atoms: N_26  and  C_27
REMARK    8  A    between atoms: N_34  and  C_37
REMARK    9  A    between atoms: C_40  and  C_44
REMARK   10  A    between atoms: C_44  and  O_45
REMARK   11  A    between atoms: C_47  and  N_55
REMARK   12  A    between atoms: C_50  and  C_53
REMARK   13  A    between atoms: C_53  and  O_54
REMARK                            x       y       z     vdW  Elec       q    Type
REMARK                         _______ _______ _______ _____ _____    ______ ____
ROOT
ATOM      1  N   UNL     1      -3.190   1.067   2.631  0.00  0.00    -0.272 N 
ATOM      2  C   UNL     1      -4.494   0.676   2.946  0.00  0.00    +0.352 A 
ATOM      3  O   UNL     1      -4.985  -0.366   2.503  0.00  0.00    -0.244 OA
ATOM      4  N   UNL     1      -5.261   1.525   3.688  0.00  0.00    -0.178 NA
ATOM      5  C   UNL     1      -4.781   2.705   3.979  0.00  0.00    +0.123 A 
ATOM      6  N   UNL     1      -5.578   3.540   4.679  0.00  0.00    -0.343 N 
ATOM      7  H   UNL     1      -6.273   3.061   5.226  0.00  0.00    +0.144 HD
ATOM      8  H   UNL     1      -5.123   4.301   5.147  0.00  0.00    +0.144 HD
ATOM      9  C   UNL     1      -3.460   3.188   3.599  0.00  0.00    +0.061 A 
ATOM     10  C   UNL     1      -2.694   2.293   3.004  0.00  0.00    +0.096 A 
ENDROOT
BRANCH   1  15
ATOM     11  C   UNL     1      -2.435  -1.090   1.632  0.00  0.00    +0.126 C 
ATOM     12  S   UNL     1      -0.825  -1.232   2.356  0.00  0.00    -0.123 S 
ATOM     13  C   UNL     1      -0.245   0.392   1.769  0.00  0.00    +0.203 C 
ATOM     14  O   UNL     1      -1.344   1.082   1.182  0.00  0.00    -0.340 OA
ATOM     15  C   UNL     1      -2.591   0.417   1.487  0.00  0.00    +0.235 C 
BRANCH  13  16
ATOM     16  C   UNL     1       0.621   1.156   2.799  0.00  0.00    +0.198 C 
BRANCH  16  17
ATOM     17  O   UNL     1       1.255   2.310   2.221  0.00  0.00    -0.392 OA
ATOM     18  H   UNL     1       0.571   2.824   1.765  0.00  0.00    +0.210 HD
ENDBRANCH  16  17
ENDBRANCH  13  16
ENDBRANCH   1  15
TORSDOF 3
