REMARK  Name = 
REMARK  23 active torsions:
REMARK  status: ('A' for Active; 'I' for Inactive)
REMARK    1  A    between atoms: C_1  and  C_2
REMARK    2  A    between atoms: C_2  and  C_3
REMARK    3  A    between atoms: C_2  and  C_4
REMARK    4  A    between atoms: C_6  and  C_9
REMARK    5  A    between atoms: C_9  and  N_10
REMARK    6  A    between atoms: N_10  and  C_11
REMARK    7  A    between atoms: N_14  and  C_15
REMARK    8  A    between atoms: C_15  and  C_17
REMARK    9  A    between atoms: C_15  and  C_20
REMARK   10  A    between atoms: C_17  and  C_18
REMARK   11  A    between atoms: C_17  and  C_19
REMARK   12  A    between atoms: N_22  and  C_23
REMARK   13  A    between atoms: C_23  and  C_47
REMARK   14  A    between atoms: C_24  and  C_25
REMARK   15  A    between atoms: C_25  and  C_27
REMARK   16  A    between atoms: C_25  and  O_46
REMARK   17  A    between atoms: C_27  and  C_29
REMARK   18  A    between atoms: C_27  and  N_36
REMARK   19  A    between atoms: C_29  and  C_30
REMARK   20  A    between atoms: C_37  and  O_39
REMARK   21  A    between atoms: O_39  and  C_40
REMARK   22  A    between atoms: C_40  and  C_41
REMARK   23  A    between atoms: C_47  and  C_48
REMARK                            x       y       z     vdW  Elec       q    Type
REMARK                         _______ _______ _______ _____ _____    ______ ____
ROOT
ATOM      1  C   UNL     1       3.905  -8.837 -10.542  0.00  0.00    +0.013 C 
ATOM      2  C   UNL     1       2.726  -8.246 -10.266  0.00  0.00    +0.025 C 
ENDROOT
BRANCH   1   4
ATOM      3  C   UNL     1       5.754  -8.585  -8.980  0.00  0.00    +0.238 C 
ATOM      4  N   UNL     1       4.737  -9.358  -9.547  0.00  0.00    -0.287 N 
ATOM      5  H   UNL     1       4.249  -9.845  -8.802  0.00  0.00    +0.155 HD
ATOM      6  O   UNL     1       5.983  -7.426  -9.332  0.00  0.00    -0.273 OA
BRANCH   3   7
ATOM      7  C   UNL     1       6.708  -9.315  -7.963  0.00  0.00    +0.163 C 
BRANCH   7  10
ATOM      8  N   UNL     1       5.825 -11.675  -5.148  0.00  0.00    -0.283 N 
ATOM      9  C   UNL     1       6.651 -10.868  -5.957  0.00  0.00    +0.303 C 
ATOM     10  N   UNL     1       6.004 -10.242  -7.021  0.00  0.00    -0.288 N 
ATOM     11  H   UNL     1       5.124  -9.863  -6.702  0.00  0.00    +0.151 HD
ATOM     12  O   UNL     1       7.849 -10.704  -5.728  0.00  0.00    -0.253 OA
ATOM     13  C   UNL     1       4.563 -12.203  -5.645  0.00  0.00    +0.134 C 
BRANCH   8  14
ATOM     14  C   UNL     1       6.471 -12.501  -4.096  0.00  0.00    +0.164 C 
BRANCH  14  18
ATOM     15  C   UNL     1       4.237 -13.697  -1.413  0.00  0.00    +0.081 A 
ATOM     16  S   UNL     1       4.786 -12.393  -0.425  0.00  0.00    -0.080 S 
ATOM     17  C   UNL     1       5.772 -11.832  -1.704  0.00  0.00    +0.071 A 
ATOM     18  C   UNL     1       5.654 -12.646  -2.816  0.00  0.00    +0.066 A 
ATOM     19  N   UNL     1       4.762 -13.724  -2.629  0.00  0.00    -0.247 NA
BRANCH  15  21
ATOM     20  C   UNL     1       1.922 -14.658  -1.661  0.00  0.00    +0.014 C 
ATOM     21  C   UNL     1       3.206 -14.656  -0.834  0.00  0.00    +0.038 C 
ATOM     22  C   UNL     1       3.744 -16.079  -0.675  0.00  0.00    +0.014 C 
ENDBRANCH  15  21
ENDBRANCH  14  18
ENDBRANCH   8  14
ENDBRANCH   7  10
BRANCH   7  23
ATOM     23  C   UNL     1       7.895  -9.960  -8.743  0.00  0.00    +0.012 C 
ATOM     24  C   UNL     1       8.645  -8.951  -9.634  0.00  0.00    +0.009 C 
ATOM     25  C   UNL     1       7.474 -11.169  -9.580  0.00  0.00    +0.009 C 
ENDBRANCH   7  23
ENDBRANCH   3   7
ENDBRANCH   1   4
BRANCH   1  26
ATOM     26  C   UNL     1       4.284  -9.128 -12.000  0.00  0.00    +0.085 C 
BRANCH  26  27
ATOM     27  C   UNL     1       4.450  -7.946 -12.939  0.00  0.00    -0.042 A 
ATOM     28  C   UNL     1       4.169  -8.093 -14.310  0.00  0.00    +0.004 A 
ATOM     29  C   UNL     1       4.396  -7.043 -15.208  0.00  0.00    +0.000 A 
ATOM     30  C   UNL     1       4.909  -5.832 -14.751  0.00  0.00    +0.000 A 
ATOM     31  C   UNL     1       5.187  -5.670 -13.397  0.00  0.00    +0.000 A 
ATOM     32  C   UNL     1       4.964  -6.719 -12.502  0.00  0.00    +0.004 A 
ENDBRANCH  26  27
ENDBRANCH   1  26
BRANCH   2  33
ATOM     33  C   UNL     1       2.105  -7.864  -8.952  0.00  0.00    +0.159 C 
BRANCH  33  34
ATOM     34  O   UNL     1       3.121  -7.762  -7.945  0.00  0.00    -0.386 OA
ATOM     35  H   UNL     1       3.655  -6.984  -8.208  0.00  0.00    +0.210 HD
ENDBRANCH  33  34
BRANCH  33  36
ATOM     36  C   UNL     1       1.026  -8.881  -8.483  0.00  0.00    +0.113 C 
BRANCH  36  37
ATOM     37  N   UNL     1       0.583  -8.577  -7.120  0.00  0.00    -0.275 N 
ATOM     38  H   UNL     1       1.036  -9.042  -6.346  0.00  0.00    +0.152 HD
ATOM     39  C   UNL     1      -0.061  -7.425  -6.791  0.00  0.00    +0.401 C 
ATOM     40  O   UNL     1      -0.395  -6.554  -7.581  0.00  0.00    -0.226 OA
BRANCH  39  41
ATOM     41  O   UNL     1      -0.250  -7.384  -5.453  0.00  0.00    -0.445 OA
BRANCH  41  42
ATOM     42  C   UNL     1      -0.956  -6.228  -4.986  0.00  0.00    +0.278 C 
BRANCH  42  43
ATOM     43  C   UNL     1      -2.412  -6.413  -5.243  0.00  0.00    +0.046 A 
ATOM     44  S   UNL     1      -3.331  -7.619  -4.440  0.00  0.00    -0.077 S 
ATOM     45  C   UNL     1      -4.721  -7.113  -5.308  0.00  0.00    +0.156 A 
ATOM     46  N   UNL     1      -4.553  -6.111  -6.142  0.00  0.00    -0.255 NA
ATOM     47  C   UNL     1      -3.230  -5.717  -6.112  0.00  0.00    +0.125 A 
ENDBRANCH  42  43
ENDBRANCH  41  42
ENDBRANCH  39  41
ENDBRANCH  36  37
BRANCH  36  48
ATOM     48  C   UNL     1      -0.152  -8.975  -9.484  0.00  0.00    +0.060 C 
BRANCH  48  49
ATOM     49  C   UNL     1      -1.169 -10.056  -9.188  0.00  0.00    -0.046 A 
ATOM     50  C   UNL     1      -0.821 -11.412  -9.257  0.00  0.00    +0.004 A 
ATOM     51  C   UNL     1      -1.787 -12.402  -9.063  0.00  0.00    +0.000 A 
ATOM     52  C   UNL     1      -3.109 -12.048  -8.801  0.00  0.00    +0.000 A 
ATOM     53  C   UNL     1      -3.465 -10.703  -8.724  0.00  0.00    +0.000 A 
ATOM     54  C   UNL     1      -2.501  -9.712  -8.913  0.00  0.00    +0.004 A 
ENDBRANCH  48  49
ENDBRANCH  36  48
ENDBRANCH  33  36
ENDBRANCH   2  33
TORSDOF 18
