REMARK  Name = 
REMARK  27 active torsions:
REMARK  status: ('A' for Active; 'I' for Inactive)
REMARK    1  A    between atoms: C_1  and  C_2
REMARK    2  A    between atoms: C_2  and  C_3
REMARK    3  A    between atoms: C_2  and  C_4
REMARK    4  A    between atoms: C_2  and  C_5
REMARK    5  A    between atoms: C_5  and  C_7
REMARK    6  A    between atoms: C_5  and  N_51
REMARK    7  A    between atoms: N_9  and  C_10
REMARK    8  A    between atoms: C_10  and  C_12
REMARK    9  A    between atoms: C_10  and  C_19
REMARK   10  A    between atoms: C_12  and  C_13
REMARK   11  A    between atoms: C_19  and  C_21
REMARK   12  A    between atoms: C_19  and  O_50
REMARK   13  A    between atoms: C_21  and  N_22
REMARK   14  A    between atoms: N_22  and  C_23
REMARK   15  A    between atoms: N_22  and  N_36
REMARK   16  A    between atoms: C_23  and  C_24
REMARK   17  A    between atoms: C_27  and  C_30
REMARK   18  A    between atoms: C_37  and  C_39
REMARK   19  A    between atoms: C_39  and  C_41
REMARK   20  A    between atoms: C_39  and  N_45
REMARK   21  A    between atoms: C_41  and  C_42
REMARK   22  A    between atoms: C_41  and  C_43
REMARK   23  A    between atoms: C_41  and  C_44
REMARK   24  A    between atoms: C_46  and  O_48
REMARK   25  A    between atoms: O_48  and  C_49
REMARK   26  A    between atoms: C_52  and  O_54
REMARK   27  A    between atoms: O_54  and  C_55
REMARK                            x       y       z     vdW  Elec       q    Type
REMARK                         _______ _______ _______ _____ _____    ______ ____
ROOT
ATOM      1  N   UNL     1       1.520   2.972   3.342  0.00  0.00    -0.220 NA
ENDROOT
BRANCH   1   2
ATOM      2  N   UNL     1       0.499   2.024   3.069  0.00  0.00    -0.246 N 
ATOM      3  H   UNL     1       0.694   1.029   3.111  0.00  0.00    +0.169 HD
ATOM      4  C   UNL     1      -0.852   2.362   3.009  0.00  0.00    +0.248 C 
ATOM      5  O   UNL     1      -1.297   3.491   3.166  0.00  0.00    -0.272 OA
BRANCH   4   6
ATOM      6  C   UNL     1      -1.667   1.122   2.533  0.00  0.00    +0.169 C 
BRANCH   6   7
ATOM      7  C   UNL     1      -3.108   1.377   2.004  0.00  0.00    -0.011 C 
ATOM      8  C   UNL     1      -3.576   0.129   1.219  0.00  0.00    +0.013 C 
ATOM      9  C   UNL     1      -3.113   2.554   1.000  0.00  0.00    +0.013 C 
ATOM     10  C   UNL     1      -4.117   1.665   3.123  0.00  0.00    +0.013 C 
ENDBRANCH   6   7
BRANCH   6  11
ATOM     11  N   UNL     1      -1.526  -0.008   3.467  0.00  0.00    -0.269 N 
ATOM     12  H   UNL     1      -1.662  -0.950   3.119  0.00  0.00    +0.153 HD
ATOM     13  C   UNL     1      -1.826   0.104   4.792  0.00  0.00    +0.401 C 
ATOM     14  O   UNL     1      -1.914   1.154   5.405  0.00  0.00    -0.226 OA
BRANCH  13  15
ATOM     15  O   UNL     1      -2.028  -1.127   5.319  0.00  0.00    -0.454 OA
ATOM     16  C   UNL     1      -2.403  -1.122   6.701  0.00  0.00    +0.282 C 
ENDBRANCH  13  15
ENDBRANCH   6  11
ENDBRANCH   4   6
ENDBRANCH   1   2
BRANCH   1  17
ATOM     17  C   UNL     1       2.778   2.257   3.699  0.00  0.00    +0.139 C 
BRANCH  17  18
ATOM     18  C   UNL     1       2.632   1.279   4.908  0.00  0.00    +0.151 C 
BRANCH  18  19
ATOM     19  O   UNL     1       2.385   2.029   6.108  0.00  0.00    -0.389 OA
ATOM     20  H   UNL     1       1.611   2.600   5.907  0.00  0.00    +0.210 HD
ENDBRANCH  18  19
BRANCH  18  21
ATOM     21  C   UNL     1       3.892   0.380   5.094  0.00  0.00    +0.107 C 
BRANCH  21  23
ATOM     22  C   UNL     1       4.823  -1.160   6.822  0.00  0.00    +0.234 C 
ATOM     23  N   UNL     1       3.773  -0.432   6.315  0.00  0.00    -0.308 N 
ATOM     24  H   UNL     1       2.917  -0.331   6.851  0.00  0.00    +0.149 HD
ATOM     25  O   UNL     1       5.898  -1.296   6.227  0.00  0.00    -0.274 OA
BRANCH  22  26
ATOM     26  C   UNL     1       4.613  -1.732   8.239  0.00  0.00    +0.167 C 
BRANCH  26  28
ATOM     27  C   UNL     1       4.133   0.591   9.193  0.00  0.00    +0.013 C 
ATOM     28  C   UNL     1       5.014  -0.673   9.315  0.00  0.00    -0.011 C 
ATOM     29  C   UNL     1       4.800  -1.258  10.724  0.00  0.00    +0.013 C 
ATOM     30  C   UNL     1       6.492  -0.246   9.179  0.00  0.00    +0.013 C 
ENDBRANCH  26  28
BRANCH  26  31
ATOM     31  N   UNL     1       5.424  -2.948   8.318  0.00  0.00    -0.269 N 
ATOM     32  H   UNL     1       6.410  -2.857   8.109  0.00  0.00    +0.153 HD
ATOM     33  C   UNL     1       4.932  -4.169   7.964  0.00  0.00    +0.401 C 
ATOM     34  O   UNL     1       3.756  -4.437   7.790  0.00  0.00    -0.226 OA
BRANCH  33  35
ATOM     35  O   UNL     1       5.970  -5.027   7.803  0.00  0.00    -0.454 OA
ATOM     36  C   UNL     1       5.615  -6.350   7.394  0.00  0.00    +0.282 C 
ENDBRANCH  33  35
ENDBRANCH  26  31
ENDBRANCH  22  26
ENDBRANCH  21  23
BRANCH  21  37
ATOM     37  C   UNL     1       4.205  -0.505   3.855  0.00  0.00    +0.060 C 
BRANCH  37  38
ATOM     38  C   UNL     1       3.154  -1.553   3.559  0.00  0.00    -0.046 A 
ATOM     39  C   UNL     1       3.226  -2.813   4.170  0.00  0.00    +0.004 A 
ATOM     40  C   UNL     1       2.241  -3.771   3.939  0.00  0.00    +0.000 A 
ATOM     41  C   UNL     1       1.169  -3.480   3.099  0.00  0.00    +0.000 A 
ATOM     42  C   UNL     1       1.095  -2.238   2.473  0.00  0.00    +0.000 A 
ATOM     43  C   UNL     1       2.091  -1.286   2.689  0.00  0.00    +0.004 A 
ENDBRANCH  37  38
ENDBRANCH  21  37
ENDBRANCH  18  21
ENDBRANCH  17  18
ENDBRANCH   1  17
BRANCH   1  44
ATOM     44  C   UNL     1       1.714   3.834   2.126  0.00  0.00    +0.140 C 
BRANCH  44  45
ATOM     45  C   UNL     1       2.845   4.834   2.232  0.00  0.00    -0.032 A 
ATOM     46  C   UNL     1       2.841   5.809   3.231  0.00  0.00    +0.005 A 
ATOM     47  C   UNL     1       3.992   6.562   3.484  0.00  0.00    +0.009 A 
ATOM     48  C   UNL     1       5.183   6.345   2.767  0.00  0.00    -0.018 A 
ATOM     49  C   UNL     1       5.107   5.496   1.649  0.00  0.00    +0.009 A 
ATOM     50  C   UNL     1       3.953   4.752   1.381  0.00  0.00    +0.005 A 
BRANCH  48  51
ATOM     51  C   UNL     1       6.494   6.834   3.271  0.00  0.00    -0.018 A 
ATOM     52  C   UNL     1       6.718   6.949   4.659  0.00  0.00    +0.008 A 
ATOM     53  C   UNL     1       7.983   7.228   5.183  0.00  0.00    +0.001 A 
ATOM     54  C   UNL     1       9.064   7.398   4.328  0.00  0.00    +0.000 A 
ATOM     55  C   UNL     1       8.872   7.321   2.952  0.00  0.00    +0.001 A 
ATOM     56  C   UNL     1       7.599   7.054   2.430  0.00  0.00    +0.008 A 
ENDBRANCH  48  51
ENDBRANCH  44  45
ENDBRANCH   1  44
TORSDOF 19
