REMARK  Name = 
REMARK  27 active torsions:
REMARK  status: ('A' for Active; 'I' for Inactive)
REMARK    1  A    between atoms: C_1  and  C_2
REMARK    2  A    between atoms: C_2  and  C_3
REMARK    3  A    between atoms: C_2  and  C_4
REMARK    4  A    between atoms: C_2  and  C_5
REMARK    5  A    between atoms: C_5  and  C_7
REMARK    6  A    between atoms: C_5  and  N_51
REMARK    7  A    between atoms: N_9  and  C_10
REMARK    8  A    between atoms: C_10  and  C_12
REMARK    9  A    between atoms: C_10  and  C_19
REMARK   10  A    between atoms: C_12  and  C_13
REMARK   11  A    between atoms: C_19  and  C_21
REMARK   12  A    between atoms: C_19  and  O_50
REMARK   13  A    between atoms: C_21  and  N_22
REMARK   14  A    between atoms: N_22  and  C_23
REMARK   15  A    between atoms: N_22  and  N_36
REMARK   16  A    between atoms: C_23  and  C_24
REMARK   17  A    between atoms: C_27  and  C_30
REMARK   18  A    between atoms: C_37  and  C_39
REMARK   19  A    between atoms: C_39  and  C_41
REMARK   20  A    between atoms: C_39  and  N_45
REMARK   21  A    between atoms: C_41  and  C_42
REMARK   22  A    between atoms: C_41  and  C_43
REMARK   23  A    between atoms: C_41  and  C_44
REMARK   24  A    between atoms: C_46  and  O_48
REMARK   25  A    between atoms: O_48  and  C_49
REMARK   26  A    between atoms: C_52  and  O_54
REMARK   27  A    between atoms: O_54  and  C_55
REMARK                            x       y       z     vdW  Elec       q    Type
REMARK                         _______ _______ _______ _____ _____    ______ ____
ROOT
ATOM      1  N   UNL     1      -0.968  -1.145  -5.262  0.00  0.00    -0.220 NA
ENDROOT
BRANCH   1   2
ATOM      2  N   UNL     1      -1.202  -0.560  -4.012  0.00  0.00    -0.246 N 
ATOM      3  H   UNL     1      -2.098  -0.704  -3.556  0.00  0.00    +0.169 HD
ATOM      4  C   UNL     1      -0.364   0.458  -3.557  0.00  0.00    +0.248 C 
ATOM      5  O   UNL     1       0.712   0.747  -4.079  0.00  0.00    -0.272 OA
BRANCH   4   6
ATOM      6  C   UNL     1      -0.819   1.082  -2.212  0.00  0.00    +0.169 C 
BRANCH   6   7
ATOM      7  C   UNL     1      -0.225   0.353  -0.962  0.00  0.00    -0.011 C 
ATOM      8  C   UNL     1      -0.600   1.134   0.317  0.00  0.00    +0.013 C 
ATOM      9  C   UNL     1       1.316   0.316  -1.042  0.00  0.00    +0.013 C 
ATOM     10  C   UNL     1      -0.734  -1.093  -0.811  0.00  0.00    +0.013 C 
ENDBRANCH   6   7
BRANCH   6  11
ATOM     11  N   UNL     1      -2.286   1.145  -2.183  0.00  0.00    -0.269 N 
ATOM     12  H   UNL     1      -2.844   0.478  -1.671  0.00  0.00    +0.153 HD
ATOM     13  C   UNL     1      -2.969   2.088  -2.887  0.00  0.00    +0.401 C 
ATOM     14  O   UNL     1      -2.465   2.965  -3.567  0.00  0.00    -0.226 OA
BRANCH  13  15
ATOM     15  O   UNL     1      -4.300   1.875  -2.740  0.00  0.00    -0.454 OA
ATOM     16  C   UNL     1      -5.107   2.801  -3.473  0.00  0.00    +0.282 C 
ENDBRANCH  13  15
ENDBRANCH   6  11
ENDBRANCH   4   6
ENDBRANCH   1   2
BRANCH   1  17
ATOM     17  C   UNL     1      -0.531  -2.531  -5.155  0.00  0.00    +0.139 C 
BRANCH  17  18
ATOM     18  C   UNL     1      -0.065  -3.304  -6.413  0.00  0.00    +0.151 C 
BRANCH  18  19
ATOM     19  O   UNL     1       0.313  -4.629  -5.965  0.00  0.00    -0.389 OA
ATOM     20  H   UNL     1      -0.513  -5.123  -5.814  0.00  0.00    +0.210 HD
ENDBRANCH  18  19
BRANCH  18  21
ATOM     21  C   UNL     1       1.113  -2.720  -7.246  0.00  0.00    +0.107 C 
BRANCH  21  23
ATOM     22  C   UNL     1       0.645  -4.034  -9.350  0.00  0.00    +0.234 C 
ATOM     23  N   UNL     1       1.495  -3.672  -8.316  0.00  0.00    -0.308 N 
ATOM     24  H   UNL     1       2.272  -4.283  -8.106  0.00  0.00    +0.149 HD
ATOM     25  O   UNL     1      -0.513  -3.628  -9.436  0.00  0.00    -0.274 OA
BRANCH  22  26
ATOM     26  C   UNL     1       1.203  -5.103 -10.322  0.00  0.00    +0.167 C 
BRANCH  26  27
ATOM     27  N   UNL     1       2.625  -4.813 -10.516  0.00  0.00    -0.269 N 
ATOM     28  H   UNL     1       3.062  -4.102  -9.949  0.00  0.00    +0.153 HD
ATOM     29  C   UNL     1       3.265  -4.952 -11.719  0.00  0.00    +0.401 C 
ATOM     30  O   UNL     1       2.802  -5.469 -12.721  0.00  0.00    -0.226 OA
BRANCH  29  31
ATOM     31  O   UNL     1       4.496  -4.405 -11.603  0.00  0.00    -0.454 OA
ATOM     32  C   UNL     1       5.320  -4.497 -12.767  0.00  0.00    +0.282 C 
ENDBRANCH  29  31
ENDBRANCH  26  27
BRANCH  26  34
ATOM     33  C   UNL     1      -0.611  -6.762  -9.650  0.00  0.00    +0.013 C 
ATOM     34  C   UNL     1       0.911  -6.559  -9.830  0.00  0.00    -0.011 C 
ATOM     35  C   UNL     1       1.386  -7.589 -10.873  0.00  0.00    +0.013 C 
ATOM     36  C   UNL     1       1.602  -6.881  -8.494  0.00  0.00    +0.013 C 
ENDBRANCH  26  34
ENDBRANCH  22  26
ENDBRANCH  21  23
BRANCH  21  37
ATOM     37  C   UNL     1       0.788  -1.336  -7.839  0.00  0.00    +0.060 C 
BRANCH  37  38
ATOM     38  C   UNL     1       1.763  -0.784  -8.839  0.00  0.00    -0.046 A 
ATOM     39  C   UNL     1       3.015  -0.322  -8.436  0.00  0.00    +0.004 A 
ATOM     40  C   UNL     1       3.920   0.129  -9.394  0.00  0.00    +0.000 A 
ATOM     41  C   UNL     1       3.573   0.123 -10.746  0.00  0.00    +0.000 A 
ATOM     42  C   UNL     1       2.303  -0.286 -11.145  0.00  0.00    +0.000 A 
ATOM     43  C   UNL     1       1.394  -0.723 -10.191  0.00  0.00    +0.004 A 
ENDBRANCH  37  38
ENDBRANCH  21  37
ENDBRANCH  18  21
ENDBRANCH  17  18
ENDBRANCH   1  17
BRANCH   1  44
ATOM     44  C   UNL     1      -1.939  -0.739  -6.276  0.00  0.00    +0.140 C 
BRANCH  44  45
ATOM     45  C   UNL     1      -3.350  -1.263  -6.226  0.00  0.00    -0.032 A 
ATOM     46  C   UNL     1      -3.628  -2.602  -6.509  0.00  0.00    +0.005 A 
ATOM     47  C   UNL     1      -4.925  -3.024  -6.787  0.00  0.00    +0.009 A 
ATOM     48  C   UNL     1      -6.002  -2.129  -6.767  0.00  0.00    -0.018 A 
ATOM     49  C   UNL     1      -5.721  -0.794  -6.425  0.00  0.00    +0.009 A 
ATOM     50  C   UNL     1      -4.416  -0.363  -6.166  0.00  0.00    +0.005 A 
BRANCH  48  51
ATOM     51  C   UNL     1      -7.370  -2.582  -7.098  0.00  0.00    -0.018 A 
ATOM     52  C   UNL     1      -7.800  -3.885  -6.788  0.00  0.00    +0.008 A 
ATOM     53  C   UNL     1      -9.107  -4.304  -7.045  0.00  0.00    +0.001 A 
ATOM     54  C   UNL     1     -10.016  -3.423  -7.619  0.00  0.00    +0.000 A 
ATOM     55  C   UNL     1      -9.609  -2.141  -7.973  0.00  0.00    +0.001 A 
ATOM     56  C   UNL     1      -8.296  -1.730  -7.726  0.00  0.00    +0.008 A 
ENDBRANCH  48  51
ENDBRANCH  44  45
ENDBRANCH   1  44
TORSDOF 19
