REMARK  Name = 
REMARK  8 active torsions:
REMARK  status: ('A' for Active; 'I' for Inactive)
REMARK    1  A    between atoms: C_1  and  C_2
REMARK    2  A    between atoms: C_2  and  C_3
REMARK    3  A    between atoms: C_2  and  N_4
REMARK    4  A    between atoms: N_13  and  C1*_14
REMARK    5  A    between atoms: C2*_16  and  O2*_26
REMARK    6  A    between atoms: C3*_18  and  O3*_25
REMARK    7  A    between atoms: C4*_20  and  C5*_23
REMARK    8  A    between atoms: C5*_23  and  O5*_24
REMARK                            x       y       z     vdW  Elec       q    Type
REMARK                         _______ _______ _______ _____ _____    ______ ____
ROOT
ATOM      1  N   UNL     1       3.135  -1.312  -0.824  0.00  0.00    -0.312 N 
ATOM      2  H   UNL     1       2.802  -1.497   0.126  0.00  0.00    +0.149 HD
ATOM      3  C   UNL     1       4.478  -1.445  -0.962  0.00  0.00    +0.199 A 
ATOM      4  N   UNL     1       5.070  -2.697  -1.001  0.00  0.00    -0.283 N 
ATOM      5  C   UNL     1       6.426  -2.509  -1.176  0.00  0.00    +0.074 A 
ATOM      6  C   UNL     1       6.579  -1.124  -1.183  0.00  0.00    +0.092 A 
ATOM      7  C   UNL     1       7.856  -0.556  -1.290  0.00  0.00    +0.051 A 
ATOM      8  C   UNL     1       8.962  -1.403  -1.413  0.00  0.00    +0.061 A 
ATOM      9 CL   UNL     1      10.519  -0.658  -1.528  0.00  0.00    -0.082 Cl
ATOM     10  C   UNL     1       8.795  -2.794  -1.437  0.00  0.00    +0.061 A 
ATOM     11 CL   UNL     1      10.137  -3.875  -1.607  0.00  0.00    -0.082 Cl
ATOM     12  C   UNL     1       7.519  -3.374  -1.317  0.00  0.00    +0.049 A 
ATOM     13  N   UNL     1       5.369  -0.493  -1.083  0.00  0.00    -0.214 NA
ENDROOT
BRANCH   4  14
ATOM     14  C1* UNL     1       4.316  -3.935  -0.906  0.00  0.00    +0.254 C 
ATOM     15  O4* UNL     1       5.119  -4.981  -0.312  0.00  0.00    -0.346 OA
ATOM     16  C4* UNL     1       4.767  -6.224  -0.962  0.00  0.00    +0.177 C 
ATOM     17  C3* UNL     1       3.583  -5.939  -1.889  0.00  0.00    +0.178 C 
ATOM     18  C2* UNL     1       3.810  -4.481  -2.250  0.00  0.00    +0.195 C 
BRANCH  17  19
ATOM     19  O3* UNL     1       2.325  -6.078  -1.211  0.00  0.00    -0.386 OA
ATOM     20  H3* UNL     1       1.640  -5.877  -1.880  0.00  0.00    +0.210 HD
ENDBRANCH  17  19
BRANCH  18  21
ATOM     21  O2* UNL     1       2.602  -3.913  -2.752  0.00  0.00    -0.385 OA
ATOM     22  H2* UNL     1       2.110  -3.525  -2.005  0.00  0.00    +0.210 HD
ENDBRANCH  18  21
BRANCH  16  23
ATOM     23  C5* UNL     1       4.499  -7.299   0.087  0.00  0.00    +0.190 C 
BRANCH  23  24
ATOM     24  O5* UNL     1       4.109  -8.524  -0.522  0.00  0.00    -0.392 OA
ATOM     25  H5* UNL     1       3.176  -8.413  -0.785  0.00  0.00    +0.210 HD
ENDBRANCH  23  24
ENDBRANCH  16  23
ENDBRANCH   4  14
BRANCH   1  27
ATOM     26  C   UNL     1       1.101  -0.361  -1.729  0.00  0.00    +0.027 C 
ATOM     27  C   UNL     1       2.542  -0.061  -1.322  0.00  0.00    +0.067 C 
ATOM     28  C   UNL     1       2.577   1.029  -0.250  0.00  0.00    +0.027 C 
ENDBRANCH   1  27
TORSDOF 6
