REMARK  Name = 
REMARK  8 active torsions:
REMARK  status: ('A' for Active; 'I' for Inactive)
REMARK    1  A    between atoms: C_1  and  C_2
REMARK    2  A    between atoms: C_2  and  C_3
REMARK    3  A    between atoms: C_2  and  N_4
REMARK    4  A    between atoms: N_13  and  C1*_14
REMARK    5  A    between atoms: C2*_16  and  O2*_26
REMARK    6  A    between atoms: C3*_18  and  O3*_25
REMARK    7  A    between atoms: C4*_20  and  C5*_23
REMARK    8  A    between atoms: C5*_23  and  O5*_24
REMARK                            x       y       z     vdW  Elec       q    Type
REMARK                         _______ _______ _______ _____ _____    ______ ____
ROOT
ATOM      1  N   UNL     1       3.731  -2.803  -0.903  0.00  0.00    -0.312 N 
ATOM      2  H   UNL     1       2.847  -3.180  -1.273  0.00  0.00    +0.149 HD
ATOM      3  C   UNL     1       3.609  -1.455  -1.061  0.00  0.00    +0.199 A 
ATOM      4  N   UNL     1       4.193  -0.513  -0.217  0.00  0.00    -0.283 N 
ATOM      5  C   UNL     1       3.695   0.721  -0.607  0.00  0.00    +0.074 A 
ATOM      6  C   UNL     1       2.682   0.412  -1.510  0.00  0.00    +0.092 A 
ATOM      7  C   UNL     1       1.837   1.424  -2.006  0.00  0.00    +0.051 A 
ATOM      8  C   UNL     1       2.094   2.750  -1.650  0.00  0.00    +0.061 A 
ATOM      9 CL   UNL     1       1.074   3.968  -2.334  0.00  0.00    -0.082 Cl
ATOM     10  C   UNL     1       3.158   3.059  -0.795  0.00  0.00    +0.061 A 
ATOM     11 CL   UNL     1       3.547   4.691  -0.366  0.00  0.00    -0.082 Cl
ATOM     12  C   UNL     1       3.962   2.047  -0.245  0.00  0.00    +0.049 A 
ATOM     13  N   UNL     1       2.648  -0.924  -1.772  0.00  0.00    -0.214 NA
ENDROOT
BRANCH   4  14
ATOM     14  C1* UNL     1       5.013  -0.843   0.952  0.00  0.00    +0.254 C 
ATOM     15  O4* UNL     1       5.664   0.330   1.533  0.00  0.00    -0.346 OA
ATOM     16  C4* UNL     1       5.002   0.662   2.794  0.00  0.00    +0.177 C 
ATOM     17  C3* UNL     1       3.809  -0.276   2.932  0.00  0.00    +0.178 C 
ATOM     18  C2* UNL     1       4.265  -1.485   2.132  0.00  0.00    +0.195 C 
BRANCH  17  19
ATOM     19  O3* UNL     1       2.649   0.309   2.343  0.00  0.00    -0.386 OA
ATOM     20  H3* UNL     1       2.045  -0.430   2.134  0.00  0.00    +0.210 HD
ENDBRANCH  17  19
BRANCH  18  21
ATOM     21  O2* UNL     1       3.177  -2.358   1.868  0.00  0.00    -0.385 OA
ATOM     22  H2* UNL     1       3.343  -2.794   1.006  0.00  0.00    +0.210 HD
ENDBRANCH  18  21
BRANCH  16  23
ATOM     23  C5* UNL     1       5.957   0.483   3.988  0.00  0.00    +0.190 C 
BRANCH  23  24
ATOM     24  O5* UNL     1       7.094   1.339   3.938  0.00  0.00    -0.392 OA
ATOM     25  H5* UNL     1       7.054   1.846   3.112  0.00  0.00    +0.210 HD
ENDBRANCH  23  24
ENDBRANCH  16  23
ENDBRANCH   4  14
BRANCH   1  27
ATOM     26  C   UNL     1       5.784  -2.865  -2.452  0.00  0.00    +0.027 C 
ATOM     27  C   UNL     1       4.762  -3.610  -1.598  0.00  0.00    +0.067 C 
ATOM     28  C   UNL     1       5.452  -4.472  -0.542  0.00  0.00    +0.027 C 
ENDBRANCH   1  27
TORSDOF 6
