REMARK  Name = 
REMARK  8 active torsions:
REMARK  status: ('A' for Active; 'I' for Inactive)
REMARK    1  A    between atoms: C_1  and  C_2
REMARK    2  A    between atoms: C_2  and  C_3
REMARK    3  A    between atoms: C_2  and  N_4
REMARK    4  A    between atoms: N_13  and  C1*_14
REMARK    5  A    between atoms: C2*_16  and  O2*_26
REMARK    6  A    between atoms: C3*_18  and  O3*_25
REMARK    7  A    between atoms: C4*_20  and  C5*_23
REMARK    8  A    between atoms: C5*_23  and  O5*_24
REMARK                            x       y       z     vdW  Elec       q    Type
REMARK                         _______ _______ _______ _____ _____    ______ ____
ROOT
ATOM      1  N   UNL     1       3.138  -0.993   1.074  0.00  0.00    -0.312 N 
ATOM      2  H   UNL     1       2.632  -1.484   0.334  0.00  0.00    +0.149 HD
ATOM      3  C   UNL     1       4.484  -1.133   1.115  0.00  0.00    +0.199 A 
ATOM      4  N   UNL     1       5.084  -2.384   1.100  0.00  0.00    -0.283 N 
ATOM      5  C   UNL     1       6.445  -2.186   1.256  0.00  0.00    +0.074 A 
ATOM      6  C   UNL     1       6.584  -0.800   1.304  0.00  0.00    +0.092 A 
ATOM      7  C   UNL     1       7.851  -0.220   1.451  0.00  0.00    +0.051 A 
ATOM      8  C   UNL     1       8.966  -1.054   1.581  0.00  0.00    +0.061 A 
ATOM      9 CL   UNL     1      10.506  -0.290   1.785  0.00  0.00    -0.082 Cl
ATOM     10  C   UNL     1       8.819  -2.444   1.560  0.00  0.00    +0.061 A 
ATOM     11 CL   UNL     1      10.169  -3.513   1.748  0.00  0.00    -0.082 Cl
ATOM     12  C   UNL     1       7.555  -3.036   1.391  0.00  0.00    +0.049 A 
ATOM     13  N   UNL     1       5.373  -0.180   1.225  0.00  0.00    -0.214 NA
ENDROOT
BRANCH   4  14
ATOM     14  C1* UNL     1       4.330  -3.635   1.127  0.00  0.00    +0.254 C 
ATOM     15  O4* UNL     1       5.203  -4.774   1.263  0.00  0.00    -0.346 OA
ATOM     16  C4* UNL     1       4.714  -5.840   0.420  0.00  0.00    +0.177 C 
ATOM     17  C3* UNL     1       3.343  -5.407  -0.093  0.00  0.00    +0.178 C 
ATOM     18  C2* UNL     1       3.492  -3.896  -0.136  0.00  0.00    +0.195 C 
BRANCH  17  19
ATOM     19  O3* UNL     1       2.291  -5.744   0.820  0.00  0.00    -0.386 OA
ATOM     20  H3* UNL     1       1.452  -5.649   0.331  0.00  0.00    +0.210 HD
ENDBRANCH  17  19
BRANCH  18  21
ATOM     21  O2* UNL     1       2.206  -3.267  -0.148  0.00  0.00    -0.385 OA
ATOM     22  H2* UNL     1       1.782  -3.490   0.706  0.00  0.00    +0.210 HD
ENDBRANCH  18  21
BRANCH  16  23
ATOM     23  C5* UNL     1       4.706  -7.158   1.199  0.00  0.00    +0.190 C 
BRANCH  23  24
ATOM     24  O5* UNL     1       6.027  -7.563   1.563  0.00  0.00    -0.392 OA
ATOM     25  H5* UNL     1       6.608  -7.466   0.791  0.00  0.00    +0.210 HD
ENDBRANCH  23  24
ENDBRANCH  16  23
ENDBRANCH   4  14
BRANCH   1  27
ATOM     26  C   UNL     1       2.568   1.266   0.245  0.00  0.00    +0.027 C 
ATOM     27  C   UNL     1       2.554   0.301   1.427  0.00  0.00    +0.067 C 
ATOM     28  C   UNL     1       1.119   0.054   1.895  0.00  0.00    +0.027 C 
ENDBRANCH   1  27
TORSDOF 6
