REMARK  Name = 
REMARK  3 active torsions:
REMARK  status: ('A' for Active; 'I' for Inactive)
REMARK    1  A    between atoms: C_3  and  C_4
REMARK    2  A    between atoms: C_5  and  C_6
REMARK    3  A    between atoms: C_6  and  C_18
REMARK                            x       y       z     vdW  Elec       q    Type
REMARK                         _______ _______ _______ _____ _____    ______ ____
ROOT
ATOM      1  C   UNL     1       2.940  -1.621   3.576  0.00  0.00    +0.296 C 
ATOM      2  O   UNL     1       3.832  -0.538   3.946  0.00  0.00    -0.417 OA
ATOM      3  C   UNL     1       5.015  -0.396   3.305  0.00  0.00    +0.407 C 
ATOM      4  O   UNL     1       5.572   0.691   3.197  0.00  0.00    -0.226 OA
ATOM      5  N   UNL     1       5.614  -1.541   2.866  0.00  0.00    -0.251 N 
ATOM      6  H   UNL     1       6.556  -1.420   2.520  0.00  0.00    +0.158 HD
ATOM      7  C   UNL     1       5.052  -2.805   2.961  0.00  0.00    +0.045 A 
ATOM      8  C   UNL     1       5.812  -3.935   2.659  0.00  0.00    +0.025 A 
ATOM      9  C   UNL     1       5.212  -5.195   2.683  0.00  0.00    +0.022 A 
ATOM     10  C   UNL     1       3.859  -5.310   2.992  0.00  0.00    +0.042 A 
ATOM     11 CL   UNL     1       3.101  -6.853   2.958  0.00  0.00    -0.084 Cl
ATOM     12  C   UNL     1       3.108  -4.179   3.309  0.00  0.00    +0.030 A 
ATOM     13  C   UNL     1       3.711  -2.907   3.315  0.00  0.00    +0.040 A 
ENDROOT
BRANCH   1  14
ATOM     14  C   UNL     1       2.113  -1.197   2.312  0.00  0.00    +0.446 C 
ATOM     15  F   UNL     1       2.254  -2.068   1.279  0.00  0.00    -0.165 F 
ATOM     16  F   UNL     1       2.492   0.015   1.836  0.00  0.00    -0.165 F 
ATOM     17  F   UNL     1       0.781  -1.116   2.558  0.00  0.00    -0.165 F 
ENDBRANCH   1  14
BRANCH   1  19
ATOM     18  C   UNL     1       1.304  -2.021   5.676  0.00  0.00    -0.094 C 
ATOM     19  C   UNL     1       2.044  -1.816   4.752  0.00  0.00    -0.041 C 
BRANCH  18  21
ATOM     20  C   UNL     1       0.826  -2.136   8.165  0.00  0.00    +0.017 C 
ATOM     21  C   UNL     1       0.382  -2.301   6.737  0.00  0.00    +0.064 C 
ATOM     22  C   UNL     1       0.617  -3.512   7.602  0.00  0.00    +0.017 C 
ENDBRANCH  18  21
ENDBRANCH   1  19
TORSDOF 3
