REMARK  Name = 
REMARK  16 active torsions:
REMARK  status: ('A' for Active; 'I' for Inactive)
REMARK    1  A    between atoms: C_1  and  C_2
REMARK    2  A    between atoms: C_3  and  C_9
REMARK    3  A    between atoms: C_7  and  O_8
REMARK    4  A    between atoms: N_11  and  C_12
REMARK    5  A    between atoms: C_12  and  C_14
REMARK    6  A    between atoms: C_12  and  C_22
REMARK    7  A    between atoms: C_14  and  S_15
REMARK    8  A    between atoms: S_15  and  C_16
REMARK    9  A    between atoms: C_22  and  C_23
REMARK   10  A    between atoms: C_22  and  O_44
REMARK   11  A    between atoms: C_23  and  N_24
REMARK   12  A    between atoms: C_35  and  C_37
REMARK   13  A    between atoms: N_39  and  C_40
REMARK   14  A    between atoms: C_40  and  C_41
REMARK   15  A    between atoms: C_40  and  C_42
REMARK   16  A    between atoms: C_40  and  C_43
REMARK                            x       y       z     vdW  Elec       q    Type
REMARK                         _______ _______ _______ _____ _____    ______ ____
ROOT
ATOM      1  C   UNL     1      -2.288   4.296  -0.869  0.00  0.00    +0.113 C 
ENDROOT
BRANCH   1   3
ATOM      2  C   UNL     1      -3.963   4.995   0.846  0.00  0.00    +0.245 C 
ATOM      3  N   UNL     1      -2.813   5.257   0.129  0.00  0.00    -0.305 N 
ATOM      4  H   UNL     1      -2.208   6.008   0.445  0.00  0.00    +0.149 HD
ATOM      5  O   UNL     1      -4.642   3.995   0.644  0.00  0.00    -0.270 OA
BRANCH   2  12
ATOM      6  C   UNL     1      -3.957   8.137   0.749  0.00  0.00    +0.048 C 
ATOM      7  C   UNL     1      -4.247   7.308   1.968  0.00  0.00    +0.003 A 
ATOM      8  C   UNL     1      -4.563   7.991   3.162  0.00  0.00    +0.120 A 
ATOM      9  C   UNL     1      -4.909   7.321   4.336  0.00  0.00    +0.046 A 
ATOM     10  C   UNL     1      -4.978   5.935   4.332  0.00  0.00    +0.004 A 
ATOM     11  C   UNL     1      -4.690   5.235   3.161  0.00  0.00    +0.013 A 
ATOM     12  C   UNL     1      -4.293   5.901   1.986  0.00  0.00    +0.043 A 
BRANCH   8  13
ATOM     13  O   UNL     1      -4.540   9.361   3.158  0.00  0.00    -0.506 OA
ATOM     14  H   UNL     1      -4.858   9.685   4.017  0.00  0.00    +0.292 HD
ENDBRANCH   8  13
ENDBRANCH   2  12
ENDBRANCH   1   3
BRANCH   1  15
ATOM     15  C   UNL     1      -1.262   3.322  -0.207  0.00  0.00    +0.149 C 
BRANCH  15  16
ATOM     16  O   UNL     1      -0.557   2.538  -1.178  0.00  0.00    -0.389 OA
ATOM     17  H   UNL     1      -1.222   2.064  -1.710  0.00  0.00    +0.210 HD
ENDBRANCH  15  16
BRANCH  15  18
ATOM     18  C   UNL     1      -1.844   2.328   0.858  0.00  0.00    +0.118 C 
BRANCH  18  19
ATOM     19  N   UNL     1      -0.805   1.422   1.409  0.00  0.00    -0.289 NA
ATOM     20  C   UNL     1      -1.260   0.359   2.343  0.00  0.00    +0.143 C 
ATOM     21  C   UNL     1      -1.429   0.837   3.797  0.00  0.00    +0.032 C 
ATOM     22  C   UNL     1      -0.192   1.552   4.346  0.00  0.00    -0.005 C 
ATOM     23  C   UNL     1       0.219   2.688   3.415  0.00  0.00    +0.006 C 
ATOM     24  C   UNL     1      -0.628   3.969   3.567  0.00  0.00    +0.005 C 
ATOM     25  C   UNL     1      -1.644   4.046   4.718  0.00  0.00    +0.000 C 
ATOM     26  C   UNL     1      -1.562   3.033   5.857  0.00  0.00    +0.000 C 
ATOM     27  C   UNL     1      -0.382   2.087   5.763  0.00  0.00    +0.004 C 
ATOM     28  C   UNL     1       0.364   2.126   1.980  0.00  0.00    +0.089 C 
BRANCH  20  29
ATOM     29  C   UNL     1      -2.556  -0.383   1.930  0.00  0.00    +0.231 C 
ATOM     30  N   UNL     1      -2.512  -1.083   0.738  0.00  0.00    -0.309 N 
ATOM     31  H   UNL     1      -1.730  -0.901   0.126  0.00  0.00    +0.149 HD
ATOM     32  O   UNL     1      -3.530  -0.424   2.677  0.00  0.00    -0.274 OA
BRANCH  30  33
ATOM     33  C   UNL     1      -3.564  -2.045   0.338  0.00  0.00    +0.026 C 
ATOM     34  C   UNL     1      -3.641  -3.213   1.343  0.00  0.00    +0.031 C 
ATOM     35  C   UNL     1      -3.219  -2.643  -1.039  0.00  0.00    +0.031 C 
ATOM     36  C   UNL     1      -4.940  -1.366   0.226  0.00  0.00    +0.031 C 
ENDBRANCH  30  33
ENDBRANCH  20  29
ENDBRANCH  18  19
ENDBRANCH  15  18
ENDBRANCH   1  15
BRANCH   1  37
ATOM     37  C   UNL     1      -1.682   5.098  -2.058  0.00  0.00    +0.099 C 
BRANCH  37  38
ATOM     38  S   UNL     1      -1.261   4.088  -3.535  0.00  0.00    -0.123 S 
BRANCH  38  39
ATOM     39  C   UNL     1      -0.431   5.308  -4.530  0.00  0.00    +0.008 A 
ATOM     40  C   UNL     1      -1.180   6.285  -5.184  0.00  0.00    +0.015 A 
ATOM     41  C   UNL     1      -0.560   7.208  -6.023  0.00  0.00    +0.001 A 
ATOM     42  C   UNL     1       0.819   7.158  -6.218  0.00  0.00    +0.000 A 
ATOM     43  C   UNL     1       1.577   6.184  -5.570  0.00  0.00    +0.001 A 
ATOM     44  C   UNL     1       0.953   5.256  -4.730  0.00  0.00    +0.015 A 
ENDBRANCH  38  39
ENDBRANCH  37  38
ENDBRANCH   1  37
TORSDOF 12
