REMARK  Name = 
REMARK  16 active torsions:
REMARK  status: ('A' for Active; 'I' for Inactive)
REMARK    1  A    between atoms: C_1  and  C_2
REMARK    2  A    between atoms: C_3  and  C_9
REMARK    3  A    between atoms: C_7  and  O_8
REMARK    4  A    between atoms: N_11  and  C_12
REMARK    5  A    between atoms: C_12  and  C_14
REMARK    6  A    between atoms: C_12  and  C_22
REMARK    7  A    between atoms: C_14  and  S_15
REMARK    8  A    between atoms: S_15  and  C_16
REMARK    9  A    between atoms: C_22  and  C_23
REMARK   10  A    between atoms: C_22  and  O_44
REMARK   11  A    between atoms: C_23  and  N_24
REMARK   12  A    between atoms: C_35  and  C_37
REMARK   13  A    between atoms: N_39  and  C_40
REMARK   14  A    between atoms: C_40  and  C_41
REMARK   15  A    between atoms: C_40  and  C_42
REMARK   16  A    between atoms: C_40  and  C_43
REMARK                            x       y       z     vdW  Elec       q    Type
REMARK                         _______ _______ _______ _____ _____    ______ ____
ROOT
ATOM      1  C   UNL     1      -2.306   4.207  -0.750  0.00  0.00    +0.113 C 
ENDROOT
BRANCH   1   3
ATOM      2  C   UNL     1      -3.961   4.923   0.980  0.00  0.00    +0.245 C 
ATOM      3  N   UNL     1      -2.821   5.174   0.252  0.00  0.00    -0.305 N 
ATOM      4  H   UNL     1      -2.210   5.927   0.552  0.00  0.00    +0.149 HD
ATOM      5  O   UNL     1      -4.649   3.923   0.793  0.00  0.00    -0.270 OA
BRANCH   2  12
ATOM      6  C   UNL     1      -3.975   8.059   0.838  0.00  0.00    +0.048 C 
ATOM      7  C   UNL     1      -4.245   7.249   2.075  0.00  0.00    +0.003 A 
ATOM      8  C   UNL     1      -4.555   7.947   3.260  0.00  0.00    +0.120 A 
ATOM      9  C   UNL     1      -4.885   7.294   4.448  0.00  0.00    +0.046 A 
ATOM     10  C   UNL     1      -4.942   5.908   4.466  0.00  0.00    +0.004 A 
ATOM     11  C   UNL     1      -4.661   5.191   3.303  0.00  0.00    +0.013 A 
ATOM     12  C   UNL     1      -4.280   5.842   2.114  0.00  0.00    +0.043 A 
BRANCH   8  13
ATOM     13  O   UNL     1      -4.545   9.318   3.234  0.00  0.00    -0.506 OA
ATOM     14  H   UNL     1      -4.864   9.653   4.087  0.00  0.00    +0.292 HD
ENDBRANCH   8  13
ENDBRANCH   2  12
ENDBRANCH   1   3
BRANCH   1  15
ATOM     15  C   UNL     1      -1.270   3.239  -0.095  0.00  0.00    +0.149 C 
BRANCH  15  16
ATOM     16  O   UNL     1      -0.568   2.455  -1.067  0.00  0.00    -0.389 OA
ATOM     17  H   UNL     1      -1.233   1.972  -1.589  0.00  0.00    +0.210 HD
ENDBRANCH  15  16
BRANCH  15  18
ATOM     18  C   UNL     1      -1.842   2.251   0.981  0.00  0.00    +0.118 C 
BRANCH  18  19
ATOM     19  N   UNL     1      -0.801   1.345   1.527  0.00  0.00    -0.289 NA
ATOM     20  C   UNL     1      -1.254   0.287   2.467  0.00  0.00    +0.143 C 
ATOM     21  C   UNL     1      -1.412   0.771   3.919  0.00  0.00    +0.032 C 
ATOM     22  C   UNL     1      -0.169   1.482   4.459  0.00  0.00    -0.005 C 
ATOM     23  C   UNL     1       0.243   2.613   3.522  0.00  0.00    +0.006 C 
ATOM     24  C   UNL     1      -0.597   3.899   3.674  0.00  0.00    +0.005 C 
ATOM     25  C   UNL     1      -1.609   3.983   4.826  0.00  0.00    +0.000 C 
ATOM     26  C   UNL     1      -1.526   2.976   5.970  0.00  0.00    +0.000 C 
ATOM     27  C   UNL     1      -0.353   2.022   5.875  0.00  0.00    +0.004 C 
ATOM     28  C   UNL     1       0.377   2.047   2.088  0.00  0.00    +0.089 C 
BRANCH  20  29
ATOM     29  C   UNL     1      -2.552  -0.445   2.063  0.00  0.00    +0.231 C 
ATOM     30  N   UNL     1      -2.531  -1.121   0.852  0.00  0.00    -0.309 N 
ATOM     31  H   UNL     1      -1.730  -0.956   0.251  0.00  0.00    +0.149 HD
ATOM     32  O   UNL     1      -3.518  -0.513   2.824  0.00  0.00    -0.274 OA
BRANCH  30  33
ATOM     33  C   UNL     1      -3.596  -2.054   0.428  0.00  0.00    +0.026 C 
ATOM     34  C   UNL     1      -3.683  -3.252   1.395  0.00  0.00    +0.031 C 
ATOM     35  C   UNL     1      -3.266  -2.606  -0.971  0.00  0.00    +0.031 C 
ATOM     36  C   UNL     1      -4.964  -1.351   0.348  0.00  0.00    +0.031 C 
ENDBRANCH  30  33
ENDBRANCH  20  29
ENDBRANCH  18  19
ENDBRANCH  15  18
ENDBRANCH   1  15
BRANCH   1  37
ATOM     37  C   UNL     1      -1.720   5.002  -1.952  0.00  0.00    +0.099 C 
BRANCH  37  38
ATOM     38  S   UNL     1      -1.306   3.988  -3.427  0.00  0.00    -0.123 S 
BRANCH  38  39
ATOM     39  C   UNL     1      -0.511   5.218  -4.441  0.00  0.00    +0.008 A 
ATOM     40  C   UNL     1      -1.294   6.179  -5.086  0.00  0.00    +0.015 A 
ATOM     41  C   UNL     1      -0.703   7.111  -5.938  0.00  0.00    +0.001 A 
ATOM     42  C   UNL     1       0.675   7.087  -6.153  0.00  0.00    +0.000 A 
ATOM     43  C   UNL     1       1.463   6.129  -5.515  0.00  0.00    +0.001 A 
ATOM     44  C   UNL     1       0.867   5.192  -4.663  0.00  0.00    +0.015 A 
ENDBRANCH  38  39
ENDBRANCH  37  38
ENDBRANCH   1  37
TORSDOF 12
