REMARK  Name = 
REMARK  11 active torsions:
REMARK  status: ('A' for Active; 'I' for Inactive)
REMARK    1  A    between atoms: C_1  and  C_2
REMARK    2  A    between atoms: C_5  and  C_36
REMARK    3  A    between atoms: N_6  and  C_7
REMARK    4  A    between atoms: N_14  and  C_15
REMARK    5  A    between atoms: C_15  and  C_16
REMARK    6  A    between atoms: C_16  and  C_17
REMARK    7  A    between atoms: C_17  and  C_19
REMARK    8  A    between atoms: C_17  and  N_25
REMARK    9  A    between atoms: C_26  and  C_28
REMARK   10  A    between atoms: C_36  and  C_37
REMARK   11  A    between atoms: C_36  and  C_38
REMARK                            x       y       z     vdW  Elec       q    Type
REMARK                         _______ _______ _______ _____ _____    ______ ____
ROOT
ATOM      1  C   UNL     1      -0.596  -5.687   1.362  0.00  0.00    +0.042 C 
ENDROOT
BRANCH   1   2
ATOM      2  C   UNL     1      -0.063  -5.293  -0.029  0.00  0.00    +0.087 C 
BRANCH   2   6
ATOM      3  C   UNL     1       2.686  -2.280  -0.032  0.00  0.00    +0.093 C 
ATOM      4  C   UNL     1       3.279  -3.496   0.711  0.00  0.00    +0.044 C 
ATOM      5  C   UNL     1       2.320  -4.737   0.601  0.00  0.00    +0.059 C 
ATOM      6  N   UNL     1       1.046  -4.315  -0.039  0.00  0.00    -0.296 NA
ATOM      7  C   UNL     1       1.495  -4.041  -1.428  0.00  0.00    +0.059 C 
ATOM      8  C   UNL     1       2.461  -5.191  -1.748  0.00  0.00    +0.020 C 
ATOM      9  C   UNL     1       2.876  -5.756  -0.389  0.00  0.00    +0.020 C 
ATOM     10  C   UNL     1       2.208  -2.664  -1.442  0.00  0.00    +0.044 C 
BRANCH   3  13
ATOM     11  C   UNL     1       1.627   0.093   1.565  0.00  0.00    +0.088 C 
ATOM     12  C   UNL     1       2.885   0.077   0.782  0.00  0.00    +0.131 A 
ATOM     13  N   UNL     1       3.387  -1.008   0.072  0.00  0.00    -0.312 N 
ATOM     14  C   UNL     1       4.539  -0.534  -0.526  0.00  0.00    +0.136 A 
ATOM     15  N   UNL     1       4.708   0.727  -0.176  0.00  0.00    -0.134 NA
ATOM     16  N   UNL     1       3.685   1.107   0.631  0.00  0.00    -0.135 NA
BRANCH  14  17
ATOM     17  C   UNL     1       5.499  -1.239  -1.435  0.00  0.00    +0.051 C 
ATOM     18  C   UNL     1       6.917  -1.168  -0.849  0.00  0.00    +0.015 C 
ATOM     19  C   UNL     1       5.510  -0.560  -2.813  0.00  0.00    +0.015 C 
ENDBRANCH  14  17
ENDBRANCH   3  13
ENDBRANCH   2   6
ENDBRANCH   1   2
BRANCH   1  20
ATOM     20  C   UNL     1      -1.825  -6.633   1.265  0.00  0.00    +0.104 C 
BRANCH  20  21
ATOM     21  C   UNL     1      -1.508  -7.955   0.585  0.00  0.00    -0.027 A 
ATOM     22  C   UNL     1      -2.224  -8.327  -0.567  0.00  0.00    +0.005 A 
ATOM     23  C   UNL     1      -1.879  -9.475  -1.281  0.00  0.00    +0.000 A 
ATOM     24  C   UNL     1      -0.825 -10.273  -0.846  0.00  0.00    +0.000 A 
ATOM     25  C   UNL     1      -0.139  -9.944   0.320  0.00  0.00    +0.000 A 
ATOM     26  C   UNL     1      -0.482  -8.797   1.038  0.00  0.00    +0.005 A 
ENDBRANCH  20  21
BRANCH  20  27
ATOM     27  N   UNL     1      -2.404  -6.865   2.585  0.00  0.00    -0.308 N 
ATOM     28  H   UNL     1      -2.048  -7.624   3.148  0.00  0.00    +0.149 HD
ATOM     29  C   UNL     1      -3.389  -6.039   3.079  0.00  0.00    +0.217 C 
ATOM     30  O   UNL     1      -3.916  -5.164   2.396  0.00  0.00    -0.275 OA
BRANCH  29  31
ATOM     31  C   UNL     1      -3.751  -6.263   4.552  0.00  0.00    +0.075 C 
ATOM     32  C   UNL     1      -4.890  -5.327   5.004  0.00  0.00    +0.018 C 
ATOM     33  C   UNL     1      -4.469  -3.856   5.088  0.00  0.00    +0.076 C 
ATOM     34  C   UNL     1      -3.183  -3.663   5.872  0.00  0.00    +0.249 C 
ATOM     35  F   UNL     1      -3.443  -3.850   7.194  0.00  0.00    -0.206 F 
ATOM     36  F   UNL     1      -2.757  -2.381   5.744  0.00  0.00    -0.206 F 
ATOM     37  C   UNL     1      -2.065  -4.607   5.461  0.00  0.00    +0.076 C 
ATOM     38  C   UNL     1      -2.534  -6.062   5.467  0.00  0.00    +0.018 C 
ENDBRANCH  29  31
ENDBRANCH  20  27
ENDBRANCH   1  20
TORSDOF 8
