REMARK  Name = 
REMARK  6 active torsions:
REMARK  status: ('A' for Active; 'I' for Inactive)
REMARK    1  A    between atoms: C_3  and  C_18
REMARK    2  A    between atoms: N_5  and  C1*_6
REMARK    3  A    between atoms: C2*_7  and  O2*_17
REMARK    4  A    between atoms: C3*_9  and  O3*_16
REMARK    5  A    between atoms: C4*_11  and  C5*_14
REMARK    6  A    between atoms: C5*_14  and  O5*_15
REMARK                            x       y       z     vdW  Elec       q    Type
REMARK                         _______ _______ _______ _____ _____    ______ ____
ROOT
ATOM      1  C1* UNL     1      -0.856  -2.487   0.034  0.00  0.00    +0.270 C 
ATOM      2  O4* UNL     1      -1.076  -2.927   1.391  0.00  0.00    -0.344 OA
ATOM      3  C4* UNL     1      -1.049  -4.379   1.368  0.00  0.00    +0.177 C 
ATOM      4  C3* UNL     1      -0.657  -4.804  -0.055  0.00  0.00    +0.178 C 
ATOM      5  C2* UNL     1       0.009  -3.559  -0.622  0.00  0.00    +0.196 C 
ENDROOT
BRANCH   1   7
ATOM      6  C   UNL     1      -0.898  -0.083  -0.614  0.00  0.00    +0.223 A 
ATOM      7  N   UNL     1      -0.315  -1.142   0.012  0.00  0.00    -0.220 N 
ATOM      8  N   UNL     1       0.834  -0.772   0.630  0.00  0.00    -0.142 NA
ATOM      9  C   UNL     1       0.885   0.553   0.332  0.00  0.00    +0.236 A 
ATOM     10  N   UNL     1      -0.175   0.990  -0.442  0.00  0.00    -0.211 NA
BRANCH   9  11
ATOM     11  C   UNL     1       1.963   1.462   0.778  0.00  0.00    +0.281 C 
ATOM     12  N   UNL     1       2.944   0.877   1.537  0.00  0.00    -0.323 N 
ATOM     13  H   UNL     1       3.704   1.449   1.872  0.00  0.00    +0.145 HD
ATOM     14  H   UNL     1       2.894  -0.111   1.743  0.00  0.00    +0.145 HD
ATOM     15  O   UNL     1       2.019   2.661   0.516  0.00  0.00    -0.267 OA
ENDBRANCH   9  11
ENDBRANCH   1   7
BRANCH   4  16
ATOM     16  O3* UNL     1      -1.850  -5.056  -0.826  0.00  0.00    -0.386 OA
ATOM     17  H3* UNL     1      -1.601  -5.691  -1.525  0.00  0.00    +0.210 HD
ENDBRANCH   4  16
BRANCH   5  18
ATOM     18  O2* UNL     1      -0.036  -3.550  -2.049  0.00  0.00    -0.385 OA
ATOM     19  H2* UNL     1      -0.961  -3.719  -2.309  0.00  0.00    +0.210 HD
ENDBRANCH   5  18
BRANCH   3  20
ATOM     20  C5* UNL     1      -0.060  -4.859   2.429  0.00  0.00    +0.190 C 
BRANCH  20  21
ATOM     21  O5* UNL     1       1.255  -4.396   2.133  0.00  0.00    -0.392 OA
ATOM     22  H5* UNL     1       1.227  -3.422   2.214  0.00  0.00    +0.210 HD
ENDBRANCH  20  21
ENDBRANCH   3  20
TORSDOF 6
