REMARK  Name = 
REMARK  6 active torsions:
REMARK  status: ('A' for Active; 'I' for Inactive)
REMARK    1  A    between atoms: C_3  and  C_18
REMARK    2  A    between atoms: N_5  and  C1*_6
REMARK    3  A    between atoms: C2*_7  and  O2*_17
REMARK    4  A    between atoms: C3*_9  and  O3*_16
REMARK    5  A    between atoms: C4*_11  and  C5*_14
REMARK    6  A    between atoms: C5*_14  and  O5*_15
REMARK                            x       y       z     vdW  Elec       q    Type
REMARK                         _______ _______ _______ _____ _____    ______ ____
ROOT
ATOM      1  C1* UNL     1      -0.840  -2.479   0.040  0.00  0.00    +0.270 C 
ATOM      2  O4* UNL     1      -1.027  -2.926   1.400  0.00  0.00    -0.344 OA
ATOM      3  C4* UNL     1      -1.043  -4.379   1.358  0.00  0.00    +0.177 C 
ATOM      4  C3* UNL     1      -0.664  -4.796  -0.072  0.00  0.00    +0.178 C 
ATOM      5  C2* UNL     1       0.010  -3.550  -0.635  0.00  0.00    +0.196 C 
ENDROOT
BRANCH   1   7
ATOM      6  C   UNL     1      -0.926  -0.072  -0.591  0.00  0.00    +0.223 A 
ATOM      7  N   UNL     1      -0.310  -1.130   0.006  0.00  0.00    -0.220 N 
ATOM      8  N   UNL     1       0.859  -0.753   0.581  0.00  0.00    -0.142 NA
ATOM      9  C   UNL     1       0.890   0.572   0.287  0.00  0.00    +0.236 A 
ATOM     10  N   UNL     1      -0.206   1.007  -0.438  0.00  0.00    -0.211 NA
BRANCH   9  11
ATOM     11  C   UNL     1       1.971   1.490   0.695  0.00  0.00    +0.281 C 
ATOM     12  N   UNL     1       2.989   0.907   1.404  0.00  0.00    -0.323 N 
ATOM     13  H   UNL     1       3.761   1.483   1.703  0.00  0.00    +0.145 HD
ATOM     14  H   UNL     1       2.960  -0.085   1.598  0.00  0.00    +0.145 HD
ATOM     15  O   UNL     1       2.006   2.693   0.442  0.00  0.00    -0.267 OA
ENDBRANCH   9  11
ENDBRANCH   1   7
BRANCH   4  16
ATOM     16  O3* UNL     1      -1.866  -5.029  -0.837  0.00  0.00    -0.386 OA
ATOM     17  H3* UNL     1      -1.632  -5.672  -1.534  0.00  0.00    +0.210 HD
ENDBRANCH   4  16
BRANCH   5  18
ATOM     18  O2* UNL     1      -0.048  -3.529  -2.060  0.00  0.00    -0.385 OA
ATOM     19  H2* UNL     1      -0.974  -3.699  -2.314  0.00  0.00    +0.210 HD
ENDBRANCH   5  18
BRANCH   3  20
ATOM     20  C5* UNL     1      -0.067  -4.905   2.408  0.00  0.00    +0.190 C 
BRANCH  20  21
ATOM     21  O5* UNL     1       1.260  -4.482   2.114  0.00  0.00    -0.392 OA
ATOM     22  H5* UNL     1       1.265  -3.509   2.214  0.00  0.00    +0.210 HD
ENDBRANCH  20  21
ENDBRANCH   3  20
TORSDOF 6
