REMARK  Name = 
REMARK  5 active torsions:
REMARK  status: ('A' for Active; 'I' for Inactive)
REMARK    1  A    between atoms: C_1  and  C_2
REMARK    2  A    between atoms: N_8  and  C_18
REMARK    3  A    between atoms: C_23  and  C_24
REMARK    4  A    between atoms: C_25  and  C_26
REMARK    5  A    between atoms: C_26  and  C_38
REMARK                            x       y       z     vdW  Elec       q    Type
REMARK                         _______ _______ _______ _____ _____    ______ ____
ROOT
ATOM      1  C   UNL     1       2.539   1.032  -1.838  0.00  0.00    +0.046 C 
ATOM      2  C   UNL     1       3.703   0.653  -0.978  0.00  0.00    -0.022 A 
ATOM      3  C   UNL     1       4.141   1.523   0.014  0.00  0.00    +0.025 A 
ATOM      4  C   UNL     1       4.928   0.995   1.012  0.00  0.00    +0.113 A 
ATOM      5  N   UNL     1       5.175  -0.332   1.142  0.00  0.00    -0.236 NA
ATOM      6  C   UNL     1       4.726  -1.179   0.186  0.00  0.00    +0.159 A 
ATOM      7  N   UNL     1       5.264  -2.510   0.109  0.00  0.00    -0.305 N 
ATOM      8  C   UNL     1       6.650  -2.620  -0.186  0.00  0.00    +0.148 A 
ATOM      9  N   UNL     1       7.376  -3.593   0.429  0.00  0.00    -0.237 NA
ATOM     10  C   UNL     1       8.715  -3.438   0.471  0.00  0.00    +0.113 A 
ATOM     11  C   UNL     1       9.371  -2.336  -0.043  0.00  0.00    +0.021 A 
ATOM     12  C   UNL     1       8.633  -1.410  -0.773  0.00  0.00    +0.018 A 
ATOM     13  C   UNL     1       7.258  -1.595  -0.933  0.00  0.00    +0.082 A 
ATOM     14  C   UNL     1       6.475  -0.669  -1.846  0.00  0.00    +0.260 A 
ATOM     15  N   UNL     1       5.103  -0.977  -2.125  0.00  0.00    -0.319 N 
ATOM     16  H   UNL     1       5.052  -1.988  -2.204  0.00  0.00    +0.169 HD
ATOM     17  O   UNL     1       7.024   0.301  -2.352  0.00  0.00    -0.267 OA
ATOM     18  C   UNL     1       4.238  -0.637  -1.004  0.00  0.00    +0.088 A 
ENDROOT
BRANCH   7  19
ATOM     19  C   UNL     1       4.324  -3.634  -0.114  0.00  0.00    +0.091 C 
ATOM     20  C   UNL     1       4.709  -5.060  -0.411  0.00  0.00    +0.027 C 
ATOM     21  C   UNL     1       4.056  -4.231  -1.473  0.00  0.00    +0.027 C 
ENDBRANCH   7  19
TORSDOF 1
REMARK  Name = 
REMARK  5 active torsions:
REMARK  status: ('A' for Active; 'I' for Inactive)
REMARK    1  A    between atoms: C_1  and  C_2
REMARK    2  A    between atoms: N_8  and  C_18
REMARK    3  A    between atoms: C_23  and  C_24
REMARK    4  A    between atoms: C_25  and  C_26
REMARK    5  A    between atoms: C_26  and  C_38
REMARK                            x       y       z     vdW  Elec       q    Type
REMARK                         _______ _______ _______ _____ _____    ______ ____
ROOT
ATOM      1  C   UNL     1       2.990  -1.600   3.547  0.00  0.00    +0.296 C 
ATOM      2  O   UNL     1       3.837  -0.459   3.861  0.00  0.00    -0.417 OA
ATOM      3  C   UNL     1       5.178  -0.512   3.962  0.00  0.00    +0.407 C 
ATOM      4  O   UNL     1       5.836   0.484   4.258  0.00  0.00    -0.226 OA
ATOM      5  N   UNL     1       5.782  -1.701   3.712  0.00  0.00    -0.251 N 
ATOM      6  H   UNL     1       6.792  -1.660   3.677  0.00  0.00    +0.158 HD
ATOM      7  C   UNL     1       5.131  -2.891   3.446  0.00  0.00    +0.045 A 
ATOM      8  C   UNL     1       5.883  -4.056   3.269  0.00  0.00    +0.025 A 
ATOM      9  C   UNL     1       5.236  -5.280   3.107  0.00  0.00    +0.022 A 
ATOM     10  C   UNL     1       3.847  -5.318   3.100  0.00  0.00    +0.042 A 
ATOM     11 CL   UNL     1       3.045  -6.833   2.939  0.00  0.00    -0.084 Cl
ATOM     12  C   UNL     1       3.097  -4.147   3.219  0.00  0.00    +0.030 A 
ATOM     13  C   UNL     1       3.742  -2.904   3.378  0.00  0.00    +0.040 A 
ENDROOT
BRANCH   1  14
ATOM     14  C   UNL     1       1.978  -1.691   4.763  0.00  0.00    +0.446 C 
ATOM     15  F   UNL     1       2.276  -0.808   5.752  0.00  0.00    -0.165 F 
ATOM     16  F   UNL     1       1.953  -2.912   5.357  0.00  0.00    -0.165 F 
ATOM     17  F   UNL     1       0.694  -1.432   4.398  0.00  0.00    -0.165 F 
ENDBRANCH   1  14
BRANCH   1  19
ATOM     18  C   UNL     1       1.553  -0.831   1.241  0.00  0.00    -0.094 C 
ATOM     19  C   UNL     1       2.216  -1.186   2.306  0.00  0.00    -0.041 C 
BRANCH  18  21
ATOM     20  C   UNL     1      -0.331   0.558   0.290  0.00  0.00    +0.017 C 
ATOM     21  C   UNL     1       0.553  -0.659   0.226  0.00  0.00    +0.064 C 
ATOM     22  C   UNL     1      -0.906  -0.790   0.599  0.00  0.00    +0.017 C 
ENDBRANCH  18  21
ENDBRANCH   1  19
TORSDOF 3
