REMARK  Name = 
REMARK  1 active torsions:
REMARK  status: ('A' for Active; 'I' for Inactive)
REMARK    1  A    between atoms: C_4  and  C_8
REMARK                            x       y       z     vdW  Elec       q    Type
REMARK                         _______ _______ _______ _____ _____    ______ ____
ROOT
ATOM      1  C   UNL     1      -1.119  -0.700   0.004  0.00  0.00    +0.145 A 
ATOM      2  N   UNL     1      -1.223   0.664   0.010  0.00  0.00    -0.323 N 
ATOM      3  H   UNL     1      -2.121   1.127   0.082  0.00  0.00    +0.169 HD
ATOM      4  C   UNL     1      -0.103   1.467  -0.032  0.00  0.00    +0.280 A 
ATOM      5  O   UNL     1      -0.156   2.681   0.053  0.00  0.00    -0.265 OA
ATOM      6  C   UNL     1       1.219   0.699  -0.154  0.00  0.00    +0.192 A 
ATOM      7  N   UNL     1       1.275  -0.613  -0.142  0.00  0.00    -0.208 NA
ATOM      8  C   UNL     1       0.084  -1.285  -0.058  0.00  0.00    +0.230 A 
ATOM      9  F   UNL     1       0.139  -2.633  -0.046  0.00  0.00    -0.182 F 
ENDROOT
BRANCH   6  10
ATOM     10  C   UNL     1       2.552   1.425  -0.290  0.00  0.00    +0.265 C 
ATOM     11  N   UNL     1       3.624   0.753   0.236  0.00  0.00    -0.324 N 
ATOM     12  H   UNL     1       4.547   1.105   0.025  0.00  0.00    +0.145 HD
ATOM     13  H   UNL     1       3.515  -0.227   0.476  0.00  0.00    +0.145 HD
ATOM     14  O   UNL     1       2.654   2.489  -0.875  0.00  0.00    -0.269 OA
ENDBRANCH   6  10
TORSDOF 1
