REMARK  Name = 
REMARK  1 active torsions:
REMARK  status: ('A' for Active; 'I' for Inactive)
REMARK    1  A    between atoms: C_4  and  C_8
REMARK                            x       y       z     vdW  Elec       q    Type
REMARK                         _______ _______ _______ _____ _____    ______ ____
ROOT
ATOM      1  C   UNL     1      -1.120  -0.702   0.003  0.00  0.00    +0.145 A 
ATOM      2  N   UNL     1      -1.224   0.661   0.010  0.00  0.00    -0.323 N 
ATOM      3  H   UNL     1      -2.121   1.124   0.085  0.00  0.00    +0.169 HD
ATOM      4  C   UNL     1      -0.104   1.464  -0.032  0.00  0.00    +0.280 A 
ATOM      5  O   UNL     1      -0.157   2.678   0.055  0.00  0.00    -0.265 OA
ATOM      6  C   UNL     1       1.218   0.696  -0.155  0.00  0.00    +0.192 A 
ATOM      7  N   UNL     1       1.274  -0.616  -0.145  0.00  0.00    -0.208 NA
ATOM      8  C   UNL     1       0.083  -1.288  -0.061  0.00  0.00    +0.230 A 
ATOM      9  F   UNL     1       0.138  -2.636  -0.051  0.00  0.00    -0.182 F 
ENDROOT
BRANCH   6  10
ATOM     10  C   UNL     1       2.550   1.423  -0.290  0.00  0.00    +0.265 C 
ATOM     11  N   UNL     1       3.622   0.751   0.239  0.00  0.00    -0.324 N 
ATOM     12  H   UNL     1       4.546   1.103   0.027  0.00  0.00    +0.145 HD
ATOM     13  H   UNL     1       3.513  -0.229   0.477  0.00  0.00    +0.145 HD
ATOM     14  O   UNL     1       2.654   2.485  -0.876  0.00  0.00    -0.269 OA
ENDBRANCH   6  10
TORSDOF 1
