REMARK  Name = 
REMARK  5 active torsions:
REMARK  status: ('A' for Active; 'I' for Inactive)
REMARK    1  A    between atoms: C_1  and  C_2
REMARK    2  A    between atoms: N_8  and  C_18
REMARK    3  A    between atoms: C_23  and  C_24
REMARK    4  A    between atoms: C_25  and  C_26
REMARK    5  A    between atoms: C_26  and  C_38
REMARK                            x       y       z     vdW  Elec       q    Type
REMARK                         _______ _______ _______ _____ _____    ______ ____
ROOT
ATOM      1  C   UNL     1       2.490   0.752  -2.055  0.00  0.00    +0.046 C 
ATOM      2  C   UNL     1       3.626   0.453  -1.138  0.00  0.00    -0.022 A 
ATOM      3  C   UNL     1       3.983   1.358  -0.143  0.00  0.00    +0.025 A 
ATOM      4  C   UNL     1       4.744   0.870   0.906  0.00  0.00    +0.113 A 
ATOM      5  N   UNL     1       5.043  -0.434   1.064  0.00  0.00    -0.236 NA
ATOM      6  C   UNL     1       4.678  -1.313   0.104  0.00  0.00    +0.159 A 
ATOM      7  N   UNL     1       5.252  -2.630   0.079  0.00  0.00    -0.305 N 
ATOM      8  C   UNL     1       6.649  -2.720  -0.179  0.00  0.00    +0.148 A 
ATOM      9  N   UNL     1       7.376  -3.670   0.469  0.00  0.00    -0.237 NA
ATOM     10  C   UNL     1       8.713  -3.507   0.533  0.00  0.00    +0.113 A 
ATOM     11  C   UNL     1       9.369  -2.404   0.002  0.00  0.00    +0.021 A 
ATOM     12  C   UNL     1       8.630  -1.500  -0.755  0.00  0.00    +0.018 A 
ATOM     13  C   UNL     1       7.256  -1.701  -0.935  0.00  0.00    +0.082 A 
ATOM     14  C   UNL     1       6.485  -0.806  -1.880  0.00  0.00    +0.260 A 
ATOM     15  N   UNL     1       5.131  -1.143  -2.211  0.00  0.00    -0.319 N 
ATOM     16  H   UNL     1       5.109  -2.157  -2.266  0.00  0.00    +0.169 HD
ATOM     17  O   UNL     1       7.028   0.179  -2.373  0.00  0.00    -0.267 OA
ATOM     18  C   UNL     1       4.223  -0.812  -1.116  0.00  0.00    +0.088 A 
ENDROOT
BRANCH   7  19
ATOM     19  C   UNL     1       4.342  -3.780  -0.126  0.00  0.00    +0.091 C 
ATOM     20  C   UNL     1       4.761  -5.200  -0.406  0.00  0.00    +0.027 C 
ATOM     21  C   UNL     1       4.086  -4.400  -1.477  0.00  0.00    +0.027 C 
ENDBRANCH   7  19
TORSDOF 1
REMARK  Name = 
REMARK  5 active torsions:
REMARK  status: ('A' for Active; 'I' for Inactive)
REMARK    1  A    between atoms: C_1  and  C_2
REMARK    2  A    between atoms: N_8  and  C_18
REMARK    3  A    between atoms: C_23  and  C_24
REMARK    4  A    between atoms: C_25  and  C_26
REMARK    5  A    between atoms: C_26  and  C_38
REMARK                            x       y       z     vdW  Elec       q    Type
REMARK                         _______ _______ _______ _____ _____    ______ ____
ROOT
ATOM      1  C   UNL     1       2.990  -1.600   3.547  0.00  0.00    +0.296 C 
ATOM      2  O   UNL     1       3.840  -0.458   3.859  0.00  0.00    -0.417 OA
ATOM      3  C   UNL     1       5.186  -0.499   3.893  0.00  0.00    +0.407 C 
ATOM      4  O   UNL     1       5.848   0.509   4.124  0.00  0.00    -0.226 OA
ATOM      5  N   UNL     1       5.787  -1.697   3.670  0.00  0.00    -0.251 N 
ATOM      6  H   UNL     1       6.795  -1.652   3.608  0.00  0.00    +0.158 HD
ATOM      7  C   UNL     1       5.129  -2.891   3.438  0.00  0.00    +0.045 A 
ATOM      8  C   UNL     1       5.878  -4.058   3.277  0.00  0.00    +0.025 A 
ATOM      9  C   UNL     1       5.232  -5.281   3.110  0.00  0.00    +0.022 A 
ATOM     10  C   UNL     1       3.843  -5.324   3.105  0.00  0.00    +0.042 A 
ATOM     11 CL   UNL     1       3.036  -6.833   2.934  0.00  0.00    -0.084 Cl
ATOM     12  C   UNL     1       3.097  -4.148   3.222  0.00  0.00    +0.030 A 
ATOM     13  C   UNL     1       3.741  -2.905   3.385  0.00  0.00    +0.040 A 
ENDROOT
BRANCH   1  14
ATOM     14  C   UNL     1       1.978  -1.692   4.762  0.00  0.00    +0.446 C 
ATOM     15  F   UNL     1       2.282  -0.817   5.757  0.00  0.00    -0.165 F 
ATOM     16  F   UNL     1       1.944  -2.916   5.350  0.00  0.00    -0.165 F 
ATOM     17  F   UNL     1       0.695  -1.423   4.400  0.00  0.00    -0.165 F 
ENDBRANCH   1  14
BRANCH   1  19
ATOM     18  C   UNL     1       1.553  -0.831   1.241  0.00  0.00    -0.094 C 
ATOM     19  C   UNL     1       2.216  -1.186   2.306  0.00  0.00    -0.041 C 
BRANCH  18  21
ATOM     20  C   UNL     1      -0.322   0.573   0.299  0.00  0.00    +0.017 C 
ATOM     21  C   UNL     1       0.535  -0.664   0.244  0.00  0.00    +0.064 C 
ATOM     22  C   UNL     1      -0.919  -0.757   0.645  0.00  0.00    +0.017 C 
ENDBRANCH  18  21
ENDBRANCH   1  19
TORSDOF 3
