REMARK  Name = 
REMARK  8 active torsions:
REMARK  status: ('A' for Active; 'I' for Inactive)
REMARK    1  A    between atoms: C_1  and  C_2
REMARK    2  A    between atoms: C_2  and  C_3
REMARK    3  A    between atoms: C_2  and  N_4
REMARK    4  A    between atoms: N_13  and  C1*_14
REMARK    5  A    between atoms: C2*_16  and  O2*_26
REMARK    6  A    between atoms: C3*_18  and  O3*_25
REMARK    7  A    between atoms: C4*_20  and  C5*_23
REMARK    8  A    between atoms: C5*_23  and  O5*_24
REMARK                            x       y       z     vdW  Elec       q    Type
REMARK                         _______ _______ _______ _____ _____    ______ ____
ROOT
ATOM      1  N   UNL     1       3.160  -1.252  -0.918  0.00  0.00    -0.312 N 
ATOM      2  H   UNL     1       2.813  -1.504   0.009  0.00  0.00    +0.149 HD
ATOM      3  C   UNL     1       4.505  -1.380  -1.059  0.00  0.00    +0.199 A 
ATOM      4  N   UNL     1       5.115  -2.626  -1.079  0.00  0.00    -0.283 N 
ATOM      5  C   UNL     1       6.465  -2.423  -1.283  0.00  0.00    +0.074 A 
ATOM      6  C   UNL     1       6.605  -1.035  -1.294  0.00  0.00    +0.092 A 
ATOM      7  C   UNL     1       7.876  -0.457  -1.408  0.00  0.00    +0.051 A 
ATOM      8  C   UNL     1       8.990  -1.295  -1.536  0.00  0.00    +0.061 A 
ATOM      9 CL   UNL     1      10.540  -0.537  -1.656  0.00  0.00    -0.082 Cl
ATOM     10  C   UNL     1       8.834  -2.688  -1.560  0.00  0.00    +0.061 A 
ATOM     11 CL   UNL     1      10.183  -3.756  -1.748  0.00  0.00    -0.082 Cl
ATOM     12  C   UNL     1       7.565  -3.278  -1.430  0.00  0.00    +0.049 A 
ATOM     13  N   UNL     1       5.389  -0.420  -1.193  0.00  0.00    -0.214 NA
ENDROOT
BRANCH   4  14
ATOM     14  C1* UNL     1       4.391  -3.875  -0.918  0.00  0.00    +0.254 C 
ATOM     15  O4* UNL     1       5.217  -4.897  -0.305  0.00  0.00    -0.346 OA
ATOM     16  C4* UNL     1       4.610  -6.176  -0.644  0.00  0.00    +0.177 C 
ATOM     17  C3* UNL     1       3.528  -5.907  -1.692  0.00  0.00    +0.178 C 
ATOM     18  C2* UNL     1       3.882  -4.519  -2.209  0.00  0.00    +0.195 C 
BRANCH  17  19
ATOM     19  O3* UNL     1       2.246  -5.853  -1.044  0.00  0.00    -0.386 OA
ATOM     20  H3* UNL     1       1.578  -5.889  -1.756  0.00  0.00    +0.210 HD
ENDBRANCH  17  19
BRANCH  18  21
ATOM     21  O2* UNL     1       2.748  -3.915  -2.823  0.00  0.00    -0.385 OA
ATOM     22  H2* UNL     1       2.160  -3.594  -2.114  0.00  0.00    +0.210 HD
ENDBRANCH  18  21
BRANCH  16  23
ATOM     23  C5* UNL     1       5.686  -7.129  -1.165  0.00  0.00    +0.190 C 
BRANCH  23  24
ATOM     24  O5* UNL     1       6.668  -7.398  -0.169  0.00  0.00    -0.392 OA
ATOM     25  H5* UNL     1       6.603  -6.705   0.513  0.00  0.00    +0.210 HD
ENDBRANCH  23  24
ENDBRANCH  16  23
ENDBRANCH   4  14
BRANCH   1  27
ATOM     26  C   UNL     1       1.115  -0.289  -1.780  0.00  0.00    +0.027 C 
ATOM     27  C   UNL     1       2.556   0.010  -1.367  0.00  0.00    +0.067 C 
ATOM     28  C   UNL     1       2.581   1.065  -0.263  0.00  0.00    +0.027 C 
ENDBRANCH   1  27
TORSDOF 6
