REMARK  Name = 
REMARK  12 active torsions:
REMARK  status: ('A' for Active; 'I' for Inactive)
REMARK    1  A    between atoms: C_1  and  C_2
REMARK    2  A    between atoms: N_4  and  C_5
REMARK    3  A    between atoms: C_7  and  N_26
REMARK    4  A    between atoms: C_10  and  C_23
REMARK    5  A    between atoms: C_12  and  C_14
REMARK    6  A    between atoms: C_14  and  C_16
REMARK    7  A    between atoms: C_14  and  O_21
REMARK    8  A    between atoms: C_16  and  C_18
REMARK    9  A    between atoms: C_16  and  O_20
REMARK   10  A    between atoms: C_18  and  O_19
REMARK   11  A    between atoms: O_21  and  C_22
REMARK   12  A    between atoms: C_23  and  O_25
REMARK                            x       y       z     vdW  Elec       q    Type
REMARK                         _______ _______ _______ _____ _____    ______ ____
ROOT
ATOM      1  C   UNL     1       5.062   1.365  -0.098  0.00  0.00    +0.161 C 
ATOM      2  C   UNL     1       5.007  -0.176  -0.348  0.00  0.00    +0.229 C 
ATOM      3  O   UNL     1       5.901  -0.967   0.468  0.00  0.00    -0.477 OA
ATOM      4  C   UNL     1       6.255  -0.480   1.707  0.00  0.00    +0.204 C 
ATOM      5  C   UNL     1       5.930   0.732   2.178  0.00  0.00    +0.071 C 
ATOM      6  C   UNL     1       5.164   1.743   1.397  0.00  0.00    +0.238 C 
ENDROOT
BRANCH   6   7
ATOM      7  N   UNL     1       3.880   1.942   2.050  0.00  0.00    -0.104 NA
ATOM      8  C   UNL     1       3.182   2.981   1.783  0.00  0.00    +0.377 C 
ATOM      9  N   UNL     1       2.073   3.200   2.521  0.00  0.00    -0.289 N 
ATOM     10  H   UNL     1       1.232   3.402   1.999  0.00  0.00    +0.255 HD
ATOM     11  H   UNL     1       1.932   2.430   3.164  0.00  0.00    +0.255 HD
ATOM     12  N   UNL     1       3.391   3.972   0.896  0.00  0.00    -0.289 N 
ATOM     13  H   UNL     1       2.589   4.518   0.614  0.00  0.00    +0.255 HD
ATOM     14  H   UNL     1       4.080   3.849   0.167  0.00  0.00    +0.255 HD
ENDBRANCH   6   7
BRANCH   1  17
ATOM     15  C   UNL     1       7.578   2.854  -2.605  0.00  0.00    +0.109 C 
ATOM     16  C   UNL     1       6.400   2.028  -2.158  0.00  0.00    +0.210 C 
ATOM     17  N   UNL     1       6.210   2.024  -0.798  0.00  0.00    -0.305 N 
ATOM     18  H   UNL     1       6.737   2.715  -0.275  0.00  0.00    +0.149 HD
ATOM     19  O   UNL     1       5.695   1.408  -2.945  0.00  0.00    -0.276 OA
ENDBRANCH   1  17
BRANCH   4  20
ATOM     20  C   UNL     1       7.078  -1.379   2.578  0.00  0.00    +0.372 C 
ATOM     21  O   UNL     1       7.561  -1.078   3.659  0.00  0.00    -0.242 OA
BRANCH  20  22
ATOM     22  O   UNL     1       7.251  -2.583   1.987  0.00  0.00    -0.475 OA
ATOM     23  H   UNL     1       6.776  -2.587   1.121  0.00  0.00    +0.296 HD
ENDBRANCH  20  22
ENDBRANCH   4  20
BRANCH   2  24
ATOM     24  C   UNL     1       3.557  -0.813  -0.364  0.00  0.00    +0.191 C 
BRANCH  24  25
ATOM     25  O   UNL     1       3.100  -0.910   0.992  0.00  0.00    -0.373 OA
ATOM     26  C   UNL     1       1.714  -1.148   1.182  0.00  0.00    +0.194 C 
ENDBRANCH  24  25
BRANCH  24  27
ATOM     27  C   UNL     1       3.632  -2.194  -1.094  0.00  0.00    +0.172 C 
BRANCH  27  28
ATOM     28  O   UNL     1       4.148  -1.986  -2.427  0.00  0.00    -0.387 OA
ATOM     29  H   UNL     1       4.821  -2.664  -2.599  0.00  0.00    +0.210 HD
ENDBRANCH  27  28
BRANCH  27  30
ATOM     30  C   UNL     1       2.326  -2.969  -1.310  0.00  0.00    +0.189 C 
BRANCH  30  31
ATOM     31  O   UNL     1       2.630  -4.267  -1.845  0.00  0.00    -0.392 OA
ATOM     32  H   UNL     1       3.201  -4.123  -2.619  0.00  0.00    +0.210 HD
ENDBRANCH  30  31
ENDBRANCH  27  30
ENDBRANCH  24  27
ENDBRANCH   2  24
TORSDOF 10
