REMARK  Name = 
REMARK  12 active torsions:
REMARK  status: ('A' for Active; 'I' for Inactive)
REMARK    1  A    between atoms: C_1  and  C_2
REMARK    2  A    between atoms: N_4  and  C_5
REMARK    3  A    between atoms: C_7  and  N_26
REMARK    4  A    between atoms: C_10  and  C_23
REMARK    5  A    between atoms: C_12  and  C_14
REMARK    6  A    between atoms: C_14  and  C_16
REMARK    7  A    between atoms: C_14  and  O_21
REMARK    8  A    between atoms: C_16  and  C_18
REMARK    9  A    between atoms: C_16  and  O_20
REMARK   10  A    between atoms: C_18  and  O_19
REMARK   11  A    between atoms: O_21  and  C_22
REMARK   12  A    between atoms: C_23  and  O_25
REMARK                            x       y       z     vdW  Elec       q    Type
REMARK                         _______ _______ _______ _____ _____    ______ ____
ROOT
ATOM      1  C   UNL     1       4.914  -0.927   0.986  0.00  0.00    +0.161 C 
ATOM      2  C   UNL     1       4.974   0.250  -0.039  0.00  0.00    +0.229 C 
ATOM      3  O   UNL     1       5.972   0.136  -1.076  0.00  0.00    -0.477 OA
ATOM      4  C   UNL     1       6.367  -1.125  -1.456  0.00  0.00    +0.204 C 
ATOM      5  C   UNL     1       5.951  -2.262  -0.884  0.00  0.00    +0.071 C 
ATOM      6  C   UNL     1       5.054  -2.311   0.301  0.00  0.00    +0.238 C 
ENDROOT
BRANCH   6   7
ATOM      7  N   UNL     1       3.742  -2.819  -0.077  0.00  0.00    -0.104 NA
ATOM      8  C   UNL     1       3.498  -4.072  -0.081  0.00  0.00    +0.377 C 
ATOM      9  N   UNL     1       2.267  -4.515  -0.411  0.00  0.00    -0.289 N 
ATOM     10  H   UNL     1       2.286  -5.321  -1.026  0.00  0.00    +0.255 HD
ATOM     11  H   UNL     1       1.713  -3.762  -0.818  0.00  0.00    +0.255 HD
ATOM     12  N   UNL     1       4.290  -5.130   0.194  0.00  0.00    -0.289 N 
ATOM     13  H   UNL     1       3.803  -5.873   0.682  0.00  0.00    +0.255 HD
ATOM     14  H   UNL     1       5.183  -4.934   0.622  0.00  0.00    +0.255 HD
ENDBRANCH   6   7
BRANCH   1  17
ATOM     15  C   UNL     1       7.203   0.074   3.907  0.00  0.00    +0.109 C 
ATOM     16  C   UNL     1       6.131   0.271   2.866  0.00  0.00    +0.210 C 
ATOM     17  N   UNL     1       5.973  -0.819   2.038  0.00  0.00    -0.305 N 
ATOM     18  H   UNL     1       6.289  -1.693   2.440  0.00  0.00    +0.149 HD
ATOM     19  O   UNL     1       5.512   1.321   2.752  0.00  0.00    -0.276 OA
ENDBRANCH   1  17
BRANCH   4  20
ATOM     20  C   UNL     1       7.268  -1.221  -2.646  0.00  0.00    +0.372 C 
ATOM     21  O   UNL     1       7.663  -2.255  -3.154  0.00  0.00    -0.242 OA
BRANCH  20  22
ATOM     22  O   UNL     1       7.589   0.013  -3.100  0.00  0.00    -0.475 OA
ATOM     23  H   UNL     1       7.173   0.701  -2.538  0.00  0.00    +0.296 HD
ENDBRANCH  20  22
ENDBRANCH   4  20
BRANCH   2  24
ATOM     24  C   UNL     1       3.595   0.729  -0.587  0.00  0.00    +0.191 C 
BRANCH  24  25
ATOM     25  O   UNL     1       2.874  -0.221  -1.384  0.00  0.00    -0.373 OA
ATOM     26  C   UNL     1       3.367  -0.532  -2.678  0.00  0.00    +0.194 C 
ENDBRANCH  24  25
BRANCH  24  27
ATOM     27  C   UNL     1       3.667   2.128  -1.265  0.00  0.00    +0.172 C 
BRANCH  27  28
ATOM     28  O   UNL     1       4.185   3.157  -0.400  0.00  0.00    -0.387 OA
ATOM     29  H   UNL     1       5.092   2.934  -0.129  0.00  0.00    +0.210 HD
ENDBRANCH  27  28
BRANCH  27  30
ATOM     30  C   UNL     1       2.281   2.630  -1.700  0.00  0.00    +0.189 C 
BRANCH  30  31
ATOM     31  O   UNL     1       2.444   3.848  -2.435  0.00  0.00    -0.392 OA
ATOM     32  H   UNL     1       3.109   4.359  -1.932  0.00  0.00    +0.210 HD
ENDBRANCH  30  31
ENDBRANCH  27  30
ENDBRANCH  24  27
ENDBRANCH   2  24
TORSDOF 10
