REMARK  Name = 
REMARK  6 active torsions:
REMARK  status: ('A' for Active; 'I' for Inactive)
REMARK    1  A    between atoms: C_3  and  C_15
REMARK    2  A    between atoms: N_5  and  C1*_6
REMARK    3  A    between atoms: C2*_7  and  O2*_14
REMARK    4  A    between atoms: C3*_8  and  O3*_13
REMARK    5  A    between atoms: C4*_9  and  C5*_11
REMARK    6  A    between atoms: C5*_11  and  O5*_12
REMARK                            x       y       z     vdW  Elec       q    Type
REMARK                         _______ _______ _______ _____ _____    ______ ____
ROOT
ATOM      1  C1* UNL     1      -0.820  -2.465  -0.004  0.00  0.00    +0.270 C 
ATOM      2  O4* UNL     1      -1.204  -2.916   1.322  0.00  0.00    -0.344 OA
ATOM      3  C4* UNL     1      -1.120  -4.365   1.325  0.00  0.00    +0.177 C 
ATOM      4  C3* UNL     1      -0.724  -4.792  -0.102  0.00  0.00    +0.178 C 
ATOM      5  C2* UNL     1       0.061  -3.576  -0.583  0.00  0.00    +0.196 C 
ENDROOT
BRANCH   1   7
ATOM      6  C   UNL     1       0.463  -0.617   1.130  0.00  0.00    +0.223 A 
ATOM      7  N   UNL     1      -0.211  -1.157   0.080  0.00  0.00    -0.220 N 
ATOM      8  N   UNL     1      -0.379  -0.254  -0.905  0.00  0.00    -0.142 NA
ATOM      9  C   UNL     1       0.229   0.835  -0.398  0.00  0.00    +0.236 A 
ATOM     10  N   UNL     1       0.773   0.629   0.864  0.00  0.00    -0.211 NA
BRANCH   9  11
ATOM     11  C   UNL     1       0.302   2.142  -1.079  0.00  0.00    +0.281 C 
ATOM     12  N   UNL     1       0.956   3.106  -0.352  0.00  0.00    -0.323 N 
ATOM     13  H   UNL     1       1.036   4.036  -0.733  0.00  0.00    +0.145 HD
ATOM     14  H   UNL     1       1.322   2.879   0.564  0.00  0.00    +0.145 HD
ATOM     15  O   UNL     1      -0.171   2.400  -2.181  0.00  0.00    -0.267 OA
ENDBRANCH   9  11
ENDBRANCH   1   7
BRANCH   4  16
ATOM     16  O3* UNL     1      -1.822  -4.997  -0.991  0.00  0.00    -0.386 OA
ATOM     17  H3* UNL     1      -2.668  -4.878  -0.506  0.00  0.00    +0.210 HD
ENDBRANCH   4  16
BRANCH   5  18
ATOM     18  O2* UNL     1       1.390  -3.616  -0.044  0.00  0.00    -0.385 OA
ATOM     19  H2* UNL     1       1.376  -3.383   0.899  0.00  0.00    +0.210 HD
ENDBRANCH   5  18
BRANCH   3  20
ATOM     20  C5* UNL     1      -2.441  -4.926   1.843  0.00  0.00    +0.190 C 
BRANCH  20  21
ATOM     21  O5* UNL     1      -3.512  -4.477   1.009  0.00  0.00    -0.392 OA
ATOM     22  H5* UNL     1      -3.662  -3.539   1.242  0.00  0.00    +0.210 HD
ENDBRANCH  20  21
ENDBRANCH   3  20
TORSDOF 6
