REMARK  Name = 
REMARK  6 active torsions:
REMARK  status: ('A' for Active; 'I' for Inactive)
REMARK    1  A    between atoms: C_3  and  C_15
REMARK    2  A    between atoms: N_5  and  C1*_6
REMARK    3  A    between atoms: C2*_7  and  O2*_14
REMARK    4  A    between atoms: C3*_8  and  O3*_13
REMARK    5  A    between atoms: C4*_9  and  C5*_11
REMARK    6  A    between atoms: C5*_11  and  O5*_12
REMARK                            x       y       z     vdW  Elec       q    Type
REMARK                         _______ _______ _______ _____ _____    ______ ____
ROOT
ATOM      1  C1* UNL     1      -0.817  -2.471  -0.016  0.00  0.00    +0.270 C 
ATOM      2  O4* UNL     1      -1.207  -2.917   1.310  0.00  0.00    -0.344 OA
ATOM      3  C4* UNL     1      -1.117  -4.366   1.319  0.00  0.00    +0.177 C 
ATOM      4  C3* UNL     1      -0.719  -4.799  -0.102  0.00  0.00    +0.178 C 
ATOM      5  C2* UNL     1       0.065  -3.584  -0.587  0.00  0.00    +0.196 C 
ENDROOT
BRANCH   1   7
ATOM      6  C   UNL     1       0.468  -0.621   1.117  0.00  0.00    +0.223 A 
ATOM      7  N   UNL     1      -0.211  -1.160   0.070  0.00  0.00    -0.220 N 
ATOM      8  N   UNL     1      -0.392  -0.255  -0.909  0.00  0.00    -0.142 NA
ATOM      9  C   UNL     1       0.208   0.838  -0.401  0.00  0.00    +0.236 A 
ATOM     10  N   UNL     1       0.767   0.628   0.855  0.00  0.00    -0.211 NA
BRANCH   9  11
ATOM     11  C   UNL     1       0.264   2.151  -1.070  0.00  0.00    +0.281 C 
ATOM     12  N   UNL     1       0.904   3.118  -0.335  0.00  0.00    -0.323 N 
ATOM     13  H   UNL     1       0.976   4.050  -0.713  0.00  0.00    +0.145 HD
ATOM     14  H   UNL     1       1.280   2.885   0.576  0.00  0.00    +0.145 HD
ATOM     15  O   UNL     1      -0.211   2.409  -2.173  0.00  0.00    -0.267 OA
ENDBRANCH   9  11
ENDBRANCH   1   7
BRANCH   4  16
ATOM     16  O3* UNL     1      -1.817  -5.011  -0.991  0.00  0.00    -0.386 OA
ATOM     17  H3* UNL     1      -2.663  -4.853  -0.517  0.00  0.00    +0.210 HD
ENDBRANCH   4  16
BRANCH   5  18
ATOM     18  O2* UNL     1       1.395  -3.623  -0.049  0.00  0.00    -0.385 OA
ATOM     19  H2* UNL     1       1.385  -3.360   0.887  0.00  0.00    +0.210 HD
ENDBRANCH   5  18
BRANCH   3  20
ATOM     20  C5* UNL     1      -2.440  -4.925   1.841  0.00  0.00    +0.190 C 
BRANCH  20  21
ATOM     21  O5* UNL     1      -3.510  -4.479   1.003  0.00  0.00    -0.392 OA
ATOM     22  H5* UNL     1      -3.661  -3.540   1.232  0.00  0.00    +0.210 HD
ENDBRANCH  20  21
ENDBRANCH   3  20
TORSDOF 6
