REMARK  Name = 
REMARK  3 active torsions:
REMARK  status: ('A' for Active; 'I' for Inactive)
REMARK    1  A    between atoms: C_1  and  C_2
REMARK    2  A    between atoms: C_2  and  C_3
REMARK    3  A    between atoms: C_2  and  N_13
REMARK                            x       y       z     vdW  Elec       q    Type
REMARK                         _______ _______ _______ _____ _____    ______ ____
ROOT
ATOM      1  C   UNL     1       2.927   1.431  -0.088  0.00  0.00    -0.014 C 
ATOM      2  C   UNL     1       4.472   1.476   0.124  0.00  0.00    +0.012 C 
ATOM      3  C   UNL     1       5.010   2.914   0.026  0.00  0.00    -0.010 C 
ATOM      4  C   UNL     1       4.334   3.778   1.101  0.00  0.00    +0.007 C 
ATOM      5  C   UNL     1       2.812   3.786   0.886  0.00  0.00    -0.010 C 
ATOM      6  C   UNL     1       2.500   4.353  -0.508  0.00  0.00    +0.007 C 
ATOM      7  C   UNL     1       3.173   3.490  -1.587  0.00  0.00    -0.010 C 
ATOM      8  C   UNL     1       4.691   3.483  -1.363  0.00  0.00    +0.007 C 
ATOM      9  C   UNL     1       2.636   2.052  -1.487  0.00  0.00    +0.012 C 
ATOM     10  C   UNL     1       2.274   2.346   0.985  0.00  0.00    +0.012 C 
ENDROOT
BRANCH   1  12
ATOM     11  C   UNL     1       0.899  -0.204  -0.255  0.00  0.00    +0.024 C 
ATOM     12  C   UNL     1       2.408  -0.048  -0.032  0.00  0.00    +0.054 C 
BRANCH  12  13
ATOM     13  N   UNL     1       2.716  -0.736   1.227  0.00  0.00    -0.327 NA
ATOM     14  H   UNL     1       3.721  -0.763   1.379  0.00  0.00    +0.118 HD
ATOM     15  H   UNL     1       2.315  -0.230   2.013  0.00  0.00    +0.118 HD
ENDBRANCH  12  13
ENDBRANCH   1  12
TORSDOF 2
