REMARK  Name = 
REMARK  24 active torsions:
REMARK  status: ('A' for Active; 'I' for Inactive)
REMARK    1  A    between atoms: C_1  and  C_2
REMARK    2  A    between atoms: C_2  and  C_3
REMARK    3  A    between atoms: C_2  and  C_4
REMARK    4  A    between atoms: C_6  and  C_9
REMARK    5  A    between atoms: C_9  and  N_10
REMARK    6  A    between atoms: N_10  and  C_11
REMARK    7  A    between atoms: N_14  and  C_15
REMARK    8  A    between atoms: C_15  and  C_16
REMARK    9  A    between atoms: C_15  and  C_19
REMARK   10  A    between atoms: C_16  and  C_17
REMARK   11  A    between atoms: C_16  and  C_18
REMARK   12  A    between atoms: N_21  and  C_22
REMARK   13  A    between atoms: C_22  and  C_23
REMARK   14  A    between atoms: C_22  and  C_30
REMARK   15  A    between atoms: C_23  and  C_24
REMARK   16  A    between atoms: C_30  and  C_31
REMARK   17  A    between atoms: C_31  and  C_32
REMARK   18  A    between atoms: C_31  and  O_50
REMARK   19  A    between atoms: C_32  and  C_33
REMARK   20  A    between atoms: C_32  and  N_40
REMARK   21  A    between atoms: C_33  and  C_34
REMARK   22  A    between atoms: C_41  and  O_43
REMARK   23  A    between atoms: O_43  and  C_44
REMARK   24  A    between atoms: C_44  and  C_45
REMARK                            x       y       z     vdW  Elec       q    Type
REMARK                         _______ _______ _______ _____ _____    ______ ____
ROOT
ATOM      1  C   UNL     1       6.040  11.993  -4.492  0.00  0.00    +0.080 C 
ENDROOT
BRANCH   1   3
ATOM      2  C   UNL     1       5.709  10.448  -2.568  0.00  0.00    +0.234 C 
ATOM      3  N   UNL     1       5.388  11.603  -3.252  0.00  0.00    -0.311 N 
ATOM      4  H   UNL     1       4.537  12.076  -2.973  0.00  0.00    +0.149 HD
ATOM      5  O   UNL     1       6.624   9.706  -2.918  0.00  0.00    -0.274 OA
BRANCH   2   6
ATOM      6  C   UNL     1       4.790  10.138  -1.359  0.00  0.00    +0.163 C 
BRANCH   6   9
ATOM      7  N   UNL     1       2.775  13.152  -0.467  0.00  0.00    -0.283 N 
ATOM      8  C   UNL     1       3.888  12.309  -0.467  0.00  0.00    +0.303 C 
ATOM      9  N   UNL     1       3.740  11.157  -1.204  0.00  0.00    -0.288 N 
ATOM     10  H   UNL     1       2.966  11.106  -1.849  0.00  0.00    +0.151 HD
ATOM     11  O   UNL     1       4.930  12.558   0.132  0.00  0.00    -0.253 OA
ATOM     12  C   UNL     1       1.499  12.804  -1.066  0.00  0.00    +0.134 C 
BRANCH   7  13
ATOM     13  C   UNL     1       2.799  14.336   0.406  0.00  0.00    +0.164 C 
BRANCH  13  17
ATOM     14  C   UNL     1       1.032  17.276  -0.853  0.00  0.00    +0.081 A 
ATOM     15  S   UNL     1       2.515  17.861  -1.512  0.00  0.00    -0.080 S 
ATOM     16  C   UNL     1       3.323  16.473  -0.926  0.00  0.00    +0.071 A 
ATOM     17  C   UNL     1       2.432  15.612  -0.312  0.00  0.00    +0.066 A 
ATOM     18  N   UNL     1       1.110  16.081  -0.293  0.00  0.00    -0.247 NA
BRANCH  14  20
ATOM     19  C   UNL     1      -1.410  17.445  -1.485  0.00  0.00    +0.014 C 
ATOM     20  C   UNL     1      -0.196  18.164  -0.901  0.00  0.00    +0.038 C 
ATOM     21  C   UNL     1      -0.522  18.716   0.488  0.00  0.00    +0.014 C 
ENDBRANCH  14  20
ENDBRANCH  13  17
ENDBRANCH   7  13
ENDBRANCH   6   9
BRANCH   6  22
ATOM     22  C   UNL     1       4.193   8.711  -1.523  0.00  0.00    +0.012 C 
ATOM     23  C   UNL     1       3.368   8.546  -2.809  0.00  0.00    +0.009 C 
ATOM     24  C   UNL     1       3.355   8.297  -0.310  0.00  0.00    +0.009 C 
ENDBRANCH   6  22
ENDBRANCH   2   6
ENDBRANCH   1   3
BRANCH   1  25
ATOM     25  C   UNL     1       6.072  13.529  -4.617  0.00  0.00    +0.055 C 
BRANCH  25  26
ATOM     26  C   UNL     1       6.737  14.284  -3.448  0.00  0.00    +0.137 C 
BRANCH  26  27
ATOM     27  O   UNL     1       6.519  15.691  -3.645  0.00  0.00    -0.390 OA
ATOM     28  H   UNL     1       6.901  15.943  -4.506  0.00  0.00    +0.210 HD
ENDBRANCH  26  27
BRANCH  26  29
ATOM     29  C   UNL     1       8.241  13.981  -3.175  0.00  0.00    +0.109 C 
BRANCH  29  30
ATOM     30  N   UNL     1       8.694  14.692  -1.972  0.00  0.00    -0.275 N 
ATOM     31  H   UNL     1       8.365  15.637  -1.818  0.00  0.00    +0.152 HD
ATOM     32  C   UNL     1       9.730  14.243  -1.198  0.00  0.00    +0.401 C 
ATOM     33  O   UNL     1      10.256  13.150  -1.315  0.00  0.00    -0.226 OA
BRANCH  32  34
ATOM     34  O   UNL     1      10.095  15.193  -0.302  0.00  0.00    -0.445 OA
BRANCH  34  35
ATOM     35  C   UNL     1      11.039  14.752   0.691  0.00  0.00    +0.278 C 
BRANCH  35  36
ATOM     36  C   UNL     1      12.438  15.001   0.232  0.00  0.00    +0.046 A 
ATOM     37  S   UNL     1      13.054  16.586  -0.003  0.00  0.00    -0.077 S 
ATOM     38  C   UNL     1      14.589  15.921  -0.385  0.00  0.00    +0.156 A 
ATOM     39  N   UNL     1      14.679  14.611  -0.345  0.00  0.00    -0.255 NA
ATOM     40  C   UNL     1      13.447  14.085   0.001  0.00  0.00    +0.125 A 
ENDBRANCH  35  36
ENDBRANCH  34  35
ENDBRANCH  32  34
ENDBRANCH  29  30
BRANCH  29  41
ATOM     41  C   UNL     1       9.221  14.221  -4.359  0.00  0.00    +0.060 C 
BRANCH  41  42
ATOM     42  C   UNL     1       9.293  15.615  -4.953  0.00  0.00    -0.046 A 
ATOM     43  C   UNL     1       9.002  15.810  -6.311  0.00  0.00    +0.004 A 
ATOM     44  C   UNL     1       9.037  17.090  -6.871  0.00  0.00    +0.000 A 
ATOM     45  C   UNL     1       9.360  18.192  -6.083  0.00  0.00    +0.000 A 
ATOM     46  C   UNL     1       9.679  18.010  -4.741  0.00  0.00    +0.000 A 
ATOM     47  C   UNL     1       9.667  16.729  -4.186  0.00  0.00    +0.004 A 
ENDBRANCH  41  42
ENDBRANCH  29  41
ENDBRANCH  26  29
ENDBRANCH  25  26
ENDBRANCH   1  25
BRANCH   1  48
ATOM     48  C   UNL     1       5.297  11.322  -5.677  0.00  0.00    +0.057 C 
BRANCH  48  49
ATOM     49  C   UNL     1       5.898  11.618  -7.028  0.00  0.00    -0.046 A 
ATOM     50  C   UNL     1       5.127  12.216  -8.035  0.00  0.00    +0.004 A 
ATOM     51  C   UNL     1       5.703  12.534  -9.265  0.00  0.00    +0.000 A 
ATOM     52  C   UNL     1       7.048  12.256  -9.500  0.00  0.00    +0.000 A 
ATOM     53  C   UNL     1       7.815  11.638  -8.515  0.00  0.00    +0.000 A 
ATOM     54  C   UNL     1       7.239  11.307  -7.289  0.00  0.00    +0.004 A 
ENDBRANCH  48  49
ENDBRANCH   1  48
TORSDOF 19
