REMARK  Name = 
REMARK  24 active torsions:
REMARK  status: ('A' for Active; 'I' for Inactive)
REMARK    1  A    between atoms: C_1  and  C_2
REMARK    2  A    between atoms: C_2  and  C_3
REMARK    3  A    between atoms: C_2  and  C_4
REMARK    4  A    between atoms: C_6  and  C_9
REMARK    5  A    between atoms: C_9  and  N_10
REMARK    6  A    between atoms: N_10  and  C_11
REMARK    7  A    between atoms: N_14  and  C_15
REMARK    8  A    between atoms: C_15  and  C_16
REMARK    9  A    between atoms: C_15  and  C_19
REMARK   10  A    between atoms: C_16  and  C_17
REMARK   11  A    between atoms: C_16  and  C_18
REMARK   12  A    between atoms: N_21  and  C_22
REMARK   13  A    between atoms: C_22  and  C_23
REMARK   14  A    between atoms: C_22  and  C_30
REMARK   15  A    between atoms: C_23  and  C_24
REMARK   16  A    between atoms: C_30  and  C_31
REMARK   17  A    between atoms: C_31  and  C_32
REMARK   18  A    between atoms: C_31  and  O_50
REMARK   19  A    between atoms: C_32  and  C_33
REMARK   20  A    between atoms: C_32  and  N_40
REMARK   21  A    between atoms: C_33  and  C_34
REMARK   22  A    between atoms: C_41  and  O_43
REMARK   23  A    between atoms: O_43  and  C_44
REMARK   24  A    between atoms: C_44  and  C_45
REMARK                            x       y       z     vdW  Elec       q    Type
REMARK                         _______ _______ _______ _____ _____    ______ ____
ROOT
ATOM      1  C   UNL     1       6.071  -3.970  12.024  0.00  0.00    +0.080 C 
ENDROOT
BRANCH   1   3
ATOM      2  C   UNL     1       4.834  -2.393  10.531  0.00  0.00    +0.234 C 
ATOM      3  N   UNL     1       5.758  -2.641  11.523  0.00  0.00    -0.311 N 
ATOM      4  H   UNL     1       6.377  -1.875  11.754  0.00  0.00    +0.149 HD
ATOM      5  O   UNL     1       4.122  -3.264  10.040  0.00  0.00    -0.274 OA
BRANCH   2   6
ATOM      6  C   UNL     1       4.841  -0.917  10.031  0.00  0.00    +0.163 C 
BRANCH   6   9
ATOM      7  N   UNL     1       6.662   1.103  12.593  0.00  0.00    -0.283 N 
ATOM      8  C   UNL     1       5.557   0.511  11.978  0.00  0.00    +0.303 C 
ATOM      9  N   UNL     1       5.832  -0.130  10.790  0.00  0.00    -0.288 N 
ATOM     10  H   UNL     1       6.776  -0.175  10.461  0.00  0.00    +0.151 HD
ATOM     11  O   UNL     1       4.428   0.528  12.459  0.00  0.00    -0.253 OA
ATOM     12  C   UNL     1       8.018   1.089  12.074  0.00  0.00    +0.134 C 
BRANCH   7  13
ATOM     13  C   UNL     1       6.430   1.929  13.791  0.00  0.00    +0.164 C 
BRANCH  13  17
ATOM     14  C   UNL     1       8.630   1.890  16.704  0.00  0.00    +0.081 A 
ATOM     15  S   UNL     1       8.077   0.303  17.086  0.00  0.00    -0.080 S 
ATOM     16  C   UNL     1       7.090   0.315  15.692  0.00  0.00    +0.071 A 
ATOM     17  C   UNL     1       7.230   1.503  14.999  0.00  0.00    +0.066 A 
ATOM     18  N   UNL     1       8.137   2.393  15.587  0.00  0.00    -0.247 NA
BRANCH  14  20
ATOM     19  C   UNL     1      10.885   2.974  16.894  0.00  0.00    +0.014 C 
ATOM     20  C   UNL     1       9.613   2.570  17.636  0.00  0.00    +0.038 C 
ATOM     21  C   UNL     1       8.993   3.780  18.337  0.00  0.00    +0.014 C 
ENDBRANCH  14  20
ENDBRANCH  13  17
ENDBRANCH   7  13
ENDBRANCH   6   9
BRANCH   6  22
ATOM     22  C   UNL     1       5.141  -0.892   8.505  0.00  0.00    +0.012 C 
ATOM     23  C   UNL     1       6.459  -1.588   8.133  0.00  0.00    +0.009 C 
ATOM     24  C   UNL     1       5.133   0.537   7.950  0.00  0.00    +0.009 C 
ENDBRANCH   6  22
ENDBRANCH   2   6
ENDBRANCH   1   3
BRANCH   1  25
ATOM     25  C   UNL     1       6.542  -3.873  13.487  0.00  0.00    +0.055 C 
BRANCH  25  26
ATOM     26  C   UNL     1       5.588  -3.167  14.469  0.00  0.00    +0.137 C 
BRANCH  26  27
ATOM     27  O   UNL     1       6.288  -3.020  15.715  0.00  0.00    -0.390 OA
ATOM     28  H   UNL     1       6.583  -3.904  16.007  0.00  0.00    +0.210 HD
ENDBRANCH  26  27
BRANCH  26  29
ATOM     29  C   UNL     1       4.179  -3.785  14.700  0.00  0.00    +0.109 C 
BRANCH  29  30
ATOM     30  N   UNL     1       3.388  -2.905  15.574  0.00  0.00    -0.275 N 
ATOM     31  H   UNL     1       3.864  -2.413  16.319  0.00  0.00    +0.152 HD
ATOM     32  C   UNL     1       2.023  -2.881  15.582  0.00  0.00    +0.401 C 
ATOM     33  O   UNL     1       1.320  -3.490  14.787  0.00  0.00    -0.226 OA
BRANCH  32  34
ATOM     34  O   UNL     1       1.571  -2.109  16.595  0.00  0.00    -0.445 OA
BRANCH  34  35
ATOM     35  C   UNL     1       0.147  -1.902  16.636  0.00  0.00    +0.278 C 
BRANCH  35  36
ATOM     36  C   UNL     1      -0.344  -2.318  17.982  0.00  0.00    +0.046 A 
ATOM     37  S   UNL     1      -0.486  -1.202  19.279  0.00  0.00    -0.077 S 
ATOM     38  C   UNL     1      -1.105  -2.454  20.274  0.00  0.00    +0.156 A 
ATOM     39  N   UNL     1      -1.228  -3.634  19.708  0.00  0.00    -0.255 NA
ATOM     40  C   UNL     1      -0.796  -3.556  18.398  0.00  0.00    +0.125 A 
ENDBRANCH  35  36
ENDBRANCH  34  35
ENDBRANCH  32  34
ENDBRANCH  29  30
BRANCH  29  41
ATOM     41  C   UNL     1       4.151  -5.258  15.197  0.00  0.00    +0.060 C 
BRANCH  41  42
ATOM     42  C   UNL     1       4.823  -5.595  16.515  0.00  0.00    -0.046 A 
ATOM     43  C   UNL     1       5.788  -6.613  16.565  0.00  0.00    +0.004 A 
ATOM     44  C   UNL     1       6.442  -6.922  17.761  0.00  0.00    +0.000 A 
ATOM     45  C   UNL     1       6.144  -6.218  18.925  0.00  0.00    +0.000 A 
ATOM     46  C   UNL     1       5.159  -5.236  18.902  0.00  0.00    +0.000 A 
ATOM     47  C   UNL     1       4.486  -4.945  17.712  0.00  0.00    +0.004 A 
ENDBRANCH  41  42
ENDBRANCH  29  41
ENDBRANCH  26  29
ENDBRANCH  25  26
ENDBRANCH   1  25
BRANCH   1  48
ATOM     48  C   UNL     1       7.163  -4.590  11.114  0.00  0.00    +0.057 C 
BRANCH  48  49
ATOM     49  C   UNL     1       7.594  -5.975  11.524  0.00  0.00    -0.046 A 
ATOM     50  C   UNL     1       8.935  -6.238  11.854  0.00  0.00    +0.004 A 
ATOM     51  C   UNL     1       9.318  -7.516  12.260  0.00  0.00    +0.000 A 
ATOM     52  C   UNL     1       8.378  -8.540  12.340  0.00  0.00    +0.000 A 
ATOM     53  C   UNL     1       7.046  -8.291  12.003  0.00  0.00    +0.000 A 
ATOM     54  C   UNL     1       6.662  -7.020  11.587  0.00  0.00    +0.004 A 
ENDBRANCH  48  49
ENDBRANCH   1  48
TORSDOF 19
