REMARK  Name = 
REMARK  12 active torsions:
REMARK  status: ('A' for Active; 'I' for Inactive)
REMARK    1  A    between atoms: C_1  and  C_2
REMARK    2  A    between atoms: C_2  and  C_3
REMARK    3  A    between atoms: C_3  and  C_4
REMARK    4  A    between atoms: C_3  and  C_6
REMARK    5  A    between atoms: C_4  and  C_5
REMARK    6  A    between atoms: C_6  and  C_7
REMARK    7  A    between atoms: C_6  and  N_24
REMARK    8  A    between atoms: C_9  and  N_20
REMARK    9  A    between atoms: C_12  and  C_17
REMARK   10  A    between atoms: C_14  and  O_16
REMARK   11  A    between atoms: C_17  and  O_19
REMARK   12  A    between atoms: C_25  and  C_27
REMARK                            x       y       z     vdW  Elec       q    Type
REMARK                         _______ _______ _______ _____ _____    ______ ____
ROOT
ATOM      1  C   UNL     1       4.923  -0.518  -1.367  0.00  0.00    +0.079 C 
ATOM      2  C   UNL     1       3.545  -0.007  -0.890  0.00  0.00    +0.137 C 
ATOM      3  C   UNL     1       2.552  -1.176  -0.917  0.00  0.00    +0.130 C 
ATOM      4  C   UNL     1       3.423  -2.435  -1.008  0.00  0.00    +0.062 C 
ATOM      5  C   UNL     1       4.879  -1.978  -0.869  0.00  0.00    +0.196 C 
ENDROOT
BRANCH   5   6
ATOM      6  N   UNL     1       5.727  -2.922  -1.583  0.00  0.00    -0.110 NA
ATOM      7  C   UNL     1       6.965  -3.034  -1.282  0.00  0.00    +0.377 C 
ATOM      8  N   UNL     1       7.681  -4.034  -1.836  0.00  0.00    -0.289 N 
ATOM      9  H   UNL     1       8.620  -3.827  -2.138  0.00  0.00    +0.255 HD
ATOM     10  H   UNL     1       7.145  -4.542  -2.531  0.00  0.00    +0.255 HD
ATOM     11  N   UNL     1       7.703  -2.312  -0.418  0.00  0.00    -0.289 N 
ATOM     12  H   UNL     1       8.706  -2.317  -0.533  0.00  0.00    +0.255 HD
ATOM     13  H   UNL     1       7.327  -1.435  -0.090  0.00  0.00    +0.255 HD
ENDBRANCH   5   6
BRANCH   2  14
ATOM     14  O   UNL     1       3.045   1.193  -1.438  0.00  0.00    -0.391 OA
ATOM     15  H   UNL     1       3.020   1.099  -2.421  0.00  0.00    +0.210 HD
ENDBRANCH   2  14
BRANCH   3  16
ATOM     16  C   UNL     1       1.461  -1.149  -1.969  0.00  0.00    +0.310 C 
ATOM     17  O   UNL     1       1.176  -2.084  -2.705  0.00  0.00    -0.251 OA
BRANCH  16  18
ATOM     18  O   UNL     1       0.720  -0.018  -1.944  0.00  0.00    -0.480 OA
ATOM     19  H   UNL     1       1.150   0.694  -1.419  0.00  0.00    +0.295 HD
ENDBRANCH  16  18
ENDBRANCH   3  16
BRANCH   1  20
ATOM     20  C   UNL     1       5.432  -0.260  -2.816  0.00  0.00    +0.085 C 
BRANCH  20  21
ATOM     21  N   UNL     1       4.649  -0.954  -3.837  0.00  0.00    -0.312 N 
ATOM     22  H   UNL     1       4.982  -1.871  -4.112  0.00  0.00    +0.149 HD
ATOM     23  C   UNL     1       3.457  -0.512  -4.353  0.00  0.00    +0.210 C 
ATOM     24  C   UNL     1       2.879  -1.379  -5.435  0.00  0.00    +0.109 C 
ATOM     25  O   UNL     1       2.917   0.528  -3.985  0.00  0.00    -0.276 OA
ENDBRANCH  20  21
BRANCH  20  26
ATOM     26  C   UNL     1       5.731   1.242  -3.198  0.00  0.00    +0.009 C 
BRANCH  26  28
ATOM     27  C   UNL     1       6.760   3.469  -2.419  0.00  0.00    +0.004 C 
ATOM     28  C   UNL     1       6.538   1.992  -2.111  0.00  0.00    +0.002 C 
ENDBRANCH  26  28
BRANCH  26  29
ATOM     29  C   UNL     1       6.374   1.377  -4.608  0.00  0.00    +0.002 C 
ATOM     30  C   UNL     1       7.763   0.774  -4.768  0.00  0.00    +0.004 C 
ENDBRANCH  26  29
ENDBRANCH  20  26
ENDBRANCH   1  20
TORSDOF 9
