REMARK  Name = 
REMARK  4 active torsions:
REMARK  status: ('A' for Active; 'I' for Inactive)
REMARK    1  A    between atoms: C3*_2  and  O3*_20
REMARK    2  A    between atoms: C4*_4  and  C5*_18
REMARK    3  A    between atoms: C1*_7  and  N_9
REMARK    4  A    between atoms: C5*_18  and  O5*_19
REMARK                            x       y       z     vdW  Elec       q    Type
REMARK                         _______ _______ _______ _____ _____    ______ ____
ROOT
ATOM      1  C2* UNL     1      -0.810  -1.016  -0.116  0.00  0.00    +0.088 C 
ATOM      2  C1* UNL     1       0.696  -0.984   0.151  0.00  0.00    +0.226 C 
ATOM      3  O4* UNL     1       1.119   0.388   0.136  0.00  0.00    -0.348 OA
ATOM      4  C4* UNL     1      -0.023   1.208  -0.168  0.00  0.00    +0.175 C 
ATOM      5  C3* UNL     1      -1.256   0.390   0.213  0.00  0.00    +0.150 C 
ENDROOT
BRANCH   2   6
ATOM      6  N   UNL     1       1.076  -1.621   1.412  0.00  0.00    -0.273 N 
ATOM      7  C   UNL     1       1.252  -2.998   1.395  0.00  0.00    +0.331 A 
ATOM      8  O   UNL     1       1.085  -3.701   0.402  0.00  0.00    -0.246 OA
ATOM      9  N   UNL     1       1.621  -3.561   2.587  0.00  0.00    -0.274 N 
ATOM     10  H   UNL     1       1.776  -4.557   2.589  0.00  0.00    +0.173 HD
ATOM     11  C   UNL     1       1.786  -2.909   3.780  0.00  0.00    +0.267 A 
ATOM     12  O   UNL     1       2.122  -3.521   4.789  0.00  0.00    -0.267 OA
ATOM     13  C   UNL     1       1.521  -1.445   3.757  0.00  0.00    +0.094 A 
ATOM     14  I   UNL     1       1.664  -0.352   5.477  0.00  0.00    -0.037 I 
ATOM     15  C   UNL     1       1.188  -0.893   2.584  0.00  0.00    +0.113 A 
ENDBRANCH   2   6
BRANCH   5  16
ATOM     16  O3* UNL     1      -1.563   0.497   1.603  0.00  0.00    -0.389 OA
ATOM     17  H3* UNL     1      -2.299  -0.113   1.791  0.00  0.00    +0.210 HD
ENDBRANCH   5  16
BRANCH   4  18
ATOM     18  C5* UNL     1       0.101   2.557   0.533  0.00  0.00    +0.190 C 
BRANCH  18  19
ATOM     19  O5* UNL     1      -1.037   3.374   0.285  0.00  0.00    -0.392 OA
ATOM     20  H5* UNL     1      -1.736   3.054   0.884  0.00  0.00    +0.210 HD
ENDBRANCH  18  19
ENDBRANCH   4  18
TORSDOF 4
