REMARK  Name = 
REMARK  4 active torsions:
REMARK  status: ('A' for Active; 'I' for Inactive)
REMARK    1  A    between atoms: C3*_2  and  O3*_20
REMARK    2  A    between atoms: C4*_4  and  C5*_18
REMARK    3  A    between atoms: C1*_7  and  N_9
REMARK    4  A    between atoms: C5*_18  and  O5*_19
REMARK                            x       y       z     vdW  Elec       q    Type
REMARK                         _______ _______ _______ _____ _____    ______ ____
ROOT
ATOM      1  C2* UNL     1      -0.804  -0.941  -0.196  0.00  0.00    +0.088 C 
ATOM      2  C1* UNL     1       0.713  -0.948  -0.032  0.00  0.00    +0.226 C 
ATOM      3  O4* UNL     1       1.161   0.425  -0.083  0.00  0.00    -0.348 OA
ATOM      4  C4* UNL     1      -0.004   1.265  -0.199  0.00  0.00    +0.175 C 
ATOM      5  C3* UNL     1      -1.178   0.432   0.299  0.00  0.00    +0.150 C 
ENDROOT
BRANCH   2   6
ATOM      6  N   UNL     1       1.363  -1.750  -1.068  0.00  0.00    -0.273 N 
ATOM      7  C   UNL     1       1.392  -3.125  -0.876  0.00  0.00    +0.331 A 
ATOM      8  O   UNL     1       0.947  -3.688   0.120  0.00  0.00    -0.246 OA
ATOM      9  N   UNL     1       1.923  -3.856  -1.905  0.00  0.00    -0.274 N 
ATOM     10  H   UNL     1       1.903  -4.858  -1.800  0.00  0.00    +0.173 HD
ATOM     11  C   UNL     1       2.255  -3.379  -3.145  0.00  0.00    +0.267 A 
ATOM     12  O   UNL     1       2.523  -4.145  -4.064  0.00  0.00    -0.267 OA
ATOM     13  C   UNL     1       2.230  -1.898  -3.293  0.00  0.00    +0.094 A 
ATOM     14  I   UNL     1       2.807  -1.034  -5.053  0.00  0.00    -0.037 I 
ATOM     15  C   UNL     1       1.786  -1.178  -2.255  0.00  0.00    +0.113 A 
ENDBRANCH   2   6
BRANCH   5  16
ATOM     16  O3* UNL     1      -2.423   0.861  -0.225  0.00  0.00    -0.389 OA
ATOM     17  H3* UNL     1      -2.401   0.812  -1.197  0.00  0.00    +0.210 HD
ENDBRANCH   5  16
BRANCH   4  18
ATOM     18  C5* UNL     1       0.191   2.584   0.547  0.00  0.00    +0.190 C 
BRANCH  18  19
ATOM     19  O5* UNL     1       0.443   2.376   1.934  0.00  0.00    -0.392 OA
ATOM     20  H5* UNL     1       1.360   2.055   2.004  0.00  0.00    +0.210 HD
ENDBRANCH  18  19
ENDBRANCH   4  18
TORSDOF 4
