REMARK  Name = 
REMARK  4 active torsions:
REMARK  status: ('A' for Active; 'I' for Inactive)
REMARK    1  A    between atoms: C3*_2  and  O3*_20
REMARK    2  A    between atoms: C4*_4  and  C5*_18
REMARK    3  A    between atoms: C1*_7  and  N_9
REMARK    4  A    between atoms: C5*_18  and  O5*_19
REMARK                            x       y       z     vdW  Elec       q    Type
REMARK                         _______ _______ _______ _____ _____    ______ ____
ROOT
ATOM      1  C2* UNL     1      -0.846  -1.023  -0.179  0.00  0.00    +0.088 C 
ATOM      2  C1* UNL     1       0.677  -1.007  -0.061  0.00  0.00    +0.226 C 
ATOM      3  O4* UNL     1       1.100   0.372  -0.140  0.00  0.00    -0.348 OA
ATOM      4  C4* UNL     1      -0.082   1.180  -0.316  0.00  0.00    +0.175 C 
ATOM      5  C3* UNL     1      -1.223   0.368   0.269  0.00  0.00    +0.150 C 
ENDROOT
BRANCH   2   6
ATOM      6  N   UNL     1       1.315  -1.797  -1.109  0.00  0.00    -0.273 N 
ATOM      7  C   UNL     1       1.375  -3.171  -0.916  0.00  0.00    +0.331 A 
ATOM      8  O   UNL     1       0.958  -3.741   0.089  0.00  0.00    -0.246 OA
ATOM      9  N   UNL     1       1.912  -3.890  -1.950  0.00  0.00    -0.274 N 
ATOM     10  H   UNL     1       1.917  -4.893  -1.845  0.00  0.00    +0.173 HD
ATOM     11  C   UNL     1       2.219  -3.405  -3.194  0.00  0.00    +0.267 A 
ATOM     12  O   UNL     1       2.493  -4.164  -4.117  0.00  0.00    -0.267 OA
ATOM     13  C   UNL     1       2.158  -1.926  -3.345  0.00  0.00    +0.094 A 
ATOM     14  I   UNL     1       2.690  -1.046  -5.110  0.00  0.00    -0.037 I 
ATOM     15  C   UNL     1       1.710  -1.216  -2.302  0.00  0.00    +0.113 A 
ENDBRANCH   2   6
BRANCH   5  16
ATOM     16  O3* UNL     1      -2.495   0.763  -0.211  0.00  0.00    -0.389 OA
ATOM     17  H3* UNL     1      -2.509   0.693  -1.182  0.00  0.00    +0.210 HD
ENDBRANCH   5  16
BRANCH   4  18
ATOM     18  C5* UNL     1       0.120   2.541   0.334  0.00  0.00    +0.190 C 
BRANCH  18  19
ATOM     19  O5* UNL     1       1.175   3.228  -0.345  0.00  0.00    -0.392 OA
ATOM     20  H5* UNL     1       1.900   2.581  -0.444  0.00  0.00    +0.210 HD
ENDBRANCH  18  19
ENDBRANCH   4  18
TORSDOF 4
