REMARK  Name = 
REMARK  9 active torsions:
REMARK  status: ('A' for Active; 'I' for Inactive)
REMARK    1  A    between atoms: N_3  and  C_9
REMARK    2  A    between atoms: C_9  and  C_10
REMARK    3  A    between atoms: C_10  and  C_12
REMARK    4  A    between atoms: C_10  and  O_14
REMARK    5  A    between atoms: C_12  and  O_13
REMARK    6  A    between atoms: O_14  and  C_15
REMARK    7  A    between atoms: C_15  and  P_16
REMARK    8  A    between atoms: P_16  and  O_18
REMARK    9  A    between atoms: P_16  and  O_19
REMARK                            x       y       z     vdW  Elec       q    Type
REMARK                         _______ _______ _______ _____ _____    ______ ____
ROOT
ATOM      1  C   UNL     1       1.511  -3.218   0.552  0.00  0.00    +0.164 C 
ENDROOT
BRANCH   1   2
ATOM      2  C   UNL     1       2.055  -2.692  -0.792  0.00  0.00    +0.160 C 
BRANCH   2  11
ATOM      3  C   UNL     1       5.162  -4.170  -2.104  0.00  0.00    +0.061 A 
ATOM      4  C   UNL     1       6.069  -3.055  -1.772  0.00  0.00    +0.123 A 
ATOM      5  N   UNL     1       7.369  -3.093  -2.196  0.00  0.00    -0.343 N 
ATOM      6  H   UNL     1       7.802  -3.993  -2.355  0.00  0.00    +0.144 HD
ATOM      7  H   UNL     1       7.963  -2.417  -1.725  0.00  0.00    +0.144 HD
ATOM      8  N   UNL     1       5.702  -2.018  -1.088  0.00  0.00    -0.178 NA
ATOM      9  C   UNL     1       4.394  -1.894  -0.683  0.00  0.00    +0.350 A 
ATOM     10  O   UNL     1       4.026  -0.922  -0.022  0.00  0.00    -0.244 OA
ATOM     11  N   UNL     1       3.487  -2.897  -1.043  0.00  0.00    -0.296 N 
ATOM     12  C   UNL     1       3.896  -4.022  -1.718  0.00  0.00    +0.094 A 
ENDBRANCH   2  11
ENDBRANCH   1   2
BRANCH   1  13
ATOM     13  O   UNL     1       1.610  -4.658   0.585  0.00  0.00    -0.360 OA
BRANCH  13  14
ATOM     14  C   UNL     1       0.752  -5.218   1.598  0.00  0.00    +0.286 C 
BRANCH  14  15
ATOM     15  P   UNL     1       0.775  -7.048   1.614  0.00  0.00    +0.353 P 
ATOM     16  O   UNL     1       0.133  -7.117   0.224  0.00  0.00    -0.256 OA
BRANCH  15  17
ATOM     17  O   UNL     1       0.797  -8.777   1.629  0.00  0.00    -0.323 OA
ATOM     18  H   UNL     1       0.683  -9.029   0.690  0.00  0.00    +0.220 HD
ENDBRANCH  15  17
BRANCH  15  19
ATOM     19  O   UNL     1       2.389  -7.074   1.332  0.00  0.00    -0.323 OA
ATOM     20  H   UNL     1       2.549  -6.863   0.391  0.00  0.00    +0.220 HD
ENDBRANCH  15  19
ENDBRANCH  14  15
ENDBRANCH  13  14
ENDBRANCH   1  13
BRANCH   1  21
ATOM     21  C   UNL     1       2.153  -2.558   1.784  0.00  0.00    +0.189 C 
BRANCH  21  22
ATOM     22  O   UNL     1       2.036  -1.143   1.753  0.00  0.00    -0.392 OA
ATOM     23  H   UNL     1       2.795  -0.807   1.225  0.00  0.00    +0.210 HD
ENDBRANCH  21  22
ENDBRANCH   1  21
TORSDOF 9
