REMARK  Name = 
REMARK  9 active torsions:
REMARK  status: ('A' for Active; 'I' for Inactive)
REMARK    1  A    between atoms: N_3  and  C_9
REMARK    2  A    between atoms: C_9  and  C_10
REMARK    3  A    between atoms: C_10  and  C_12
REMARK    4  A    between atoms: C_10  and  O_14
REMARK    5  A    between atoms: C_12  and  O_13
REMARK    6  A    between atoms: O_14  and  C_15
REMARK    7  A    between atoms: C_15  and  P_16
REMARK    8  A    between atoms: P_16  and  O_18
REMARK    9  A    between atoms: P_16  and  O_19
REMARK                            x       y       z     vdW  Elec       q    Type
REMARK                         _______ _______ _______ _____ _____    ______ ____
ROOT
ATOM      1  C   UNL     1       1.465  -3.328   0.620  0.00  0.00    +0.164 C 
ENDROOT
BRANCH   1   2
ATOM      2  C   UNL     1       2.041  -2.844  -0.735  0.00  0.00    +0.160 C 
BRANCH   2  11
ATOM      3  C   UNL     1       5.173  -4.239  -2.074  0.00  0.00    +0.061 A 
ATOM      4  C   UNL     1       6.054  -3.091  -1.785  0.00  0.00    +0.123 A 
ATOM      5  N   UNL     1       7.341  -3.092  -2.245  0.00  0.00    -0.343 N 
ATOM      6  H   UNL     1       7.804  -3.982  -2.369  0.00  0.00    +0.144 HD
ATOM      7  H   UNL     1       7.921  -2.376  -1.817  0.00  0.00    +0.144 HD
ATOM      8  N   UNL     1       5.667  -2.056  -1.109  0.00  0.00    -0.178 NA
ATOM      9  C   UNL     1       4.362  -1.970  -0.674  0.00  0.00    +0.350 A 
ATOM     10  O   UNL     1       3.981  -0.988  -0.029  0.00  0.00    -0.244 OA
ATOM     11  N   UNL     1       3.483  -3.017  -0.974  0.00  0.00    -0.296 N 
ATOM     12  C   UNL     1       3.914  -4.134  -1.652  0.00  0.00    +0.094 A 
ENDBRANCH   2  11
ENDBRANCH   1   2
BRANCH   1  13
ATOM     13  O   UNL     1       1.402  -4.785   0.718  0.00  0.00    -0.360 OA
BRANCH  13  14
ATOM     14  C   UNL     1       0.689  -5.173   1.924  0.00  0.00    +0.286 C 
BRANCH  14  15
ATOM     15  P   UNL     1       0.014  -6.835   1.904  0.00  0.00    +0.353 P 
ATOM     16  O   UNL     1      -0.990  -7.121   2.973  0.00  0.00    -0.256 OA
BRANCH  15  17
ATOM     17  O   UNL     1       1.223  -7.888   1.943  0.00  0.00    -0.323 OA
ATOM     18  H   UNL     1       0.869  -8.785   2.115  0.00  0.00    +0.220 HD
ENDBRANCH  15  17
BRANCH  15  19
ATOM     19  O   UNL     1      -0.537  -7.096   0.421  0.00  0.00    -0.323 OA
ATOM     20  H   UNL     1      -0.014  -6.636  -0.260  0.00  0.00    +0.220 HD
ENDBRANCH  15  19
ENDBRANCH  14  15
ENDBRANCH  13  14
ENDBRANCH   1  13
BRANCH   1  21
ATOM     21  C   UNL     1       2.128  -2.643   1.833  0.00  0.00    +0.189 C 
BRANCH  21  22
ATOM     22  O   UNL     1       2.045  -1.226   1.752  0.00  0.00    -0.392 OA
ATOM     23  H   UNL     1       2.821  -0.916   1.231  0.00  0.00    +0.210 HD
ENDBRANCH  21  22
ENDBRANCH   1  21
TORSDOF 9
