REMARK  Name = 
REMARK  4 active torsions:
REMARK  status: ('A' for Active; 'I' for Inactive)
REMARK    1  A    between atoms: C3*_2  and  O3*_19
REMARK    2  A    between atoms: C4*_4  and  C5*_17
REMARK    3  A    between atoms: C1*_6  and  N_8
REMARK    4  A    between atoms: C5*_17  and  O5*_18
REMARK                            x       y       z     vdW  Elec       q    Type
REMARK                         _______ _______ _______ _____ _____    ______ ____
ROOT
ATOM      1  C2* UNL     1      -0.853  -1.056  -0.089  0.00  0.00    +0.088 C 
ATOM      2  C1* UNL     1       0.656  -1.031   0.126  0.00  0.00    +0.226 C 
ATOM      3  O4* UNL     1       1.100   0.340   0.058  0.00  0.00    -0.348 OA
ATOM      4  C4* UNL     1      -0.042   1.185  -0.196  0.00  0.00    +0.175 C 
ATOM      5  C3* UNL     1      -1.257   0.363   0.232  0.00  0.00    +0.150 C 
ENDROOT
BRANCH   2   6
ATOM      6  N   UNL     1       1.059  -1.634   1.394  0.00  0.00    -0.273 N 
ATOM      7  C   UNL     1       1.251  -3.009   1.396  0.00  0.00    +0.331 A 
ATOM      8  O   UNL     1       1.112  -3.726   0.409  0.00  0.00    -0.246 OA
ATOM      9  N   UNL     1       1.608  -3.555   2.601  0.00  0.00    -0.274 N 
ATOM     10  H   UNL     1       1.767  -4.550   2.616  0.00  0.00    +0.173 HD
ATOM     11  C   UNL     1       1.752  -2.887   3.786  0.00  0.00    +0.267 A 
ATOM     12  O   UNL     1       2.079  -3.483   4.807  0.00  0.00    -0.267 OA
ATOM     13  C   UNL     1       1.483  -1.424   3.740  0.00  0.00    +0.094 A 
ATOM     14  I   UNL     1       1.608  -0.308   5.447  0.00  0.00    -0.037 I 
ATOM     15  C   UNL     1       1.158  -0.887   2.556  0.00  0.00    +0.113 A 
ENDBRANCH   2   6
BRANCH   5  16
ATOM     16  O3* UNL     1      -2.479   0.741  -0.370  0.00  0.00    -0.389 OA
ATOM     17  H3* UNL     1      -2.434   0.516  -1.319  0.00  0.00    +0.210 HD
ENDBRANCH   5  16
BRANCH   4  18
ATOM     18  C5* UNL     1      -0.023   1.632  -1.663  0.00  0.00    +0.190 C 
BRANCH  18  19
ATOM     19  O5* UNL     1      -0.072   0.517  -2.552  0.00  0.00    -0.392 OA
ATOM     20  H5* UNL     1       0.812   0.105  -2.519  0.00  0.00    +0.210 HD
ENDBRANCH  18  19
ENDBRANCH   4  18
TORSDOF 4
