REMARK  Name = 
REMARK  7 active torsions:
REMARK  status: ('A' for Active; 'I' for Inactive)
REMARK    1  A    between atoms: C_3  and  N_4
REMARK    2  A    between atoms: N_4  and  C_5
REMARK    3  A    between atoms: N_12  and  C_15
REMARK    4  A    between atoms: C_17  and  C_21
REMARK    5  A    between atoms: C_21  and  O_22
REMARK    6  A    between atoms: O_23  and  S_24
REMARK    7  A    between atoms: S_24  and  O_27
REMARK                            x       y       z     vdW  Elec       q    Type
REMARK                         _______ _______ _______ _____ _____    ______ ____
ROOT
ATOM      1  C   UNL     1       2.632  -1.114   1.954  0.00  0.00    +0.152 A 
ATOM      2  N   UNL     1       3.263   0.083   2.145  0.00  0.00    -0.198 NA
ATOM      3  C   UNL     1       4.607   0.138   2.235  0.00  0.00    +0.216 A 
ATOM      4  N   UNL     1       5.162   1.400   2.286  0.00  0.00    -0.327 N 
ATOM      5  H   UNL     1       4.513   2.090   1.928  0.00  0.00    +0.145 HD
ATOM      6  H   UNL     1       6.075   1.395   1.849  0.00  0.00    +0.145 HD
ATOM      7  N   UNL     1       5.453  -0.878   2.040  0.00  0.00    -0.195 NA
ATOM      8  C   UNL     1       4.820  -2.027   1.758  0.00  0.00    +0.168 A 
ATOM      9  N   UNL     1       5.375  -3.219   1.367  0.00  0.00    -0.308 N 
ATOM     10  C   UNL     1       4.331  -4.085   1.144  0.00  0.00    +0.202 A 
ATOM     11  N   UNL     1       3.158  -3.525   1.356  0.00  0.00    -0.231 NA
ATOM     12  C   UNL     1       3.452  -2.231   1.711  0.00  0.00    +0.148 A 
ENDROOT
BRANCH   9  13
ATOM     13  C   UNL     1       6.802  -3.488   1.223  0.00  0.00    +0.113 C 
ATOM     14  C   UNL     1       7.093  -4.842   0.629  0.00  0.00    -0.006 C 
ATOM     15  C   UNL     1       7.467  -4.759  -0.655  0.00  0.00    -0.023 C 
ATOM     16  C   UNL     1       7.553  -3.331  -1.122  0.00  0.00    +0.039 C 
ATOM     17  C   UNL     1       7.542  -2.576   0.218  0.00  0.00    +0.039 C 
BRANCH  16  18
ATOM     18  C   UNL     1       6.403  -2.903  -2.039  0.00  0.00    +0.163 C 
BRANCH  18  19
ATOM     19  O   UNL     1       6.449  -3.622  -3.266  0.00  0.00    -0.394 OA
ATOM     20  H   UNL     1       6.070  -4.501  -3.095  0.00  0.00    +0.209 HD
ENDBRANCH  18  19
ENDBRANCH  16  18
ENDBRANCH   9  13
BRANCH   1  21
ATOM     21  N   UNL     1       1.231  -1.185   1.806  0.00  0.00    -0.324 N 
ATOM     22  H   UNL     1       0.955  -2.168   1.762  0.00  0.00    +0.148 HD
BRANCH  21  24
ATOM     23  C   UNL     1      -1.041  -0.044   2.132  0.00  0.00    +0.024 C 
ATOM     24  C   UNL     1       0.376  -0.289   2.585  0.00  0.00    +0.072 C 
ATOM     25  C   UNL     1      -0.038   1.071   2.101  0.00  0.00    +0.024 C 
ENDBRANCH  21  24
ENDBRANCH   1  21
TORSDOF 5
REMARK  Name = 
REMARK  7 active torsions:
REMARK  status: ('A' for Active; 'I' for Inactive)
REMARK    1  A    between atoms: C_3  and  N_4
REMARK    2  A    between atoms: N_4  and  C_5
REMARK    3  A    between atoms: N_12  and  C_15
REMARK    4  A    between atoms: C_17  and  C_21
REMARK    5  A    between atoms: C_21  and  O_22
REMARK    6  A    between atoms: O_23  and  S_24
REMARK    7  A    between atoms: S_24  and  O_27
REMARK                            x       y       z     vdW  Elec       q    Type
REMARK                         _______ _______ _______ _____ _____    ______ ____
ROOT
ATOM      1  S   UNL     1       3.514   1.122  -1.717  0.00  0.00    +0.205 S 
ATOM      2  O   UNL     1       4.565   2.058  -1.394  0.00  0.00    -0.118 OA
ATOM      3  O   UNL     1       3.184   0.718  -3.061  0.00  0.00    -0.118 OA
ENDROOT
BRANCH   1   4
ATOM      4  O   UNL     1       2.159   1.646  -1.040  0.00  0.00    -0.231 OA
ATOM      5  H   UNL     1       1.429   1.069  -1.347  0.00  0.00    +0.247 HD
ENDBRANCH   1   4
BRANCH   1   6
ATOM      6  O   UNL     1       3.771  -0.192  -0.851  0.00  0.00    -0.231 OA
ATOM      7  H   UNL     1       3.577   0.060   0.074  0.00  0.00    +0.247 HD
ENDBRANCH   1   6
TORSDOF 2
