REMARK  Name = 
REMARK  4 active torsions:
REMARK  status: ('A' for Active; 'I' for Inactive)
REMARK    1  A    between atoms: C_1  and  C_2
REMARK    2  A    between atoms: N_4  and  C_10
REMARK    3  A    between atoms: C_13  and  C_15
REMARK    4  A    between atoms: C_15  and  O_16
REMARK                            x       y       z     vdW  Elec       q    Type
REMARK                         _______ _______ _______ _____ _____    ______ ____
ROOT
ATOM      1  C   UNL     1       1.108   0.114   0.108  0.00  0.00    +0.051 C 
ATOM      2  C   UNL     1       2.599   0.132   0.008  0.00  0.00    +0.030 A 
ATOM      3  C   UNL     1       3.277  -1.185   0.000  0.00  0.00    +0.257 A 
ATOM      4  O   UNL     1       2.657  -2.240  -0.002  0.00  0.00    -0.267 OA
ATOM      5  N   UNL     1       4.640  -1.152  -0.022  0.00  0.00    -0.275 N 
ATOM      6  H   UNL     1       5.116  -2.039  -0.055  0.00  0.00    +0.173 HD
ATOM      7  C   UNL     1       5.409  -0.039  -0.189  0.00  0.00    +0.332 A 
ATOM      8  O   UNL     1       6.624  -0.154  -0.347  0.00  0.00    -0.246 OA
ATOM      9  N   UNL     1       4.734   1.173  -0.194  0.00  0.00    -0.270 N 
ATOM     10  C   UNL     1       3.355   1.235  -0.089  0.00  0.00    +0.102 A 
ENDROOT
BRANCH   9  11
ATOM     11  C   UNL     1       5.556   2.347  -0.423  0.00  0.00    +0.248 C 
ATOM     12  O   UNL     1       4.970   3.559   0.101  0.00  0.00    -0.343 OA
ATOM     13  C   UNL     1       5.368   4.626  -0.796  0.00  0.00    +0.169 C 
ATOM     14  C   UNL     1       5.577   3.930  -2.101  0.00  0.00    +0.007 C 
ATOM     15  C   UNL     1       5.688   2.619  -1.883  0.00  0.00    +0.025 C 
BRANCH  13  16
ATOM     16  C   UNL     1       6.653   5.302  -0.278  0.00  0.00    +0.191 C 
BRANCH  16  17
ATOM     17  O   UNL     1       7.135   6.300  -1.173  0.00  0.00    -0.392 OA
ATOM     18  H   UNL     1       7.530   5.836  -1.933  0.00  0.00    +0.210 HD
ENDBRANCH  16  17
ENDBRANCH  13  16
ENDBRANCH   9  11
TORSDOF 3
