REMARK  Name = 
REMARK  4 active torsions:
REMARK  status: ('A' for Active; 'I' for Inactive)
REMARK    1  A    between atoms: C_1  and  C_2
REMARK    2  A    between atoms: N_4  and  C_10
REMARK    3  A    between atoms: C_13  and  C_15
REMARK    4  A    between atoms: C_15  and  O_16
REMARK                            x       y       z     vdW  Elec       q    Type
REMARK                         _______ _______ _______ _____ _____    ______ ____
ROOT
ATOM      1  C   UNL     1       1.011   0.150   0.140  0.00  0.00    +0.051 C 
ATOM      2  C   UNL     1       2.501   0.173   0.038  0.00  0.00    +0.030 A 
ATOM      3  C   UNL     1       3.184  -1.142   0.026  0.00  0.00    +0.257 A 
ATOM      4  O   UNL     1       2.565  -2.201   0.020  0.00  0.00    -0.267 OA
ATOM      5  N   UNL     1       4.544  -1.105   0.006  0.00  0.00    -0.275 N 
ATOM      6  H   UNL     1       5.025  -1.991  -0.029  0.00  0.00    +0.173 HD
ATOM      7  C   UNL     1       5.313   0.011  -0.157  0.00  0.00    +0.332 A 
ATOM      8  O   UNL     1       6.528  -0.100  -0.312  0.00  0.00    -0.246 OA
ATOM      9  N   UNL     1       4.633   1.221  -0.162  0.00  0.00    -0.270 N 
ATOM     10  C   UNL     1       3.254   1.279  -0.057  0.00  0.00    +0.102 A 
ENDROOT
BRANCH   9  11
ATOM     11  C   UNL     1       5.452   2.395  -0.388  0.00  0.00    +0.248 C 
ATOM     12  O   UNL     1       4.864   3.608   0.128  0.00  0.00    -0.343 OA
ATOM     13  C   UNL     1       5.272   4.672  -0.769  0.00  0.00    +0.169 C 
ATOM     14  C   UNL     1       5.485   3.972  -2.071  0.00  0.00    +0.007 C 
ATOM     15  C   UNL     1       5.593   2.664  -1.847  0.00  0.00    +0.025 C 
BRANCH  13  16
ATOM     16  C   UNL     1       6.557   5.344  -0.249  0.00  0.00    +0.191 C 
BRANCH  16  17
ATOM     17  O   UNL     1       7.049   6.336  -1.146  0.00  0.00    -0.392 OA
ATOM     18  H   UNL     1       7.430   5.869  -1.910  0.00  0.00    +0.210 HD
ENDBRANCH  16  17
ENDBRANCH  13  16
ENDBRANCH   9  11
TORSDOF 3
