REMARK  Name = 
REMARK  7 active torsions:
REMARK  status: ('A' for Active; 'I' for Inactive)
REMARK    1  A    between atoms: C_1  and  C_2
REMARK    2  A    between atoms: C_4  and  C_25
REMARK    3  A    between atoms: C_6  and  C_24
REMARK    4  A    between atoms: C_7  and  N_8
REMARK    5  A    between atoms: N_15  and  C_16
REMARK    6  A    between atoms: C_19  and  C_22
REMARK    7  A    between atoms: C_26  and  C_27
REMARK                            x       y       z     vdW  Elec       q    Type
REMARK                         _______ _______ _______ _____ _____    ______ ____
ROOT
ATOM      1  N   UNL     1       2.365  -2.319  -0.014  0.00  0.00    -0.299 N 
ATOM      2  H   UNL     1       2.852  -3.153   0.289  0.00  0.00    +0.154 HD
ATOM      3  C   UNL     1       0.969  -2.522   0.079  0.00  0.00    +0.128 A 
ATOM      4  C   UNL     1       0.427  -3.658  -0.484  0.00  0.00    +0.063 A 
ATOM      5  C   UNL     1      -0.937  -3.799  -0.386  0.00  0.00    +0.118 A 
ATOM      6  N   UNL     1      -1.737  -2.904   0.219  0.00  0.00    -0.223 NA
ATOM      7  C   UNL     1      -1.139  -1.822   0.738  0.00  0.00    +0.221 A 
ATOM      8  N   UNL     1      -1.974  -0.880   1.343  0.00  0.00    -0.284 N 
ATOM      9  H   UNL     1      -2.930  -1.202   1.313  0.00  0.00    +0.155 HD
ATOM     10  N   UNL     1       0.186  -1.626   0.687  0.00  0.00    -0.199 NA
ENDROOT
BRANCH   1  13
ATOM     11  C   UNL     1       1.668   0.295  -1.387  0.00  0.00    +0.046 C 
ATOM     12  C   UNL     1       2.875   0.058  -0.521  0.00  0.00    -0.028 A 
ATOM     13  C   UNL     1       3.141  -1.143   0.172  0.00  0.00    +0.038 A 
ATOM     14  C   UNL     1       4.286  -1.181   1.016  0.00  0.00    -0.028 A 
ATOM     15  C   UNL     1       4.544  -2.328   1.965  0.00  0.00    +0.046 C 
ATOM     16  C   UNL     1       5.219  -0.116   1.013  0.00  0.00    +0.013 A 
ATOM     17  C   UNL     1       5.015   1.020   0.231  0.00  0.00    -0.024 A 
ATOM     18  C   UNL     1       3.830   1.096  -0.503  0.00  0.00    +0.013 A 
BRANCH  17  19
ATOM     19  C   UNL     1       5.980   2.118   0.046  0.00  0.00    +0.019 C 
ATOM     20  C   UNL     1       6.858   2.659   0.902  0.00  0.00    +0.089 C 
BRANCH  20  21
ATOM     21  C   UNL     1       7.061   2.256   2.244  0.00  0.00    +0.091 C 
ATOM     22  N   UNL     1       7.261   1.934   3.338  0.00  0.00    -0.191 NA
ENDBRANCH  20  21
ENDBRANCH  17  19
ENDBRANCH   1  13
BRANCH   8  23
ATOM     23  C   UNL     1      -1.733   0.431   1.775  0.00  0.00    +0.034 A 
ATOM     24  C   UNL     1      -2.805   1.224   2.211  0.00  0.00    +0.024 A 
ATOM     25  C   UNL     1      -2.610   2.560   2.580  0.00  0.00    +0.020 A 
ATOM     26  C   UNL     1      -1.340   3.130   2.527  0.00  0.00    +0.052 A 
ATOM     27  C   UNL     1      -0.256   2.348   2.143  0.00  0.00    +0.020 A 
ATOM     28  C   UNL     1      -0.458   1.014   1.787  0.00  0.00    +0.024 A 
BRANCH  26  29
ATOM     29  C   UNL     1      -1.134   4.512   2.846  0.00  0.00    +0.099 C 
ATOM     30  N   UNL     1      -0.962   5.638   3.078  0.00  0.00    -0.191 NA
ENDBRANCH  26  29
ENDBRANCH   8  23
TORSDOF 5
