REMARK  Name = 
REMARK  5 active torsions:
REMARK  status: ('A' for Active; 'I' for Inactive)
REMARK    1  A    between atoms: C_1  and  C_2
REMARK    2  A    between atoms: N_4  and  C_10
REMARK    3  A    between atoms: C_14  and  O_21
REMARK    4  A    between atoms: C_16  and  C_19
REMARK    5  A    between atoms: C_19  and  O_20
REMARK                            x       y       z     vdW  Elec       q    Type
REMARK                         _______ _______ _______ _____ _____    ______ ____
ROOT
ATOM      1  C   UNL     1       5.355   2.805  -0.587  0.00  0.00    +0.260 C 
ATOM      2  O   UNL     1       6.575   2.715   0.203  0.00  0.00    -0.345 OA
ATOM      3  C   UNL     1       6.775   3.974   0.888  0.00  0.00    +0.178 C 
ATOM      4  C   UNL     1       5.800   4.971   0.276  0.00  0.00    +0.184 C 
ATOM      5  C   UNL     1       4.647   4.066  -0.074  0.00  0.00    +0.246 C 
ATOM      6  F   UNL     1       4.001   3.753   1.100  0.00  0.00    -0.238 F 
ENDROOT
BRANCH   1  15
ATOM      7  C   UNL     1       8.203   0.731  -4.096  0.00  0.00    +0.051 C 
ATOM      8  C   UNL     1       7.102   1.640  -3.659  0.00  0.00    +0.030 A 
ATOM      9  C   UNL     1       6.279   2.268  -4.713  0.00  0.00    +0.257 A 
ATOM     10  O   UNL     1       6.431   2.007  -5.902  0.00  0.00    -0.267 OA
ATOM     11  N   UNL     1       5.313   3.124  -4.277  0.00  0.00    -0.275 N 
ATOM     12  H   UNL     1       4.696   3.491  -4.984  0.00  0.00    +0.173 HD
ATOM     13  C   UNL     1       4.887   3.242  -2.984  0.00  0.00    +0.331 A 
ATOM     14  O   UNL     1       3.803   3.767  -2.755  0.00  0.00    -0.246 OA
ATOM     15  N   UNL     1       5.735   2.727  -2.013  0.00  0.00    -0.271 N 
ATOM     16  C   UNL     1       6.789   1.900  -2.384  0.00  0.00    +0.102 A 
ENDBRANCH   1  15
BRANCH   4  17
ATOM     17  O   UNL     1       5.427   6.001   1.187  0.00  0.00    -0.386 OA
ATOM     18  H   UNL     1       4.699   5.652   1.738  0.00  0.00    +0.210 HD
ENDBRANCH   4  17
BRANCH   3  19
ATOM     19  C   UNL     1       8.235   4.404   0.747  0.00  0.00    +0.190 C 
BRANCH  19  20
ATOM     20  O   UNL     1       8.602   4.518  -0.628  0.00  0.00    -0.392 OA
ATOM     21  H   UNL     1       8.455   3.639  -1.021  0.00  0.00    +0.210 HD
ENDBRANCH  19  20
ENDBRANCH   3  19
TORSDOF 4
