REMARK  Name = 
REMARK  7 active torsions:
REMARK  status: ('A' for Active; 'I' for Inactive)
REMARK    1  A    between atoms: C_1  and  C_2
REMARK    2  A    between atoms: C_4  and  C_25
REMARK    3  A    between atoms: C_6  and  C_24
REMARK    4  A    between atoms: C_7  and  N_8
REMARK    5  A    between atoms: N_15  and  C_16
REMARK    6  A    between atoms: C_19  and  C_22
REMARK    7  A    between atoms: C_26  and  C_27
REMARK                            x       y       z     vdW  Elec       q    Type
REMARK                         _______ _______ _______ _____ _____    ______ ____
ROOT
ATOM      1  N   UNL     1       2.465  -2.447  -0.019  0.00  0.00    -0.299 N 
ATOM      2  H   UNL     1       2.943  -3.278   0.306  0.00  0.00    +0.154 HD
ATOM      3  C   UNL     1       1.069  -2.646   0.079  0.00  0.00    +0.128 A 
ATOM      4  C   UNL     1       0.521  -3.776  -0.490  0.00  0.00    +0.063 A 
ATOM      5  C   UNL     1      -0.843  -3.917  -0.383  0.00  0.00    +0.118 A 
ATOM      6  N   UNL     1      -1.636  -3.026   0.239  0.00  0.00    -0.223 NA
ATOM      7  C   UNL     1      -1.032  -1.951   0.764  0.00  0.00    +0.221 A 
ATOM      8  N   UNL     1      -1.861  -1.012   1.381  0.00  0.00    -0.284 N 
ATOM      9  H   UNL     1      -2.820  -1.325   1.338  0.00  0.00    +0.155 HD
ATOM     10  N   UNL     1       0.293  -1.756   0.704  0.00  0.00    -0.199 NA
ENDROOT
BRANCH   1  13
ATOM     11  C   UNL     1       1.770   0.162  -1.391  0.00  0.00    +0.046 C 
ATOM     12  C   UNL     1       2.977  -0.069  -0.522  0.00  0.00    -0.028 A 
ATOM     13  C   UNL     1       3.242  -1.271   0.169  0.00  0.00    +0.038 A 
ATOM     14  C   UNL     1       4.390  -1.315   1.008  0.00  0.00    -0.028 A 
ATOM     15  C   UNL     1       4.649  -2.466   1.949  0.00  0.00    +0.046 C 
ATOM     16  C   UNL     1       5.325  -0.251   1.002  0.00  0.00    +0.013 A 
ATOM     17  C   UNL     1       5.118   0.891   0.230  0.00  0.00    -0.024 A 
ATOM     18  C   UNL     1       3.929   0.971  -0.497  0.00  0.00    +0.013 A 
BRANCH  17  19
ATOM     19  C   UNL     1       6.086   1.987   0.045  0.00  0.00    +0.019 C 
ATOM     20  C   UNL     1       6.985   2.511   0.890  0.00  0.00    +0.089 C 
BRANCH  20  21
ATOM     21  C   UNL     1       7.221   2.094   2.223  0.00  0.00    +0.091 C 
ATOM     22  N   UNL     1       7.450   1.756   3.311  0.00  0.00    -0.191 NA
ENDBRANCH  20  21
ENDBRANCH  17  19
ENDBRANCH   1  13
BRANCH   8  23
ATOM     23  C   UNL     1      -1.617   0.301   1.807  0.00  0.00    +0.034 A 
ATOM     24  C   UNL     1      -2.685   1.095   2.250  0.00  0.00    +0.024 A 
ATOM     25  C   UNL     1      -2.488   2.433   2.623  0.00  0.00    +0.020 A 
ATOM     26  C   UNL     1      -1.211   2.999   2.563  0.00  0.00    +0.052 A 
ATOM     27  C   UNL     1      -0.134   2.212   2.172  0.00  0.00    +0.020 A 
ATOM     28  C   UNL     1      -0.341   0.880   1.815  0.00  0.00    +0.024 A 
BRANCH  26  29
ATOM     29  C   UNL     1      -1.001   4.378   2.881  0.00  0.00    +0.099 C 
ATOM     30  N   UNL     1      -0.818   5.499   3.119  0.00  0.00    -0.191 NA
ENDBRANCH  26  29
ENDBRANCH   8  23
TORSDOF 5
