REMARK  Name = 
REMARK  5 active torsions:
REMARK  status: ('A' for Active; 'I' for Inactive)
REMARK    1  A    between atoms: C_1  and  C_2
REMARK    2  A    between atoms: N_4  and  C_10
REMARK    3  A    between atoms: C_14  and  O_21
REMARK    4  A    between atoms: C_16  and  C_19
REMARK    5  A    between atoms: C_19  and  O_20
REMARK                            x       y       z     vdW  Elec       q    Type
REMARK                         _______ _______ _______ _____ _____    ______ ____
ROOT
ATOM      1  C   UNL     1       5.223   2.785  -0.667  0.00  0.00    +0.260 C 
ATOM      2  O   UNL     1       6.444   2.690   0.122  0.00  0.00    -0.345 OA
ATOM      3  C   UNL     1       6.645   3.946   0.812  0.00  0.00    +0.178 C 
ATOM      4  C   UNL     1       5.671   4.947   0.206  0.00  0.00    +0.184 C 
ATOM      5  C   UNL     1       4.518   4.044  -0.150  0.00  0.00    +0.246 C 
ATOM      6  F   UNL     1       3.871   3.727   1.023  0.00  0.00    -0.238 F 
ENDROOT
BRANCH   1  15
ATOM      7  C   UNL     1       8.063   0.710  -4.183  0.00  0.00    +0.051 C 
ATOM      8  C   UNL     1       6.964   1.620  -3.743  0.00  0.00    +0.030 A 
ATOM      9  C   UNL     1       6.142   2.253  -4.797  0.00  0.00    +0.257 A 
ATOM     10  O   UNL     1       6.288   1.988  -5.985  0.00  0.00    -0.267 OA
ATOM     11  N   UNL     1       5.182   3.114  -4.358  0.00  0.00    -0.275 N 
ATOM     12  H   UNL     1       4.566   3.486  -5.064  0.00  0.00    +0.173 HD
ATOM     13  C   UNL     1       4.758   3.234  -3.064  0.00  0.00    +0.331 A 
ATOM     14  O   UNL     1       3.677   3.767  -2.833  0.00  0.00    -0.246 OA
ATOM     15  N   UNL     1       5.603   2.711  -2.094  0.00  0.00    -0.271 N 
ATOM     16  C   UNL     1       6.652   1.879  -2.467  0.00  0.00    +0.102 A 
ENDBRANCH   1  15
BRANCH   4  17
ATOM     17  O   UNL     1       5.299   5.972   1.122  0.00  0.00    -0.386 OA
ATOM     18  H   UNL     1       4.572   5.620   1.671  0.00  0.00    +0.210 HD
ENDBRANCH   4  17
BRANCH   3  19
ATOM     19  C   UNL     1       8.105   4.375   0.673  0.00  0.00    +0.190 C 
BRANCH  19  20
ATOM     20  O   UNL     1       8.472   4.498  -0.702  0.00  0.00    -0.392 OA
ATOM     21  H   UNL     1       8.326   3.622  -1.101  0.00  0.00    +0.210 HD
ENDBRANCH  19  20
ENDBRANCH   3  19
TORSDOF 4
