REMARK  Name = 
REMARK  5 active torsions:
REMARK  status: ('A' for Active; 'I' for Inactive)
REMARK    1  A    between atoms: C_1  and  C_2
REMARK    2  A    between atoms: N_4  and  C_10
REMARK    3  A    between atoms: C_14  and  O_21
REMARK    4  A    between atoms: C_16  and  C_19
REMARK    5  A    between atoms: C_19  and  O_20
REMARK                            x       y       z     vdW  Elec       q    Type
REMARK                         _______ _______ _______ _____ _____    ______ ____
ROOT
ATOM      1  C   UNL     1       5.260   2.517  -0.314  0.00  0.00    +0.260 C 
ATOM      2  O   UNL     1       6.434   2.643   0.509  0.00  0.00    -0.345 OA
ATOM      3  C   UNL     1       6.619   4.045   0.815  0.00  0.00    +0.178 C 
ATOM      4  C   UNL     1       5.516   4.819   0.081  0.00  0.00    +0.184 C 
ATOM      5  C   UNL     1       4.430   3.779  -0.124  0.00  0.00    +0.246 C 
ATOM      6  F   UNL     1       3.731   4.054  -1.258  0.00  0.00    -0.238 F 
ENDROOT
BRANCH   1  15
ATOM      7  C   UNL     1       3.779  -1.957  -1.874  0.00  0.00    +0.051 C 
ATOM      8  C   UNL     1       3.916  -0.899  -0.827  0.00  0.00    +0.030 A 
ATOM      9  C   UNL     1       3.436  -1.224   0.536  0.00  0.00    +0.257 A 
ATOM     10  O   UNL     1       2.979  -2.325   0.820  0.00  0.00    -0.267 OA
ATOM     11  N   UNL     1       3.540  -0.222   1.455  0.00  0.00    -0.275 N 
ATOM     12  H   UNL     1       3.230  -0.432   2.390  0.00  0.00    +0.173 HD
ATOM     13  C   UNL     1       4.140   0.995   1.260  0.00  0.00    +0.331 A 
ATOM     14  O   UNL     1       4.252   1.778   2.203  0.00  0.00    -0.246 OA
ATOM     15  N   UNL     1       4.592   1.246  -0.026  0.00  0.00    -0.271 N 
ATOM     16  C   UNL     1       4.453   0.310  -1.034  0.00  0.00    +0.102 A 
ENDBRANCH   1  15
BRANCH   4  17
ATOM     17  O   UNL     1       5.062   5.984   0.759  0.00  0.00    -0.386 OA
ATOM     18  H   UNL     1       4.720   5.703   1.634  0.00  0.00    +0.210 HD
ENDBRANCH   4  17
BRANCH   3  19
ATOM     19  C   UNL     1       6.644   4.245   2.333  0.00  0.00    +0.190 C 
BRANCH  19  20
ATOM     20  O   UNL     1       5.339   4.102   2.889  0.00  0.00    -0.392 OA
ATOM     21  H   UNL     1       5.101   3.148   2.824  0.00  0.00    +0.210 HD
ENDBRANCH  19  20
ENDBRANCH   3  19
TORSDOF 4
