REMARK  Name = 
REMARK  5 active torsions:
REMARK  status: ('A' for Active; 'I' for Inactive)
REMARK    1  A    between atoms: C_1  and  C_2
REMARK    2  A    between atoms: N_4  and  C_10
REMARK    3  A    between atoms: C_14  and  O_21
REMARK    4  A    between atoms: C_16  and  C_19
REMARK    5  A    between atoms: C_19  and  O_20
REMARK                            x       y       z     vdW  Elec       q    Type
REMARK                         _______ _______ _______ _____ _____    ______ ____
ROOT
ATOM      1  C   UNL     1       5.341   2.395  -0.324  0.00  0.00    +0.260 C 
ATOM      2  O   UNL     1       6.433   2.489   0.619  0.00  0.00    -0.345 OA
ATOM      3  C   UNL     1       6.642   3.890   0.928  0.00  0.00    +0.178 C 
ATOM      4  C   UNL     1       5.668   4.692   0.062  0.00  0.00    +0.184 C 
ATOM      5  C   UNL     1       4.554   3.700  -0.207  0.00  0.00    +0.246 C 
ATOM      6  F   UNL     1       3.923   4.018  -1.363  0.00  0.00    -0.238 F 
ENDROOT
BRANCH   1  15
ATOM      7  C   UNL     1       3.548  -1.092   2.763  0.00  0.00    +0.051 C 
ATOM      8  C   UNL     1       3.673  -0.441   1.424  0.00  0.00    +0.030 A 
ATOM      9  C   UNL     1       2.834  -0.969   0.325  0.00  0.00    +0.257 A 
ATOM     10  O   UNL     1       2.051  -1.898   0.498  0.00  0.00    -0.267 OA
ATOM     11  N   UNL     1       2.981  -0.353  -0.882  0.00  0.00    -0.275 N 
ATOM     12  H   UNL     1       2.415  -0.693  -1.642  0.00  0.00    +0.173 HD
ATOM     13  C   UNL     1       3.772   0.733  -1.147  0.00  0.00    +0.331 A 
ATOM     14  O   UNL     1       3.774   1.235  -2.267  0.00  0.00    -0.246 OA
ATOM     15  N   UNL     1       4.539   1.194  -0.084  0.00  0.00    -0.271 N 
ATOM     16  C   UNL     1       4.483   0.590   1.157  0.00  0.00    +0.102 A 
ENDBRANCH   1  15
BRANCH   4  17
ATOM     17  O   UNL     1       5.232   5.911   0.651  0.00  0.00    -0.386 OA
ATOM     18  H   UNL     1       4.655   5.696   1.410  0.00  0.00    +0.210 HD
ENDBRANCH   4  17
BRANCH   3  19
ATOM     19  C   UNL     1       6.473   4.092   2.436  0.00  0.00    +0.190 C 
BRANCH  19  20
ATOM     20  O   UNL     1       5.128   3.816   2.829  0.00  0.00    -0.392 OA
ATOM     21  H   UNL     1       5.072   2.851   2.945  0.00  0.00    +0.210 HD
ENDBRANCH  19  20
ENDBRANCH   3  19
TORSDOF 4
