REMARK  Name = 
REMARK  12 active torsions:
REMARK  status: ('A' for Active; 'I' for Inactive)
REMARK    1  A    between atoms: C_1  and  C_2
REMARK    2  A    between atoms: C_2  and  C_3
REMARK    3  A    between atoms: C_2  and  C_4
REMARK    4  A    between atoms: C_4  and  C_6
REMARK    5  A    between atoms: C_4  and  N_8
REMARK    6  A    between atoms: C_6  and  O_7
REMARK    7  A    between atoms: C_10  and  C_30
REMARK    8  A    between atoms: C_16  and  O_28
REMARK    9  A    between atoms: C_17  and  C_19
REMARK   10  A    between atoms: C_19  and  C_20
REMARK   11  A    between atoms: O_28  and  C_29
REMARK   12  A    between atoms: C_30  and  O_32
REMARK                            x       y       z     vdW  Elec       q    Type
REMARK                         _______ _______ _______ _____ _____    ______ ____
ROOT
ATOM      1  N   UNL     1       4.530  -1.162   0.807  0.00  0.00    -0.340 N 
ATOM      2  C   UNL     1       5.205  -2.411   0.708  0.00  0.00    +0.057 A 
ATOM      3  C   UNL     1       4.614  -3.677   0.838  0.00  0.00    +0.072 A 
ATOM      4  C   UNL     1       5.360  -4.896   0.911  0.00  0.00    +0.126 A 
ATOM      5  C   UNL     1       6.757  -4.873   0.787  0.00  0.00    -0.001 A 
ATOM      6  C   UNL     1       7.348  -3.622   0.537  0.00  0.00    +0.021 A 
ATOM      7  C   UNL     1       6.600  -2.433   0.536  0.00  0.00    +0.046 A 
ATOM      8  C   UNL     1       7.354  -1.167   0.454  0.00  0.00    +0.203 A 
ATOM      9  O   UNL     1       8.548  -1.135   0.165  0.00  0.00    -0.286 OA
ATOM     10  C   UNL     1       6.648   0.067   0.818  0.00  0.00    +0.122 A 
ATOM     11  C   UNL     1       5.317  -0.016   0.954  0.00  0.00    +0.105 A 
ENDROOT
BRANCH   4  12
ATOM     12  O   UNL     1       4.516  -5.950   1.129  0.00  0.00    -0.495 OA
ATOM     13  C   UNL     1       4.995  -7.271   1.291  0.00  0.00    +0.277 C 
ENDBRANCH   4  12
BRANCH  10  14
ATOM     14  C   UNL     1       7.340   1.350   1.048  0.00  0.00    +0.342 C 
ATOM     15  O   UNL     1       6.757   2.373   1.364  0.00  0.00    -0.245 OA
BRANCH  14  16
ATOM     16  O   UNL     1       8.684   1.295   0.904  0.00  0.00    -0.477 OA
ATOM     17  H   UNL     1       9.026   0.418   0.599  0.00  0.00    +0.295 HD
ENDBRANCH  14  16
ENDBRANCH  10  14
BRANCH   1  18
ATOM     18  C   UNL     1       3.022  -1.077   0.843  0.00  0.00    +0.115 C 
BRANCH  18  20
ATOM     19  C   UNL     1       0.954  -0.598   2.303  0.00  0.00    +0.009 C 
ATOM     20  C   UNL     1       2.491  -0.628   2.247  0.00  0.00    +0.008 C 
ATOM     21  C   UNL     1       3.009  -1.508   3.387  0.00  0.00    +0.009 C 
ENDBRANCH  18  20
BRANCH  18  22
ATOM     22  C   UNL     1       2.508  -0.096  -0.256  0.00  0.00    +0.181 C 
BRANCH  22  23
ATOM     23  O   UNL     1       2.901  -0.490  -1.568  0.00  0.00    -0.393 OA
ATOM     24  H   UNL     1       3.800  -0.143  -1.707  0.00  0.00    +0.209 HD
ENDBRANCH  22  23
ENDBRANCH  18  22
ENDBRANCH   1  18
BRANCH   5  25
ATOM     25  C   UNL     1       7.742  -6.019   0.943  0.00  0.00    +0.077 C 
BRANCH  25  26
ATOM     26  C   UNL     1       8.328  -6.277   2.324  0.00  0.00    -0.006 A 
ATOM     27  C   UNL     1       8.061  -5.503   3.464  0.00  0.00    +0.007 A 
ATOM     28  C   UNL     1       8.681  -5.795   4.691  0.00  0.00    +0.002 A 
ATOM     29  C   UNL     1       9.575  -6.861   4.797  0.00  0.00    +0.023 A 
ATOM     30  C   UNL     1       9.849  -7.638   3.675  0.00  0.00    +0.076 A 
ATOM     31 CL   UNL     1      10.956  -8.951   3.804  0.00  0.00    -0.081 Cl
ATOM     32  C   UNL     1       9.231  -7.344   2.459  0.00  0.00    +0.145 A 
ATOM     33  F   UNL     1       9.506  -8.095   1.372  0.00  0.00    -0.204 F 
ENDBRANCH  25  26
ENDBRANCH   5  25
TORSDOF 9
