REMARK  Name = 
REMARK  12 active torsions:
REMARK  status: ('A' for Active; 'I' for Inactive)
REMARK    1  A    between atoms: C_1  and  C_2
REMARK    2  A    between atoms: C_2  and  C_3
REMARK    3  A    between atoms: C_2  and  C_4
REMARK    4  A    between atoms: C_4  and  C_6
REMARK    5  A    between atoms: C_4  and  N_8
REMARK    6  A    between atoms: C_6  and  O_7
REMARK    7  A    between atoms: C_10  and  C_30
REMARK    8  A    between atoms: C_16  and  O_28
REMARK    9  A    between atoms: C_17  and  C_19
REMARK   10  A    between atoms: C_19  and  C_20
REMARK   11  A    between atoms: O_28  and  C_29
REMARK   12  A    between atoms: C_30  and  O_32
REMARK                            x       y       z     vdW  Elec       q    Type
REMARK                         _______ _______ _______ _____ _____    ______ ____
ROOT
ATOM      1  N   UNL     1       4.382  -0.942   0.990  0.00  0.00    -0.340 N 
ATOM      2  C   UNL     1       5.063  -2.187   0.892  0.00  0.00    +0.057 A 
ATOM      3  C   UNL     1       4.477  -3.457   1.005  0.00  0.00    +0.072 A 
ATOM      4  C   UNL     1       5.226  -4.674   1.065  0.00  0.00    +0.126 A 
ATOM      5  C   UNL     1       6.623  -4.645   0.944  0.00  0.00    -0.001 A 
ATOM      6  C   UNL     1       7.212  -3.388   0.719  0.00  0.00    +0.021 A 
ATOM      7  C   UNL     1       6.461  -2.200   0.735  0.00  0.00    +0.046 A 
ATOM      8  C   UNL     1       7.212  -0.932   0.684  0.00  0.00    +0.203 A 
ATOM      9  O   UNL     1       8.416  -0.894   0.434  0.00  0.00    -0.286 OA
ATOM     10  C   UNL     1       6.493   0.298   1.022  0.00  0.00    +0.122 A 
ATOM     11  C   UNL     1       5.160   0.208   1.136  0.00  0.00    +0.105 A 
ENDROOT
BRANCH   4  12
ATOM     12  O   UNL     1       4.385  -5.734   1.267  0.00  0.00    -0.495 OA
ATOM     13  C   UNL     1       4.868  -7.055   1.419  0.00  0.00    +0.277 C 
ENDBRANCH   4  12
BRANCH  10  14
ATOM     14  C   UNL     1       7.169   1.589   1.248  0.00  0.00    +0.342 C 
ATOM     15  O   UNL     1       6.572   2.611   1.552  0.00  0.00    -0.245 OA
BRANCH  14  16
ATOM     16  O   UNL     1       8.515   1.554   1.131  0.00  0.00    -0.477 OA
ATOM     17  H   UNL     1       8.869   0.675   0.846  0.00  0.00    +0.295 HD
ENDBRANCH  14  16
ENDBRANCH  10  14
BRANCH   1  18
ATOM     18  C   UNL     1       2.872  -0.863   1.007  0.00  0.00    +0.115 C 
BRANCH  18  20
ATOM     19  C   UNL     1       0.783  -0.319   2.414  0.00  0.00    +0.009 C 
ATOM     20  C   UNL     1       2.321  -0.335   2.376  0.00  0.00    +0.008 C 
ATOM     21  C   UNL     1       2.835  -1.141   3.571  0.00  0.00    +0.009 C 
ENDBRANCH  18  20
BRANCH  18  22
ATOM     22  C   UNL     1       2.368   0.048  -0.153  0.00  0.00    +0.181 C 
BRANCH  22  23
ATOM     23  O   UNL     1       2.804  -0.404  -1.432  0.00  0.00    -0.393 OA
ATOM     24  H   UNL     1       3.723  -0.102  -1.535  0.00  0.00    +0.209 HD
ENDBRANCH  22  23
ENDBRANCH  18  22
ENDBRANCH   1  18
BRANCH   5  25
ATOM     25  C   UNL     1       7.607  -5.794   1.080  0.00  0.00    +0.077 C 
BRANCH  25  26
ATOM     26  C   UNL     1       8.189  -6.079   2.456  0.00  0.00    -0.006 A 
ATOM     27  C   UNL     1       7.924  -5.327   3.612  0.00  0.00    +0.007 A 
ATOM     28  C   UNL     1       8.534  -5.649   4.834  0.00  0.00    +0.002 A 
ATOM     29  C   UNL     1       9.420  -6.727   4.920  0.00  0.00    +0.023 A 
ATOM     30  C   UNL     1       9.695  -7.479   3.781  0.00  0.00    +0.076 A 
ATOM     31 CL   UNL     1      10.791  -8.803   3.888  0.00  0.00    -0.081 Cl
ATOM     32  C   UNL     1       9.086  -7.154   2.568  0.00  0.00    +0.145 A 
ATOM     33  F   UNL     1       9.362  -7.878   1.470  0.00  0.00    -0.204 F 
ENDBRANCH  25  26
ENDBRANCH   5  25
TORSDOF 9
