REMARK  Name = 
REMARK  16 active torsions:
REMARK  status: ('A' for Active; 'I' for Inactive)
REMARK    1  A    between atoms: C_1  and  C_2
REMARK    2  A    between atoms: C_3  and  C_9
REMARK    3  A    between atoms: C_7  and  O_8
REMARK    4  A    between atoms: N_11  and  C_12
REMARK    5  A    between atoms: C_12  and  C_14
REMARK    6  A    between atoms: C_12  and  C_22
REMARK    7  A    between atoms: C_14  and  S_15
REMARK    8  A    between atoms: S_15  and  C_16
REMARK    9  A    between atoms: C_22  and  C_24
REMARK   10  A    between atoms: C_22  and  O_45
REMARK   11  A    between atoms: C_24  and  N_25
REMARK   12  A    between atoms: C_36  and  C_38
REMARK   13  A    between atoms: N_40  and  C_41
REMARK   14  A    between atoms: C_41  and  C_42
REMARK   15  A    between atoms: C_41  and  C_43
REMARK   16  A    between atoms: C_41  and  C_44
REMARK                            x       y       z     vdW  Elec       q    Type
REMARK                         _______ _______ _______ _____ _____    ______ ____
ROOT
ATOM      1  C   UNL     1      -1.048   2.085  -1.283  0.00  0.00    +0.113 C 
ENDROOT
BRANCH   1   3
ATOM      2  C   UNL     1       1.330   1.072  -1.012  0.00  0.00    +0.245 C 
ATOM      3  N   UNL     1      -0.056   0.997  -1.050  0.00  0.00    -0.305 N 
ATOM      4  H   UNL     1      -0.478   0.136  -0.766  0.00  0.00    +0.149 HD
ATOM      5  O   UNL     1       1.931   2.122  -1.216  0.00  0.00    -0.270 OA
BRANCH   2  12
ATOM      6  C   UNL     1       4.306   0.589  -1.690  0.00  0.00    +0.048 C 
ATOM      7  C   UNL     1       3.478  -0.377  -0.883  0.00  0.00    +0.003 A 
ATOM      8  C   UNL     1       4.135  -1.512  -0.351  0.00  0.00    +0.120 A 
ATOM      9  C   UNL     1       3.444  -2.527   0.302  0.00  0.00    +0.046 A 
ATOM     10  C   UNL     1       2.073  -2.411   0.460  0.00  0.00    +0.004 A 
ATOM     11  C   UNL     1       1.412  -1.258   0.019  0.00  0.00    +0.013 A 
ATOM     12  C   UNL     1       2.089  -0.209  -0.644  0.00  0.00    +0.043 A 
BRANCH   8  13
ATOM     13  O   UNL     1       5.495  -1.618  -0.485  0.00  0.00    -0.506 OA
ATOM     14  H   UNL     1       5.794  -2.456  -0.095  0.00  0.00    +0.292 HD
ENDBRANCH   8  13
ENDBRANCH   2  12
ENDBRANCH   1   3
BRANCH   1  15
ATOM     15  C   UNL     1      -1.425   2.983  -0.059  0.00  0.00    +0.149 C 
BRANCH  15  16
ATOM     16  O   UNL     1      -2.560   3.824  -0.371  0.00  0.00    -0.389 OA
ATOM     17  H   UNL     1      -2.670   4.446   0.374  0.00  0.00    +0.210 HD
ENDBRANCH  15  16
BRANCH  15  18
ATOM     18  C   UNL     1      -1.819   2.135   1.181  0.00  0.00    +0.118 C 
BRANCH  18  19
ATOM     19  N   UNL     1      -0.726   1.279   1.640  0.00  0.00    -0.289 NA
ATOM     20  C   UNL     1      -1.029   0.309   2.717  0.00  0.00    +0.143 C 
ATOM     21  C   UNL     1      -1.089   0.976   4.101  0.00  0.00    +0.032 C 
ATOM     22  C   UNL     1       0.135   1.848   4.426  0.00  0.00    -0.005 C 
ATOM     23  C   UNL     1       0.441   2.843   3.312  0.00  0.00    +0.006 C 
ATOM     24  C   UNL     1      -0.398   4.143   3.350  0.00  0.00    +0.005 C 
ATOM     25  C   UNL     1      -1.425   4.317   4.479  0.00  0.00    +0.000 C 
ATOM     26  C   UNL     1      -1.237   3.489   5.750  0.00  0.00    +0.000 C 
ATOM     27  C   UNL     1      -0.006   2.601   5.742  0.00  0.00    +0.004 C 
ATOM     28  C   UNL     1       0.484   2.067   1.985  0.00  0.00    +0.089 C 
BRANCH  20  29
ATOM     29  C   UNL     1      -2.304  -0.551   2.519  0.00  0.00    +0.231 C 
ATOM     30  N   UNL     1      -2.664  -0.922   1.234  0.00  0.00    -0.309 N 
ATOM     31  H   UNL     1      -2.150  -0.500   0.474  0.00  0.00    +0.149 HD
ATOM     32  O   UNL     1      -2.925  -0.967   3.493  0.00  0.00    -0.274 OA
BRANCH  30  33
ATOM     33  C   UNL     1      -3.868  -1.730   0.920  0.00  0.00    +0.026 C 
ATOM     34  C   UNL     1      -3.695  -3.160   1.460  0.00  0.00    +0.031 C 
ATOM     35  C   UNL     1      -4.061  -1.825  -0.608  0.00  0.00    +0.031 C 
ATOM     36  C   UNL     1      -5.154  -1.100   1.495  0.00  0.00    +0.031 C 
ENDBRANCH  30  33
ENDBRANCH  20  29
ENDBRANCH  18  19
ENDBRANCH  15  18
ENDBRANCH   1  15
BRANCH   1  37
ATOM     37  C   UNL     1      -0.717   2.952  -2.496  0.00  0.00    +0.099 C 
BRANCH  37  38
ATOM     38  S   UNL     1      -0.632   1.893  -3.985  0.00  0.00    -0.123 S 
BRANCH  38  39
ATOM     39  C   UNL     1      -0.145   3.163  -5.111  0.00  0.00    +0.008 A 
ATOM     40  C   UNL     1      -1.125   3.913  -5.762  0.00  0.00    +0.015 A 
ATOM     41  C   UNL     1      -0.753   4.953  -6.608  0.00  0.00    +0.001 A 
ATOM     42  C   UNL     1       0.599   5.238  -6.802  0.00  0.00    +0.000 A 
ATOM     43  C   UNL     1       1.578   4.490  -6.150  0.00  0.00    +0.001 A 
ATOM     44  C   UNL     1       1.208   3.451  -5.300  0.00  0.00    +0.015 A 
ENDBRANCH  38  39
ENDBRANCH  37  38
ENDBRANCH   1  37
TORSDOF 12
