REMARK  Name = 
REMARK  16 active torsions:
REMARK  status: ('A' for Active; 'I' for Inactive)
REMARK    1  A    between atoms: C_1  and  C_2
REMARK    2  A    between atoms: C_3  and  C_9
REMARK    3  A    between atoms: C_7  and  O_8
REMARK    4  A    between atoms: N_11  and  C_12
REMARK    5  A    between atoms: C_12  and  C_14
REMARK    6  A    between atoms: C_12  and  C_22
REMARK    7  A    between atoms: C_14  and  S_15
REMARK    8  A    between atoms: S_15  and  C_16
REMARK    9  A    between atoms: C_22  and  C_24
REMARK   10  A    between atoms: C_22  and  O_45
REMARK   11  A    between atoms: C_24  and  N_25
REMARK   12  A    between atoms: C_36  and  C_38
REMARK   13  A    between atoms: N_40  and  C_41
REMARK   14  A    between atoms: C_41  and  C_42
REMARK   15  A    between atoms: C_41  and  C_43
REMARK   16  A    between atoms: C_41  and  C_44
REMARK                            x       y       z     vdW  Elec       q    Type
REMARK                         _______ _______ _______ _____ _____    ______ ____
ROOT
ATOM      1  C   UNL     1      -0.971   2.225  -1.351  0.00  0.00    +0.113 C 
ENDROOT
BRANCH   1   3
ATOM      2  C   UNL     1       1.422   1.251  -1.073  0.00  0.00    +0.245 C 
ATOM      3  N   UNL     1       0.039   1.149  -1.141  0.00  0.00    -0.305 N 
ATOM      4  H   UNL     1      -0.366   0.251  -0.970  0.00  0.00    +0.149 HD
ATOM      5  O   UNL     1       2.004   2.318  -1.229  0.00  0.00    -0.270 OA
BRANCH   2  12
ATOM      6  C   UNL     1       4.392   0.810  -1.782  0.00  0.00    +0.048 C 
ATOM      7  C   UNL     1       3.579  -0.184  -0.995  0.00  0.00    +0.003 A 
ATOM      8  C   UNL     1       4.240  -1.326  -0.492  0.00  0.00    +0.120 A 
ATOM      9  C   UNL     1       3.560  -2.354   0.152  0.00  0.00    +0.046 A 
ATOM     10  C   UNL     1       2.189  -2.240   0.336  0.00  0.00    +0.004 A 
ATOM     11  C   UNL     1       1.522  -1.079  -0.074  0.00  0.00    +0.013 A 
ATOM     12  C   UNL     1       2.189  -0.025  -0.736  0.00  0.00    +0.043 A 
BRANCH   8  13
ATOM     13  O   UNL     1       5.599  -1.428  -0.641  0.00  0.00    -0.506 OA
ATOM     14  H   UNL     1       5.904  -2.266  -0.255  0.00  0.00    +0.292 HD
ENDBRANCH   8  13
ENDBRANCH   2  12
ENDBRANCH   1   3
BRANCH   1  15
ATOM     15  C   UNL     1      -1.351   3.098  -0.113  0.00  0.00    +0.149 C 
BRANCH  15  16
ATOM     16  O   UNL     1      -2.500   3.916  -0.426  0.00  0.00    -0.389 OA
ATOM     17  H   UNL     1      -2.624   4.545   0.311  0.00  0.00    +0.210 HD
ENDBRANCH  15  16
BRANCH  15  18
ATOM     18  C   UNL     1      -1.742   2.240   1.123  0.00  0.00    +0.118 C 
BRANCH  18  19
ATOM     19  N   UNL     1      -0.650   1.387   1.589  0.00  0.00    -0.289 NA
ATOM     20  C   UNL     1      -0.961   0.419   2.664  0.00  0.00    +0.143 C 
ATOM     21  C   UNL     1      -1.031   1.080   4.051  0.00  0.00    +0.032 C 
ATOM     22  C   UNL     1       0.188   1.947   4.390  0.00  0.00    -0.005 C 
ATOM     23  C   UNL     1       0.510   2.945   3.274  0.00  0.00    +0.006 C 
ATOM     24  C   UNL     1      -0.322   4.250   3.316  0.00  0.00    +0.005 C 
ATOM     25  C   UNL     1      -1.368   4.416   4.427  0.00  0.00    +0.000 C 
ATOM     26  C   UNL     1      -1.190   3.592   5.701  0.00  0.00    +0.000 C 
ATOM     27  C   UNL     1       0.036   2.696   5.703  0.00  0.00    +0.004 C 
ATOM     28  C   UNL     1       0.558   2.180   1.944  0.00  0.00    +0.089 C 
BRANCH  20  29
ATOM     29  C   UNL     1      -2.234  -0.452   2.457  0.00  0.00    +0.231 C 
ATOM     30  N   UNL     1      -2.570  -0.822   1.166  0.00  0.00    -0.309 N 
ATOM     31  H   UNL     1      -2.023  -0.419   0.419  0.00  0.00    +0.149 HD
ATOM     32  O   UNL     1      -2.871  -0.863   3.428  0.00  0.00    -0.274 OA
BRANCH  30  33
ATOM     33  C   UNL     1      -3.758  -1.642   0.833  0.00  0.00    +0.026 C 
ATOM     34  C   UNL     1      -3.590  -3.069   1.383  0.00  0.00    +0.031 C 
ATOM     35  C   UNL     1      -3.917  -1.740  -0.698  0.00  0.00    +0.031 C 
ATOM     36  C   UNL     1      -5.056  -1.014   1.382  0.00  0.00    +0.031 C 
ENDBRANCH  30  33
ENDBRANCH  20  29
ENDBRANCH  18  19
ENDBRANCH  15  18
ENDBRANCH   1  15
BRANCH   1  37
ATOM     37  C   UNL     1      -0.650   3.109  -2.555  0.00  0.00    +0.099 C 
BRANCH  37  38
ATOM     38  S   UNL     1      -0.538   2.067  -4.058  0.00  0.00    -0.123 S 
BRANCH  38  39
ATOM     39  C   UNL     1      -0.074   3.358  -5.167  0.00  0.00    +0.008 A 
ATOM     40  C   UNL     1      -1.067   4.104  -5.807  0.00  0.00    +0.015 A 
ATOM     41  C   UNL     1      -0.714   5.163  -6.637  0.00  0.00    +0.001 A 
ATOM     42  C   UNL     1       0.632   5.474  -6.830  0.00  0.00    +0.000 A 
ATOM     43  C   UNL     1       1.625   4.734  -6.185  0.00  0.00    +0.001 A 
ATOM     44  C   UNL     1       1.272   3.672  -5.358  0.00  0.00    +0.015 A 
ENDBRANCH  38  39
ENDBRANCH  37  38
ENDBRANCH   1  37
TORSDOF 12
