REMARK  Name = 
REMARK  11 active torsions:
REMARK  status: ('A' for Active; 'I' for Inactive)
REMARK    1  A    between atoms: C_1  and  C_2
REMARK    2  A    between atoms: N_4  and  C_5
REMARK    3  A    between atoms: C_7  and  N_25
REMARK    4  A    between atoms: C_10  and  C_22
REMARK    5  A    between atoms: C_12  and  C_14
REMARK    6  A    between atoms: C_14  and  C_16
REMARK    7  A    between atoms: C_14  and  O_21
REMARK    8  A    between atoms: C_16  and  C_18
REMARK    9  A    between atoms: C_16  and  O_20
REMARK   10  A    between atoms: C_18  and  O_19
REMARK   11  A    between atoms: C_22  and  O_24
REMARK                            x       y       z     vdW  Elec       q    Type
REMARK                         _______ _______ _______ _____ _____    ______ ____
ROOT
ATOM      1  C   UNL     1       4.941  -0.910  -0.851  0.00  0.00    +0.145 C 
ATOM      2  C   UNL     1       5.177   0.398  -0.031  0.00  0.00    +0.174 C 
ATOM      3  O   UNL     1       4.699   1.579  -0.703  0.00  0.00    -0.357 OA
ATOM      4  C   UNL     1       5.187   1.729  -2.033  0.00  0.00    +0.230 C 
ATOM      5  C   UNL     1       4.709   0.574  -2.897  0.00  0.00    +0.089 C 
ATOM      6  C   UNL     1       5.232  -0.760  -2.366  0.00  0.00    +0.214 C 
ENDROOT
BRANCH   6   7
ATOM      7  N   UNL     1       4.523  -1.851  -3.061  0.00  0.00    -0.108 NA
ATOM      8  C   UNL     1       4.915  -2.256  -4.208  0.00  0.00    +0.377 C 
ATOM      9  N   UNL     1       4.229  -3.233  -4.845  0.00  0.00    -0.289 N 
ATOM     10  H   UNL     1       4.141  -3.057  -5.840  0.00  0.00    +0.255 HD
ATOM     11  H   UNL     1       3.310  -3.351  -4.424  0.00  0.00    +0.255 HD
ATOM     12  N   UNL     1       5.954  -1.863  -4.970  0.00  0.00    -0.289 N 
ATOM     13  H   UNL     1       6.434  -2.640  -5.415  0.00  0.00    +0.255 HD
ATOM     14  H   UNL     1       6.621  -1.250  -4.516  0.00  0.00    +0.255 HD
ENDBRANCH   6   7
BRANCH   1  17
ATOM     15  C   UNL     1       7.492  -3.448   0.451  0.00  0.00    +0.109 C 
ATOM     16  C   UNL     1       6.980  -2.098   0.035  0.00  0.00    +0.210 C 
ATOM     17  N   UNL     1       5.649  -2.093  -0.317  0.00  0.00    -0.307 N 
ATOM     18  H   UNL     1       5.260  -2.976  -0.629  0.00  0.00    +0.149 HD
ATOM     19  O   UNL     1       7.693  -1.104   0.054  0.00  0.00    -0.276 OA
ENDBRANCH   1  17
BRANCH   4  20
ATOM     20  C   UNL     1       6.704   1.975  -2.150  0.00  0.00    +0.334 C 
ATOM     21  O   UNL     1       7.437   1.466  -2.984  0.00  0.00    -0.248 OA
BRANCH  20  22
ATOM     22  O   UNL     1       7.147   2.868  -1.230  0.00  0.00    -0.479 OA
ATOM     23  H   UNL     1       6.425   3.168  -0.641  0.00  0.00    +0.295 HD
ENDBRANCH  20  22
ENDBRANCH   4  20
BRANCH   2  24
ATOM     24  C   UNL     1       4.501   0.271   1.364  0.00  0.00    +0.176 C 
BRANCH  24  25
ATOM     25  O   UNL     1       3.076   0.123   1.231  0.00  0.00    -0.387 OA
ATOM     26  H   UNL     1       2.710   0.225   2.131  0.00  0.00    +0.210 HD
ENDBRANCH  24  25
BRANCH  24  27
ATOM     27  C   UNL     1       4.791   1.418   2.354  0.00  0.00    +0.171 C 
BRANCH  27  28
ATOM     28  O   UNL     1       4.124   1.097   3.602  0.00  0.00    -0.387 OA
ATOM     29  H   UNL     1       4.626   0.369   4.013  0.00  0.00    +0.210 HD
ENDBRANCH  27  28
BRANCH  27  30
ATOM     30  C   UNL     1       4.273   2.796   1.930  0.00  0.00    +0.189 C 
BRANCH  30  31
ATOM     31  O   UNL     1       4.552   3.746   2.962  0.00  0.00    -0.392 OA
ATOM     32  H   UNL     1       4.143   3.374   3.767  0.00  0.00    +0.210 HD
ENDBRANCH  30  31
ENDBRANCH  27  30
ENDBRANCH  24  27
ENDBRANCH   2  24
TORSDOF 10
