REMARK  Name = 
REMARK  11 active torsions:
REMARK  status: ('A' for Active; 'I' for Inactive)
REMARK    1  A    between atoms: C_1  and  C_2
REMARK    2  A    between atoms: N_4  and  C_5
REMARK    3  A    between atoms: C_7  and  N_25
REMARK    4  A    between atoms: C_10  and  C_22
REMARK    5  A    between atoms: C_12  and  C_14
REMARK    6  A    between atoms: C_14  and  C_16
REMARK    7  A    between atoms: C_14  and  O_21
REMARK    8  A    between atoms: C_16  and  C_18
REMARK    9  A    between atoms: C_16  and  O_20
REMARK   10  A    between atoms: C_18  and  O_19
REMARK   11  A    between atoms: C_22  and  O_24
REMARK                            x       y       z     vdW  Elec       q    Type
REMARK                         _______ _______ _______ _____ _____    ______ ____
ROOT
ATOM      1  C   UNL     1       5.017  -0.225  -1.008  0.00  0.00    +0.145 C 
ATOM      2  C   UNL     1       5.047   1.029  -0.069  0.00  0.00    +0.174 C 
ATOM      3  O   UNL     1       4.522   2.226  -0.671  0.00  0.00    -0.357 OA
ATOM      4  C   UNL     1       5.082   2.512  -1.953  0.00  0.00    +0.230 C 
ATOM      5  C   UNL     1       4.695   1.416  -2.931  0.00  0.00    +0.089 C 
ATOM      6  C   UNL     1       5.293   0.078  -2.506  0.00  0.00    +0.214 C 
ENDROOT
BRANCH   6   7
ATOM      7  N   UNL     1       4.679  -0.989  -3.323  0.00  0.00    -0.108 NA
ATOM      8  C   UNL     1       5.135  -1.261  -4.485  0.00  0.00    +0.377 C 
ATOM      9  N   UNL     1       4.523  -2.187  -5.256  0.00  0.00    -0.289 N 
ATOM     10  H   UNL     1       4.478  -1.920  -6.233  0.00  0.00    +0.255 HD
ATOM     11  H   UNL     1       3.596  -2.395  -4.896  0.00  0.00    +0.255 HD
ATOM     12  N   UNL     1       6.174  -0.727  -5.164  0.00  0.00    -0.289 N 
ATOM     13  H   UNL     1       6.706  -1.422  -5.677  0.00  0.00    +0.255 HD
ATOM     14  H   UNL     1       6.794  -0.134  -4.621  0.00  0.00    +0.255 HD
ENDBRANCH   6   7
BRANCH   1  17
ATOM     15  C   UNL     1       7.943  -2.372   0.244  0.00  0.00    +0.109 C 
ATOM     16  C   UNL     1       7.211  -1.119  -0.132  0.00  0.00    +0.210 C 
ATOM     17  N   UNL     1       5.912  -1.316  -0.551  0.00  0.00    -0.307 N 
ATOM     18  H   UNL     1       5.692  -2.224  -0.946  0.00  0.00    +0.149 HD
ATOM     19  O   UNL     1       7.731  -0.019   0.015  0.00  0.00    -0.276 OA
ENDBRANCH   1  17
BRANCH   4  20
ATOM     20  C   UNL     1       6.598   2.815  -2.002  0.00  0.00    +0.334 C 
ATOM     21  O   UNL     1       7.367   2.410  -2.863  0.00  0.00    -0.248 OA
BRANCH  20  22
ATOM     22  O   UNL     1       6.992   3.625  -0.992  0.00  0.00    -0.479 OA
ATOM     23  H   UNL     1       6.252   3.842  -0.390  0.00  0.00    +0.295 HD
ENDBRANCH  20  22
ENDBRANCH   4  20
BRANCH   2  24
ATOM     24  C   UNL     1       4.332   0.689   1.272  0.00  0.00    +0.176 C 
BRANCH  24  25
ATOM     25  O   UNL     1       2.922   0.509   1.083  0.00  0.00    -0.387 OA
ATOM     26  H   UNL     1       2.546   0.409   1.985  0.00  0.00    +0.210 HD
ENDBRANCH  24  25
BRANCH  24  27
ATOM     27  C   UNL     1       4.569   1.695   2.416  0.00  0.00    +0.171 C 
BRANCH  27  28
ATOM     28  O   UNL     1       3.976   1.142   3.619  0.00  0.00    -0.387 OA
ATOM     29  H   UNL     1       4.663   0.597   4.047  0.00  0.00    +0.210 HD
ENDBRANCH  27  28
BRANCH  27  30
ATOM     30  C   UNL     1       3.931   3.070   2.214  0.00  0.00    +0.189 C 
BRANCH  30  31
ATOM     31  O   UNL     1       4.194   3.883   3.364  0.00  0.00    -0.392 OA
ATOM     32  H   UNL     1       3.801   3.398   4.115  0.00  0.00    +0.210 HD
ENDBRANCH  30  31
ENDBRANCH  27  30
ENDBRANCH  24  27
ENDBRANCH   2  24
TORSDOF 10
