REMARK  Name = 
REMARK  18 active torsions:
REMARK  status: ('A' for Active; 'I' for Inactive)
REMARK    1  A    between atoms: C_1  and  C_2
REMARK    2  A    between atoms: C_2  and  C_3
REMARK    3  A    between atoms: C_3  and  C_4
REMARK    4  A    between atoms: C_4  and  C_5
REMARK    5  A    between atoms: C_4  and  N_13
REMARK    6  A    between atoms: C_5  and  C_7
REMARK    7  A    between atoms: N_9  and  C_10
REMARK    8  A    between atoms: C_14  and  C_16
REMARK    9  A    between atoms: C_27  and  C_29
REMARK   10  A    between atoms: C_29  and  C_31
REMARK   11  A    between atoms: C_29  and  N_35
REMARK   12  A    between atoms: C_31  and  C_32
REMARK   13  A    between atoms: C_31  and  C_33
REMARK   14  A    between atoms: C_31  and  C_34
REMARK   15  A    between atoms: C_36  and  C_38
REMARK   16  A    between atoms: C_38  and  C_39
REMARK   17  A    between atoms: C_38  and  N_45
REMARK   18  A    between atoms: C_46  and  C_48
REMARK                            x       y       z     vdW  Elec       q    Type
REMARK                         _______ _______ _______ _____ _____    ______ ____
ROOT
ATOM      1  C   UNL     1       8.438   4.347   4.181  0.00  0.00    +0.165 C 
ATOM      2  N   UNL     1       7.435   3.282   4.043  0.00  0.00    -0.288 N 
ATOM      3  C   UNL     1       7.356   2.287   3.084  0.00  0.00    +0.237 C 
ATOM      4  O   UNL     1       6.470   1.426   3.150  0.00  0.00    -0.274 OA
ATOM      5  C   UNL     1       6.319   3.466   4.962  0.00  0.00    +0.112 C 
ATOM      6  C   UNL     1       6.556   4.784   5.685  0.00  0.00    +0.012 C 
ATOM      7  C   UNL     1       5.830   6.013   5.124  0.00  0.00    +0.005 C 
ATOM      8  C   UNL     1       6.895   7.073   4.850  0.00  0.00    +0.001 C 
ATOM      9  C   UNL     1       8.172   6.570   5.502  0.00  0.00    +0.006 C 
ATOM     10  C   UNL     1       8.044   5.056   5.500  0.00  0.00    +0.023 C 
ENDROOT
BRANCH   1  13
ATOM     11  N   UNL     1      10.829   4.886   4.103  0.00  0.00    -0.304 N 
ATOM     12  H   UNL     1      10.621   5.465   3.292  0.00  0.00    +0.149 HD
ATOM     13  C   UNL     1       9.908   3.899   4.398  0.00  0.00    +0.234 C 
ATOM     14  O   UNL     1      10.214   2.820   4.898  0.00  0.00    -0.274 OA
BRANCH  11  15
ATOM     15  C   UNL     1      12.248   4.794   4.457  0.00  0.00    +0.149 C 
BRANCH  15  16
ATOM     16  C   UNL     1      13.000   3.731   3.641  0.00  0.00    +0.237 C 
ATOM     17  O   UNL     1      13.719   2.849   4.104  0.00  0.00    -0.285 OA
BRANCH  16  18
ATOM     18  C   UNL     1      12.999   3.944   2.128  0.00  0.00    +0.282 C 
ATOM     19  N   UNL     1      13.943   3.172   1.480  0.00  0.00    -0.306 N 
ATOM     20  H   UNL     1      14.410   2.474   2.057  0.00  0.00    +0.149 HD
ATOM     21  O   UNL     1      12.243   4.765   1.624  0.00  0.00    -0.267 OA
BRANCH  19  22
ATOM     22  C   UNL     1      13.940   3.000   0.066  0.00  0.00    +0.073 C 
ATOM     23  C   UNL     1      15.027   2.214  -0.614  0.00  0.00    +0.024 C 
ATOM     24  C   UNL     1      14.950   3.703  -0.794  0.00  0.00    +0.024 C 
ENDBRANCH  19  22
ENDBRANCH  16  18
ENDBRANCH  15  16
BRANCH  15  25
ATOM     25  C   UNL     1      12.469   4.692   5.978  0.00  0.00    +0.030 C 
BRANCH  25  27
ATOM     26  C   UNL     1      14.122   4.844   7.895  0.00  0.00    +0.004 C 
ATOM     27  C   UNL     1      13.926   4.945   6.389  0.00  0.00    -0.001 C 
ENDBRANCH  25  27
ENDBRANCH  15  25
ENDBRANCH  11  15
ENDBRANCH   1  13
BRANCH   3  28
ATOM     28  C   UNL     1       8.476   2.163   2.009  0.00  0.00    +0.164 C 
BRANCH  28  29
ATOM     29  N   UNL     1       9.298   1.013   2.438  0.00  0.00    -0.302 N 
ATOM     30  H   UNL     1       8.867   0.447   3.146  0.00  0.00    +0.150 HD
ATOM     31  C   UNL     1      10.658   0.943   2.279  0.00  0.00    +0.234 C 
ATOM     32  O   UNL     1      11.227   1.745   1.536  0.00  0.00    -0.274 OA
BRANCH  31  33
ATOM     33  C   UNL     1      11.451  -0.255   2.904  0.00  0.00    +0.162 C 
BRANCH  33  34
ATOM     34  C   UNL     1      11.090  -0.742   4.354  0.00  0.00    +0.018 C 
ATOM     35  C   UNL     1      12.134  -1.725   4.946  0.00  0.00    +0.006 C 
ATOM     36  C   UNL     1      12.042  -3.154   4.398  0.00  0.00    +0.000 C 
ATOM     37  C   UNL     1      10.624  -3.714   4.280  0.00  0.00    +0.000 C 
ATOM     38  C   UNL     1       9.549  -2.707   3.883  0.00  0.00    +0.000 C 
ATOM     39  C   UNL     1       9.724  -1.394   4.622  0.00  0.00    +0.006 C 
ENDBRANCH  33  34
BRANCH  33  40
ATOM     40  N   UNL     1      11.607  -1.309   1.897  0.00  0.00    -0.298 N 
ATOM     41  H   UNL     1      10.789  -1.734   1.476  0.00  0.00    +0.150 HD
ATOM     42  C   UNL     1      12.834  -1.773   1.452  0.00  0.00    +0.264 C 
ATOM     43  O   UNL     1      13.913  -1.290   1.776  0.00  0.00    -0.268 OA
BRANCH  42  44
ATOM     44  C   UNL     1      12.782  -3.006   0.599  0.00  0.00    +0.143 A 
ATOM     45  C   UNL     1      13.963  -3.604   0.174  0.00  0.00    +0.143 A 
ATOM     46  N   UNL     1      13.982  -4.768  -0.530  0.00  0.00    -0.259 NA
ATOM     47  C   UNL     1      12.769  -5.314  -0.774  0.00  0.00    +0.130 A 
ATOM     48  C   UNL     1      11.589  -4.724  -0.340  0.00  0.00    +0.131 A 
ATOM     49  N   UNL     1      11.557  -3.558   0.353  0.00  0.00    -0.247 NA
ENDBRANCH  42  44
ENDBRANCH  33  40
ENDBRANCH  31  33
ENDBRANCH  28  29
BRANCH  28  50
ATOM     50  C   UNL     1       7.915   2.048   0.541  0.00  0.00    -0.011 C 
ATOM     51  C   UNL     1       9.012   2.474  -0.463  0.00  0.00    +0.013 C 
ATOM     52  C   UNL     1       6.723   3.011   0.318  0.00  0.00    +0.013 C 
ATOM     53  C   UNL     1       7.456   0.624   0.164  0.00  0.00    +0.013 C 
ENDBRANCH  28  50
ENDBRANCH   3  28
TORSDOF 14
