REMARK  Name = 
REMARK  16 active torsions:
REMARK  status: ('A' for Active; 'I' for Inactive)
REMARK    1  A    between atoms: C_1  and  C_2
REMARK    2  A    between atoms: C_2  and  C_3
REMARK    3  A    between atoms: C_2  and  C_4
REMARK    4  A    between atoms: C_4  and  N_5
REMARK    5  A    between atoms: N_5  and  C_6
REMARK    6  A    between atoms: N_5  and  S_34
REMARK    7  A    between atoms: C_6  and  C_7
REMARK    8  A    between atoms: C_7  and  C_9
REMARK    9  A    between atoms: C_7  and  O_33
REMARK   10  A    between atoms: C_9  and  C_11
REMARK   11  A    between atoms: C_9  and  N_18
REMARK   12  A    between atoms: C_11  and  C_12
REMARK   13  A    between atoms: C_19  and  O_21
REMARK   14  A    between atoms: O_21  and  C_22
REMARK   15  A    between atoms: S_34  and  C_37
REMARK   16  A    between atoms: C_40  and  N_43
REMARK                            x       y       z     vdW  Elec       q    Type
REMARK                         _______ _______ _______ _____ _____    ______ ____
ROOT
ATOM      1  C   UNL     1      -4.913  -0.207   1.665  0.00  0.00    +0.151 C 
ENDROOT
BRANCH   1   2
ATOM      2  O   UNL     1      -5.091  -1.117   0.566  0.00  0.00    -0.389 OA
ATOM      3  H   UNL     1      -5.733  -0.701  -0.036  0.00  0.00    +0.210 HD
ENDBRANCH   1   2
BRANCH   1   4
ATOM      4  C   UNL     1      -5.864  -0.701   2.831  0.00  0.00    +0.142 C 
BRANCH   4   5
ATOM      5  N   UNL     1      -7.384  -0.553   2.727  0.00  0.00    -0.174 NA
BRANCH   5   6
ATOM      6  S   UNL     1      -8.018   1.020   3.028  0.00  0.00    +0.061 S 
ATOM      7  O   UNL     1      -8.191   1.655   1.739  0.00  0.00    -0.153 OA
ATOM      8  O   UNL     1      -7.197   1.624   4.055  0.00  0.00    -0.153 OA
BRANCH   6   9
ATOM      9  C   UNL     1      -9.644   0.760   3.755  0.00  0.00    +0.106 A 
ATOM     10  C   UNL     1     -10.787   1.284   3.134  0.00  0.00    +0.030 A 
ATOM     11  C   UNL     1     -12.036   1.219   3.779  0.00  0.00    +0.024 A 
ATOM     12  C   UNL     1     -12.173   0.601   5.026  0.00  0.00    +0.025 A 
ATOM     13  C   UNL     1     -11.019   0.120   5.652  0.00  0.00    +0.024 A 
ATOM     14  C   UNL     1      -9.757   0.197   5.027  0.00  0.00    +0.030 A 
BRANCH  12  15
ATOM     15  N   UNL     1     -13.378   0.700   5.733  0.00  0.00    -0.358 N 
ATOM     16  H   UNL     1     -14.209   0.791   5.156  0.00  0.00    +0.142 HD
ATOM     17  H   UNL     1     -13.500   0.021   6.478  0.00  0.00    +0.142 HD
ENDBRANCH  12  15
ENDBRANCH   6   9
ENDBRANCH   5   6
BRANCH   5  18
ATOM     18  C   UNL     1      -8.118  -1.300   1.675  0.00  0.00    +0.112 C 
BRANCH  18  20
ATOM     19  C   UNL     1      -8.726  -3.459   2.907  0.00  0.00    +0.008 C 
ATOM     20  C   UNL     1      -7.983  -2.832   1.721  0.00  0.00    -0.001 C 
ATOM     21  C   UNL     1      -8.514  -3.410   0.395  0.00  0.00    +0.008 C 
ENDBRANCH  18  20
ENDBRANCH   5  18
ENDBRANCH   4   5
ENDBRANCH   1   4
BRANCH   1  22
ATOM     22  C   UNL     1      -3.376  -0.273   2.115  0.00  0.00    +0.110 C 
BRANCH  22  23
ATOM     23  N   UNL     1      -2.271  -0.599   1.156  0.00  0.00    -0.275 N 
ATOM     24  H   UNL     1      -1.590  -1.262   1.497  0.00  0.00    +0.152 HD
ATOM     25  C   UNL     1      -1.962  -0.219  -0.113  0.00  0.00    +0.401 C 
ATOM     26  O   UNL     1      -2.571   0.576  -0.807  0.00  0.00    -0.226 OA
BRANCH  25  27
ATOM     27  O   UNL     1      -0.862  -0.946  -0.530  0.00  0.00    -0.444 OA
BRANCH  27  28
ATOM     28  C   UNL     1      -0.752  -1.152  -1.943  0.00  0.00    +0.212 C 
ATOM     29  C   UNL     1      -0.510  -2.604  -2.332  0.00  0.00    +0.090 C 
ATOM     30  C   UNL     1       0.755  -3.337  -1.896  0.00  0.00    +0.040 C 
ATOM     31  C   UNL     1       1.085  -4.185  -3.116  0.00  0.00    +0.163 C 
ATOM     32  O   UNL     1       0.540  -3.525  -4.260  0.00  0.00    -0.351 OA
ATOM     33  C   UNL     1      -0.253  -2.432  -3.817  0.00  0.00    +0.257 C 
ATOM     34  O   UNL     1       0.447  -1.179  -3.967  0.00  0.00    -0.347 OA
ATOM     35  C   UNL     1       0.378  -0.471  -2.705  0.00  0.00    +0.208 C 
ENDBRANCH  27  28
ENDBRANCH  25  27
ENDBRANCH  22  23
BRANCH  22  36
ATOM     36  C   UNL     1      -2.927   0.757   3.200  0.00  0.00    +0.060 C 
BRANCH  36  37
ATOM     37  C   UNL     1      -2.801   2.247   2.969  0.00  0.00    -0.046 A 
ATOM     38  C   UNL     1      -2.588   3.070   4.097  0.00  0.00    +0.004 A 
ATOM     39  C   UNL     1      -2.455   4.457   3.978  0.00  0.00    +0.000 A 
ATOM     40  C   UNL     1      -2.518   5.048   2.722  0.00  0.00    +0.000 A 
ATOM     41  C   UNL     1      -2.695   4.248   1.594  0.00  0.00    +0.000 A 
ATOM     42  C   UNL     1      -2.834   2.859   1.717  0.00  0.00    +0.004 A 
ENDBRANCH  36  37
ENDBRANCH  22  36
ENDBRANCH   1  22
TORSDOF 14
