REMARK  Name = 
REMARK  24 active torsions:
REMARK  status: ('A' for Active; 'I' for Inactive)
REMARK    1  A    between atoms: C_1  and  C_2
REMARK    2  A    between atoms: C_2  and  C_3
REMARK    3  A    between atoms: C_2  and  C_4
REMARK    4  A    between atoms: C_6  and  C_9
REMARK    5  A    between atoms: C_9  and  N_10
REMARK    6  A    between atoms: N_10  and  C_11
REMARK    7  A    between atoms: N_14  and  C_15
REMARK    8  A    between atoms: C_15  and  C_17
REMARK    9  A    between atoms: C_15  and  C_20
REMARK   10  A    between atoms: C_17  and  C_18
REMARK   11  A    between atoms: C_17  and  C_19
REMARK   12  A    between atoms: N_22  and  C_23
REMARK   13  A    between atoms: C_23  and  C_25
REMARK   14  A    between atoms: C_23  and  C_32
REMARK   15  A    between atoms: C_25  and  C_26
REMARK   16  A    between atoms: C_32  and  C_33
REMARK   17  A    between atoms: C_33  and  C_35
REMARK   18  A    between atoms: C_33  and  O_55
REMARK   19  A    between atoms: C_35  and  C_37
REMARK   20  A    between atoms: C_35  and  N_44
REMARK   21  A    between atoms: C_37  and  C_38
REMARK   22  A    between atoms: C_45  and  O_47
REMARK   23  A    between atoms: O_47  and  C_48
REMARK   24  A    between atoms: C_48  and  C_49
REMARK                            x       y       z     vdW  Elec       q    Type
REMARK                         _______ _______ _______ _____ _____    ______ ____
ROOT
ATOM      1  C   UNL     1       4.473   3.553 -11.455  0.00  0.00    +0.080 C 
ENDROOT
BRANCH   1   3
ATOM      2  C   UNL     1       5.569   2.382 -13.418  0.00  0.00    +0.234 C 
ATOM      3  N   UNL     1       5.487   2.655 -12.062  0.00  0.00    -0.311 N 
ATOM      4  H   UNL     1       6.280   2.396 -11.488  0.00  0.00    +0.149 HD
ATOM      5  O   UNL     1       4.770   2.812 -14.254  0.00  0.00    -0.274 OA
BRANCH   2   6
ATOM      6  C   UNL     1       6.780   1.541 -13.891  0.00  0.00    +0.163 C 
BRANCH   6   9
ATOM      7  N   UNL     1       5.957  -0.996 -16.535  0.00  0.00    -0.283 N 
ATOM      8  C   UNL     1       6.661  -0.467 -15.449  0.00  0.00    +0.303 C 
ATOM      9  N   UNL     1       6.246   0.769 -15.030  0.00  0.00    -0.288 N 
ATOM     10  H   UNL     1       5.361   1.118 -15.372  0.00  0.00    +0.151 HD
ATOM     11  O   UNL     1       7.605  -1.041 -14.914  0.00  0.00    -0.253 OA
ATOM     12  C   UNL     1       4.890  -0.279 -17.220  0.00  0.00    +0.134 C 
BRANCH   7  13
ATOM     13  C   UNL     1       6.478  -2.198 -17.203  0.00  0.00    +0.164 C 
BRANCH  13  17
ATOM     14  C   UNL     1       4.023  -4.542 -18.583  0.00  0.00    +0.081 A 
ATOM     15  S   UNL     1       4.078  -5.433 -17.110  0.00  0.00    -0.080 S 
ATOM     16  C   UNL     1       5.211  -4.319 -16.478  0.00  0.00    +0.071 A 
ATOM     17  C   UNL     1       5.454  -3.300 -17.380  0.00  0.00    +0.066 A 
ATOM     18  N   UNL     1       4.757  -3.442 -18.590  0.00  0.00    -0.247 NA
BRANCH  14  20
ATOM     19  C   UNL     1       2.261  -4.058 -20.330  0.00  0.00    +0.014 C 
ATOM     20  C   UNL     1       3.229  -5.090 -19.752  0.00  0.00    +0.038 C 
ATOM     21  C   UNL     1       4.164  -5.614 -20.844  0.00  0.00    +0.014 C 
ENDBRANCH  14  20
ENDBRANCH  13  17
ENDBRANCH   7  13
ENDBRANCH   6   9
BRANCH   6  22
ATOM     22  C   UNL     1       7.882   2.558 -14.295  0.00  0.00    +0.012 C 
ATOM     23  C   UNL     1       9.069   1.909 -15.001  0.00  0.00    +0.009 C 
ATOM     24  C   UNL     1       8.390   3.361 -13.087  0.00  0.00    +0.009 C 
ENDBRANCH   6  22
ENDBRANCH   2   6
ENDBRANCH   1   3
BRANCH   1  25
ATOM     25  C   UNL     1       4.436   3.365  -9.905  0.00  0.00    +0.055 C 
BRANCH  25  26
ATOM     26  C   UNL     1       3.369   4.179  -9.141  0.00  0.00    +0.137 C 
BRANCH  26  27
ATOM     27  O   UNL     1       3.736   5.560  -9.269  0.00  0.00    -0.390 OA
ATOM     28  H   UNL     1       3.424   5.892 -10.126  0.00  0.00    +0.210 HD
ENDBRANCH  26  27
BRANCH  26  29
ATOM     29  C   UNL     1       3.285   3.818  -7.620  0.00  0.00    +0.109 C 
BRANCH  29  30
ATOM     30  N   UNL     1       2.431   4.787  -6.913  0.00  0.00    -0.275 N 
ATOM     31  H   UNL     1       1.430   4.644  -6.866  0.00  0.00    +0.152 HD
ATOM     32  C   UNL     1       2.934   5.674  -6.012  0.00  0.00    +0.401 C 
ATOM     33  O   UNL     1       4.118   5.932  -5.852  0.00  0.00    -0.226 OA
BRANCH  32  34
ATOM     34  O   UNL     1       1.927   6.116  -5.226  0.00  0.00    -0.449 OA
BRANCH  34  35
ATOM     35  C   UNL     1       2.322   6.825  -4.033  0.00  0.00    +0.249 C 
BRANCH  35  36
ATOM     36  C   UNL     1       1.940   8.301  -4.156  0.00  0.00    +0.099 C 
ATOM     37  S   UNL     1       0.134   8.511  -4.004  0.00  0.00    -0.137 S 
ATOM     38  C   UNL     1       0.220   8.918  -2.244  0.00  0.00    +0.151 C 
ATOM     39  N   UNL     1       1.611   8.826  -1.816  0.00  0.00    -0.306 NA
ATOM     40  H   UNL     1       1.786   9.491  -1.066  0.00  0.00    +0.123 HD
ATOM     41  C   UNL     1       2.449   9.132  -2.979  0.00  0.00    +0.099 C 
ENDBRANCH  35  36
ENDBRANCH  34  35
ENDBRANCH  32  34
ENDBRANCH  29  30
BRANCH  29  42
ATOM     42  C   UNL     1       2.762   2.377  -7.337  0.00  0.00    +0.060 C 
BRANCH  42  43
ATOM     43  C   UNL     1       2.879   1.840  -5.912  0.00  0.00    -0.046 A 
ATOM     44  C   UNL     1       2.416   0.543  -5.632  0.00  0.00    +0.004 A 
ATOM     45  C   UNL     1       2.525  -0.002  -4.345  0.00  0.00    +0.000 A 
ATOM     46  C   UNL     1       3.079   0.746  -3.310  0.00  0.00    +0.000 A 
ATOM     47  C   UNL     1       3.534   2.032  -3.564  0.00  0.00    +0.000 A 
ATOM     48  C   UNL     1       3.452   2.560  -4.855  0.00  0.00    +0.004 A 
ENDBRANCH  42  43
ENDBRANCH  29  42
ENDBRANCH  26  29
ENDBRANCH  25  26
ENDBRANCH   1  25
BRANCH   1  49
ATOM     49  C   UNL     1       3.075   3.436 -12.116  0.00  0.00    +0.057 C 
BRANCH  49  50
ATOM     50  C   UNL     1       2.428   2.067 -12.175  0.00  0.00    -0.046 A 
ATOM     51  C   UNL     1       1.223   1.940 -12.881  0.00  0.00    +0.004 A 
ATOM     52  C   UNL     1       0.566   0.711 -12.953  0.00  0.00    +0.000 A 
ATOM     53  C   UNL     1       1.101  -0.409 -12.322  0.00  0.00    +0.000 A 
ATOM     54  C   UNL     1       2.308  -0.310 -11.646  0.00  0.00    +0.000 A 
ATOM     55  C   UNL     1       2.968   0.914 -11.587  0.00  0.00    +0.004 A 
ENDBRANCH  49  50
ENDBRANCH   1  49
TORSDOF 19
