REMARK  Name = 
REMARK  11 active torsions:
REMARK  status: ('A' for Active; 'I' for Inactive)
REMARK    1  A    between atoms: C_1  and  C_2
REMARK    2  A    between atoms: N_4  and  C_5
REMARK    3  A    between atoms: C_7  and  C_20
REMARK    4  A    between atoms: C_10  and  C_17
REMARK    5  A    between atoms: C_12  and  N_13
REMARK    6  A    between atoms: C_17  and  O_19
REMARK    7  A    between atoms: C_20  and  C_22
REMARK    8  A    between atoms: C_20  and  O_27
REMARK    9  A    between atoms: C_22  and  C_24
REMARK   10  A    between atoms: C_22  and  O_26
REMARK   11  A    between atoms: C_24  and  O_25
REMARK                            x       y       z     vdW  Elec       q    Type
REMARK                         _______ _______ _______ _____ _____    ______ ____
ROOT
ATOM      1  C   UNL     1       4.838   1.084  -0.335  0.00  0.00    +0.170 C 
ATOM      2  C   UNL     1       5.192   0.356  -1.614  0.00  0.00    +0.141 C 
ATOM      3  C   UNL     1       5.977   0.940  -2.523  0.00  0.00    +0.059 C 
ATOM      4  C   UNL     1       6.513   2.319  -2.431  0.00  0.00    +0.253 C 
ATOM      5  O   UNL     1       5.905   3.158  -1.455  0.00  0.00    -0.353 OA
ATOM      6  C   UNL     1       5.140   2.611  -0.353  0.00  0.00    +0.178 C 
ENDROOT
BRANCH   2   7
ATOM      7  N   UNL     1       4.760  -0.947  -1.699  0.00  0.00    -0.076 NA
ATOM      8  C   UNL     1       4.210  -1.416  -2.769  0.00  0.00    +0.382 C 
ATOM      9  N   UNL     1       3.790  -2.701  -2.790  0.00  0.00    -0.289 N 
ATOM     10  H   UNL     1       4.062  -3.192  -3.633  0.00  0.00    +0.255 HD
ATOM     11  H   UNL     1       4.122  -3.193  -1.966  0.00  0.00    +0.255 HD
ATOM     12  N   UNL     1       3.945  -0.841  -3.967  0.00  0.00    -0.289 N 
ATOM     13  H   UNL     1       3.089  -1.184  -4.388  0.00  0.00    +0.255 HD
ATOM     14  H   UNL     1       3.982   0.168  -3.973  0.00  0.00    +0.255 HD
ENDBRANCH   2   7
BRANCH   1  17
ATOM     15  C   UNL     1       5.876  -0.291   3.065  0.00  0.00    +0.109 C 
ATOM     16  C   UNL     1       4.964   0.252   2.005  0.00  0.00    +0.211 C 
ATOM     17  N   UNL     1       5.552   0.445   0.775  0.00  0.00    -0.303 N 
ATOM     18  H   UNL     1       6.485   0.075   0.603  0.00  0.00    +0.149 HD
ATOM     19  O   UNL     1       3.805   0.567   2.249  0.00  0.00    -0.276 OA
ENDBRANCH   1  17
BRANCH   4  20
ATOM     20  C   UNL     1       8.050   2.274  -2.284  0.00  0.00    +0.338 C 
ATOM     21  O   UNL     1       8.799   1.576  -2.953  0.00  0.00    -0.248 OA
BRANCH  20  22
ATOM     22  O   UNL     1       8.502   3.132  -1.335  0.00  0.00    -0.479 OA
ATOM     23  H   UNL     1       7.749   3.619  -0.937  0.00  0.00    +0.295 HD
ENDBRANCH  20  22
ENDBRANCH   4  20
BRANCH   6  24
ATOM     24  C   UNL     1       3.844   3.468  -0.287  0.00  0.00    +0.176 C 
BRANCH  24  25
ATOM     25  O   UNL     1       4.216   4.863  -0.399  0.00  0.00    -0.387 OA
ATOM     26  H   UNL     1       4.815   4.919  -1.167  0.00  0.00    +0.210 HD
ENDBRANCH  24  25
BRANCH  24  27
ATOM     27  C   UNL     1       2.980   3.286   0.986  0.00  0.00    +0.171 C 
BRANCH  27  28
ATOM     28  O   UNL     1       1.812   4.120   0.866  0.00  0.00    -0.387 OA
ATOM     29  H   UNL     1       1.084   3.561   0.544  0.00  0.00    +0.210 HD
ENDBRANCH  27  28
BRANCH  27  30
ATOM     30  C   UNL     1       3.702   3.668   2.293  0.00  0.00    +0.189 C 
BRANCH  30  31
ATOM     31  O   UNL     1       4.207   5.003   2.282  0.00  0.00    -0.392 OA
ATOM     32  H   UNL     1       3.968   5.380   1.408  0.00  0.00    +0.210 HD
ENDBRANCH  30  31
ENDBRANCH  27  30
ENDBRANCH  24  27
ENDBRANCH   6  24
TORSDOF 10
