REMARK  Name = 
REMARK  11 active torsions:
REMARK  status: ('A' for Active; 'I' for Inactive)
REMARK    1  A    between atoms: C_1  and  C_2
REMARK    2  A    between atoms: N_4  and  C_5
REMARK    3  A    between atoms: C_7  and  N_25
REMARK    4  A    between atoms: C_10  and  C_22
REMARK    5  A    between atoms: C_12  and  C_14
REMARK    6  A    between atoms: C_14  and  C_16
REMARK    7  A    between atoms: C_14  and  O_21
REMARK    8  A    between atoms: C_16  and  C_18
REMARK    9  A    between atoms: C_16  and  O_20
REMARK   10  A    between atoms: C_18  and  O_19
REMARK   11  A    between atoms: C_22  and  O_24
REMARK                            x       y       z     vdW  Elec       q    Type
REMARK                         _______ _______ _______ _____ _____    ______ ____
ROOT
ATOM      1  C   UNL     1       4.865  -1.197  -0.087  0.00  0.00    +0.160 C 
ATOM      2  C   UNL     1       5.147  -0.550  -1.471  0.00  0.00    +0.229 C 
ATOM      3  O   UNL     1       6.188  -1.147  -2.257  0.00  0.00    -0.477 OA
ATOM      4  C   UNL     1       6.352  -2.510  -2.167  0.00  0.00    +0.204 C 
ATOM      5  C   UNL     1       5.866  -3.268  -1.180  0.00  0.00    +0.071 C 
ATOM      6  C   UNL     1       5.117  -2.725  -0.015  0.00  0.00    +0.238 C 
ENDROOT
BRANCH   6   7
ATOM      7  N   UNL     1       3.823  -3.412   0.067  0.00  0.00    -0.104 NA
ATOM      8  C   UNL     1       3.721  -4.541   0.660  0.00  0.00    +0.377 C 
ATOM      9  N   UNL     1       2.533  -5.168   0.659  0.00  0.00    -0.289 N 
ATOM     10  H   UNL     1       2.325  -5.940   1.268  0.00  0.00    +0.255 HD
ATOM     11  H   UNL     1       1.763  -4.672   0.232  0.00  0.00    +0.255 HD
ATOM     12  N   UNL     1       4.662  -5.283   1.283  0.00  0.00    -0.289 N 
ATOM     13  H   UNL     1       4.359  -5.810   2.088  0.00  0.00    +0.255 HD
ATOM     14  H   UNL     1       5.570  -4.859   1.419  0.00  0.00    +0.255 HD
ENDBRANCH   6   7
BRANCH   1  17
ATOM     15  C   UNL     1       7.362   0.434   2.309  0.00  0.00    +0.109 C 
ATOM     16  C   UNL     1       6.917  -0.423   1.156  0.00  0.00    +0.210 C 
ATOM     17  N   UNL     1       5.553  -0.453   0.996  0.00  0.00    -0.305 N 
ATOM     18  H   UNL     1       4.978   0.098   1.620  0.00  0.00    +0.149 HD
ATOM     19  O   UNL     1       7.705  -1.015   0.431  0.00  0.00    -0.276 OA
ENDBRANCH   1  17
BRANCH   4  20
ATOM     20  C   UNL     1       7.191  -3.182  -3.209  0.00  0.00    +0.372 C 
ATOM     21  O   UNL     1       7.287  -4.384  -3.383  0.00  0.00    -0.242 OA
BRANCH  20  22
ATOM     22  O   UNL     1       7.858  -2.267  -3.951  0.00  0.00    -0.475 OA
ATOM     23  H   UNL     1       7.686  -1.371  -3.596  0.00  0.00    +0.296 HD
ENDBRANCH  20  22
ENDBRANCH   4  20
BRANCH   2  24
ATOM     24  C   UNL     1       3.839  -0.342  -2.281  0.00  0.00    +0.187 C 
BRANCH  24  25
ATOM     25  O   UNL     1       3.228  -1.581  -2.637  0.00  0.00    -0.385 OA
ATOM     26  H   UNL     1       2.455  -1.370  -3.195  0.00  0.00    +0.210 HD
ENDBRANCH  24  25
BRANCH  24  27
ATOM     27  C   UNL     1       3.987   0.543  -3.534  0.00  0.00    +0.172 C 
BRANCH  27  28
ATOM     28  O   UNL     1       2.661   0.784  -4.066  0.00  0.00    -0.387 OA
ATOM     29  H   UNL     1       2.180   1.330  -3.418  0.00  0.00    +0.210 HD
ENDBRANCH  27  28
BRANCH  27  30
ATOM     30  C   UNL     1       4.810  -0.065  -4.675  0.00  0.00    +0.189 C 
BRANCH  30  31
ATOM     31  O   UNL     1       4.831   0.852  -5.772  0.00  0.00    -0.392 OA
ATOM     32  H   UNL     1       3.894   1.031  -5.968  0.00  0.00    +0.210 HD
ENDBRANCH  30  31
ENDBRANCH  27  30
ENDBRANCH  24  27
ENDBRANCH   2  24
TORSDOF 10
