REMARK  Name = 
REMARK  6 active torsions:
REMARK  status: ('A' for Active; 'I' for Inactive)
REMARK    1  A    between atoms: C_3  and  C_18
REMARK    2  A    between atoms: N_5  and  C1*_6
REMARK    3  A    between atoms: C2*_8  and  O2*_17
REMARK    4  A    between atoms: C3*_10  and  O3*_16
REMARK    5  A    between atoms: C4*_11  and  C5*_14
REMARK    6  A    between atoms: C5*_14  and  O5*_15
REMARK                            x       y       z     vdW  Elec       q    Type
REMARK                         _______ _______ _______ _____ _____    ______ ____
ROOT
ATOM      1  C1* UNL     1      -0.802  -2.480   0.065  0.00  0.00    +0.270 C 
ATOM      2  O4* UNL     1      -1.132  -2.951   1.393  0.00  0.00    -0.344 OA
ATOM      3  C4* UNL     1      -1.094  -4.398   1.348  0.00  0.00    +0.177 C 
ATOM      4  C3* UNL     1      -0.646  -4.800  -0.071  0.00  0.00    +0.178 C 
ATOM      5  C2* UNL     1       0.085  -3.558  -0.562  0.00  0.00    +0.196 C 
ENDROOT
BRANCH   1   7
ATOM      6  C   UNL     1      -0.924  -0.055   0.650  0.00  0.00    +0.223 A 
ATOM      7  N   UNL     1      -0.273  -1.136   0.140  0.00  0.00    -0.220 N 
ATOM      8  N   UNL     1       0.890  -0.774  -0.443  0.00  0.00    -0.142 NA
ATOM      9  C   UNL     1       0.903   0.559  -0.236  0.00  0.00    +0.236 A 
ATOM     10  N   UNL     1      -0.221   1.030   0.432  0.00  0.00    -0.211 NA
BRANCH   9  11
ATOM     11  C   UNL     1       1.980   1.469  -0.673  0.00  0.00    +0.281 C 
ATOM     12  N   UNL     1       1.747   2.790  -0.377  0.00  0.00    -0.323 N 
ATOM     13  H   UNL     1       2.437   3.479  -0.640  0.00  0.00    +0.145 HD
ATOM     14  H   UNL     1       0.895   3.053   0.103  0.00  0.00    +0.145 HD
ATOM     15  O   UNL     1       3.005   1.123  -1.256  0.00  0.00    -0.267 OA
ENDBRANCH   9  11
ENDBRANCH   1   7
BRANCH   4  16
ATOM     16  O3* UNL     1      -1.771  -5.010  -0.944  0.00  0.00    -0.386 OA
ATOM     17  H3* UNL     1      -2.597  -4.806  -0.474  0.00  0.00    +0.210 HD
ENDBRANCH   4  16
BRANCH   5  18
ATOM     18  O2* UNL     1       1.424  -3.560  -0.062  0.00  0.00    -0.385 OA
ATOM     19  H2* UNL     1       1.807  -2.691  -0.319  0.00  0.00    +0.210 HD
ENDBRANCH   5  18
BRANCH   3  20
ATOM     20  C5* UNL     1      -0.185  -4.941   2.453  0.00  0.00    +0.190 C 
BRANCH  20  21
ATOM     21  O5* UNL     1      -0.291  -6.361   2.506  0.00  0.00    -0.392 OA
ATOM     22  H5* UNL     1       0.343  -6.672   3.176  0.00  0.00    +0.210 HD
ENDBRANCH  20  21
ENDBRANCH   3  20
TORSDOF 6
