REMARK  Name = 
REMARK  11 active torsions:
REMARK  status: ('A' for Active; 'I' for Inactive)
REMARK    1  A    between atoms: C_1  and  C_2
REMARK    2  A    between atoms: N_4  and  C_5
REMARK    3  A    between atoms: C_6  and  C_20
REMARK    4  A    between atoms: C_8  and  C_17
REMARK    5  A    between atoms: N_11  and  C_12
REMARK    6  A    between atoms: C_17  and  O_19
REMARK    7  A    between atoms: C_20  and  C_22
REMARK    8  A    between atoms: C_20  and  O_27
REMARK    9  A    between atoms: C_22  and  C_24
REMARK   10  A    between atoms: C_22  and  O_26
REMARK   11  A    between atoms: C_24  and  O_25
REMARK                            x       y       z     vdW  Elec       q    Type
REMARK                         _______ _______ _______ _____ _____    ______ ____
ROOT
ATOM      1  C   UNL     1       4.767   0.463  -1.156  0.00  0.00    +0.117 A 
ATOM      2  C   UNL     1       5.618  -0.783  -1.073  0.00  0.00    +0.170 A 
ATOM      3  N   UNL     1       5.034  -1.941  -1.163  0.00  0.00    -0.071 NA
ATOM      4  C   UNL     1       7.065  -0.535  -0.890  0.00  0.00    +0.101 A 
ATOM      5  C   UNL     1       7.538   0.705  -1.082  0.00  0.00    +0.215 A 
ATOM      6  O   UNL     1       6.747   1.794  -1.354  0.00  0.00    -0.448 OA
ATOM      7  C   UNL     1       5.367   1.666  -1.264  0.00  0.00    +0.161 A 
ENDROOT
BRANCH   3   8
ATOM      8  C   UNL     1       5.571  -3.172  -1.162  0.00  0.00    +0.382 C 
ATOM      9  N   UNL     1       4.790  -4.143  -0.767  0.00  0.00    -0.289 N 
ATOM     10  H   UNL     1       5.053  -5.115  -0.778  0.00  0.00    +0.255 HD
ATOM     11  H   UNL     1       3.846  -3.888  -0.514  0.00  0.00    +0.255 HD
ATOM     12  N   UNL     1       6.765  -3.494  -1.587  0.00  0.00    -0.289 N 
ATOM     13  H   UNL     1       7.378  -2.814  -2.016  0.00  0.00    +0.255 HD
ATOM     14  H   UNL     1       7.109  -4.444  -1.547  0.00  0.00    +0.255 HD
ENDBRANCH   3   8
BRANCH   1  17
ATOM     15  C   UNL     1       1.194   0.050  -2.081  0.00  0.00    +0.109 C 
ATOM     16  C   UNL     1       2.662   0.317  -2.287  0.00  0.00    +0.214 C 
ATOM     17  N   UNL     1       3.392   0.298  -1.101  0.00  0.00    -0.280 N 
ATOM     18  H   UNL     1       3.085  -0.466  -0.506  0.00  0.00    +0.155 HD
ATOM     19  O   UNL     1       3.152   0.534  -3.388  0.00  0.00    -0.276 OA
ENDBRANCH   1  17
BRANCH   5  20
ATOM     20  C   UNL     1       9.009   0.902  -1.008  0.00  0.00    +0.373 C 
ATOM     21  O   UNL     1       9.792  -0.018  -0.851  0.00  0.00    -0.242 OA
BRANCH  20  22
ATOM     22  O   UNL     1       9.369   2.189  -1.168  0.00  0.00    -0.475 OA
ATOM     23  H   UNL     1       8.625   2.811  -1.312  0.00  0.00    +0.296 HD
ENDBRANCH  20  22
ENDBRANCH   5  20
BRANCH   7  24
ATOM     24  C   UNL     1       4.653   3.005  -1.223  0.00  0.00    +0.213 C 
BRANCH  24  25
ATOM     25  O   UNL     1       5.376   3.932  -2.040  0.00  0.00    -0.381 OA
ATOM     26  H   UNL     1       5.018   3.865  -2.944  0.00  0.00    +0.210 HD
ENDBRANCH  24  25
BRANCH  24  27
ATOM     27  C   UNL     1       4.543   3.565   0.225  0.00  0.00    +0.176 C 
BRANCH  27  28
ATOM     28  O   UNL     1       3.866   4.837   0.259  0.00  0.00    -0.387 OA
ATOM     29  H   UNL     1       3.094   4.801  -0.330  0.00  0.00    +0.210 HD
ENDBRANCH  27  28
BRANCH  27  30
ATOM     30  C   UNL     1       5.897   3.777   0.917  0.00  0.00    +0.190 C 
BRANCH  30  31
ATOM     31  O   UNL     1       5.682   4.235   2.251  0.00  0.00    -0.392 OA
ATOM     32  H   UNL     1       5.113   5.027   2.158  0.00  0.00    +0.210 HD
ENDBRANCH  30  31
ENDBRANCH  27  30
ENDBRANCH  24  27
ENDBRANCH   7  24
TORSDOF 10
