REMARK  Name = 
REMARK  11 active torsions:
REMARK  status: ('A' for Active; 'I' for Inactive)
REMARK    1  A    between atoms: C_1  and  C_2
REMARK    2  A    between atoms: C_2  and  C_3
REMARK    3  A    between atoms: C_2  and  C_4
REMARK    4  A    between atoms: C_4  and  C_6
REMARK    5  A    between atoms: C_4  and  N_24
REMARK    6  A    between atoms: C_6  and  O_8
REMARK    7  A    between atoms: O_8  and  C_9
REMARK    8  A    between atoms: C_9  and  C_10
REMARK    9  A    between atoms: C_10  and  O_11
REMARK   10  A    between atoms: O_11  and  C_12
REMARK   11  A    between atoms: C_12  and  N_13
REMARK                            x       y       z     vdW  Elec       q    Type
REMARK                         _______ _______ _______ _____ _____    ______ ____
ROOT
ATOM      1  C   UNL     1      -4.900   4.892  -1.279  0.00  0.00    +0.272 C 
ENDROOT
BRANCH   1   2
ATOM      2  N   UNL     1      -5.070   6.245  -1.859  0.00  0.00    -0.261 N 
ATOM      3  C   UNL     1      -4.989   7.632  -1.331  0.00  0.00    +0.313 C 
ATOM      4  N   UNL     1      -3.777   8.215  -0.671  0.00  0.00    -0.091 NA
ATOM      5  C   UNL     1      -2.970   9.080  -1.259  0.00  0.00    +0.371 C 
ATOM      6  N   UNL     1      -2.095   9.918  -0.509  0.00  0.00    -0.251 N 
ATOM      7  H   UNL     1      -1.557  10.652  -1.011  0.00  0.00    +0.241 HD
ATOM      8  H   UNL     1      -2.207  10.053   0.508  0.00  0.00    +0.241 HD
ATOM      9  N   UNL     1      -3.007   9.269  -2.662  0.00  0.00    -0.175 N 
ATOM     10  H   UNL     1      -2.176   9.643  -3.146  0.00  0.00    +0.254 HD
ATOM     11  C   UNL     1      -4.074   8.838  -3.347  0.00  0.00    +0.305 C 
ATOM     12  O   UNL     1      -4.045   8.815  -4.567  0.00  0.00    -0.255 OA
ATOM     13  C   UNL     1      -5.324   8.472  -2.564  0.00  0.00    +0.267 C 
ATOM     14  N   UNL     1      -6.090   7.567  -3.385  0.00  0.00    -0.257 NA
ATOM     15  C   UNL     1      -5.880   6.367  -3.009  0.00  0.00    +0.183 C 
ENDBRANCH   1   2
BRANCH   1  16
ATOM     16  O   UNL     1      -6.132   4.114  -1.354  0.00  0.00    -0.358 OA
BRANCH  16  17
ATOM     17  C   UNL     1      -5.841   2.710  -1.484  0.00  0.00    +0.203 C 
BRANCH  17  18
ATOM     18  C   UNL     1      -7.034   1.690  -1.350  0.00  0.00    +0.260 C 
BRANCH  18  19
ATOM     19  O   UNL     1      -7.928   1.597  -2.420  0.00  0.00    -0.461 OA
BRANCH  19  20
ATOM     20  C   UNL     1      -9.020   2.389  -2.611  0.00  0.00    +0.324 C 
ATOM     21  O   UNL     1      -9.146   3.411  -1.954  0.00  0.00    -0.249 OA
BRANCH  20  22
ATOM     22  C   UNL     1     -10.108   2.015  -3.621  0.00  0.00    +0.163 C 
BRANCH  22  24
ATOM     23  C   UNL     1      -8.864   3.048  -5.567  0.00  0.00    +0.009 C 
ATOM     24  C   UNL     1     -10.170   3.079  -4.761  0.00  0.00    +0.010 C 
ATOM     25  C   UNL     1     -11.355   2.901  -5.729  0.00  0.00    +0.009 C 
ENDBRANCH  22  24
BRANCH  22  26
ATOM     26  N   UNL     1     -11.388   1.903  -2.905  0.00  0.00    -0.318 NA
ATOM     27  H   UNL     1     -11.694   2.838  -2.547  0.00  0.00    +0.119 HD
ATOM     28  H   UNL     1     -12.137   1.524  -3.532  0.00  0.00    +0.119 HD
ENDBRANCH  22  26
ENDBRANCH  20  22
ENDBRANCH  19  20
ENDBRANCH  18  19
ENDBRANCH  17  18
ENDBRANCH  16  17
ENDBRANCH   1  16
TORSDOF 9
REMARK  Name = 
REMARK  11 active torsions:
REMARK  status: ('A' for Active; 'I' for Inactive)
REMARK    1  A    between atoms: C_1  and  C_2
REMARK    2  A    between atoms: C_2  and  C_3
REMARK    3  A    between atoms: C_2  and  C_4
REMARK    4  A    between atoms: C_4  and  C_6
REMARK    5  A    between atoms: C_4  and  N_24
REMARK    6  A    between atoms: C_6  and  O_8
REMARK    7  A    between atoms: O_8  and  C_9
REMARK    8  A    between atoms: C_9  and  C_10
REMARK    9  A    between atoms: C_10  and  O_11
REMARK   10  A    between atoms: O_11  and  C_12
REMARK   11  A    between atoms: C_12  and  N_13
REMARK                            x       y       z     vdW  Elec       q    Type
REMARK                         _______ _______ _______ _____ _____    ______ ____
ROOT
ATOM      1 CL   UNL     1       0.958  -0.036  -0.092  0.00  0.00    -0.145 Cl
ATOM      2  H   UNL     1       2.333  -0.037  -0.091  0.00  0.00    +0.145 HD
ENDROOT
TORSDOF 0
