REMARK  Name = 
REMARK  23 active torsions:
REMARK  status: ('A' for Active; 'I' for Inactive)
REMARK    1  A    between atoms: C_1  and  C_2
REMARK    2  A    between atoms: C_2  and  C_4
REMARK    3  A    between atoms: C_2  and  N_27
REMARK    4  A    between atoms: C_4  and  O_5
REMARK    5  A    between atoms: O_5  and  C_6
REMARK    6  A    between atoms: C_6  and  P_7
REMARK    7  A    between atoms: P_7  and  O_9
REMARK    8  A    between atoms: P_7  and  O_18
REMARK    9  A    between atoms: O_9  and  C_10
REMARK   10  A    between atoms: C_10  and  O_11
REMARK   11  A    between atoms: O_11  and  C_12
REMARK   12  A    between atoms: C_12  and  O_14
REMARK   13  A    between atoms: O_14  and  C_15
REMARK   14  A    between atoms: C_15  and  C_16
REMARK   15  A    between atoms: C_15  and  C_17
REMARK   16  A    between atoms: O_18  and  C_19
REMARK   17  A    between atoms: C_19  and  O_20
REMARK   18  A    between atoms: O_20  and  C_21
REMARK   19  A    between atoms: C_21  and  O_23
REMARK   20  A    between atoms: O_23  and  C_24
REMARK   21  A    between atoms: C_24  and  C_25
REMARK   22  A    between atoms: C_24  and  C_26
REMARK   23  A    between atoms: C_31  and  N_36
REMARK                            x       y       z     vdW  Elec       q    Type
REMARK                         _______ _______ _______ _____ _____    ______ ____
ROOT
ATOM      1  P   UNL     1       2.437   4.983  -0.158  0.00  0.00    +0.363 P 
ATOM      2  O   UNL     1       3.496   5.093  -1.214  0.00  0.00    -0.256 OA
ENDROOT
BRANCH   1   3
ATOM      3  O   UNL     1       1.949   6.401   0.407  0.00  0.00    -0.268 OA
BRANCH   3   4
ATOM      4  C   UNL     1       2.672   7.211   1.287  0.00  0.00    +0.410 C 
BRANCH   4   5
ATOM      5  O   UNL     1       2.355   6.889   2.636  0.00  0.00    -0.406 OA
BRANCH   5   6
ATOM      6  C   UNL     1       1.104   7.261   3.018  0.00  0.00    +0.512 C 
ATOM      7  O   UNL     1       0.318   7.909   2.351  0.00  0.00    -0.203 OA
BRANCH   6   8
ATOM      8  O   UNL     1       0.877   6.756   4.251  0.00  0.00    -0.431 OA
BRANCH   8   9
ATOM      9  C   UNL     1      -0.451   6.930   4.776  0.00  0.00    +0.174 C 
ATOM     10  C   UNL     1      -0.362   6.862   6.297  0.00  0.00    +0.052 C 
ATOM     11  C   UNL     1      -1.358   5.821   4.252  0.00  0.00    +0.052 C 
ENDBRANCH   8   9
ENDBRANCH   6   8
ENDBRANCH   5   6
ENDBRANCH   4   5
ENDBRANCH   3   4
ENDBRANCH   1   3
BRANCH   1  12
ATOM     12  C   UNL     1       2.870   3.909   1.216  0.00  0.00    +0.286 C 
BRANCH  12  13
ATOM     13  O   UNL     1       2.445   2.542   1.054  0.00  0.00    -0.366 OA
BRANCH  13  14
ATOM     14  C   UNL     1       2.907   1.836  -0.097  0.00  0.00    +0.185 C 
BRANCH  14  16
ATOM     15  C   UNL     1       4.758   0.724  -1.393  0.00  0.00    +0.033 C 
ATOM     16  C   UNL     1       4.412   1.504  -0.115  0.00  0.00    +0.113 C 
BRANCH  16  17
ATOM     17  N   UNL     1       4.892   0.749   1.039  0.00  0.00    -0.310 N 
ATOM     18  C   UNL     1       6.194   0.738   1.473  0.00  0.00    +0.166 A 
ATOM     19  C   UNL     1       6.267  -0.331   2.350  0.00  0.00    +0.147 A 
ATOM     20  C   UNL     1       7.539  -0.642   2.862  0.00  0.00    +0.147 A 
ATOM     21  N   UNL     1       8.582   0.150   2.525  0.00  0.00    -0.219 NA
ATOM     22  C   UNL     1       8.357   1.175   1.673  0.00  0.00    +0.225 A 
ATOM     23  N   UNL     1       5.026  -0.906   2.528  0.00  0.00    -0.231 NA
ATOM     24  N   UNL     1       7.200   1.538   1.082  0.00  0.00    -0.216 NA
ATOM     25  C   UNL     1       4.225  -0.227   1.733  0.00  0.00    +0.202 A 
BRANCH  20  26
ATOM     26  N   UNL     1       7.778  -1.734   3.685  0.00  0.00    -0.341 N 
ATOM     27  H   UNL     1       8.623  -1.638   4.231  0.00  0.00    +0.144 HD
ATOM     28  H   UNL     1       6.947  -2.095   4.138  0.00  0.00    +0.144 HD
ENDBRANCH  20  26
ENDBRANCH  16  17
ENDBRANCH  14  16
ENDBRANCH  13  14
ENDBRANCH  12  13
ENDBRANCH   1  12
BRANCH   1  29
ATOM     29  O   UNL     1       1.032   4.417  -0.739  0.00  0.00    -0.268 OA
BRANCH  29  30
ATOM     30  C   UNL     1       0.260   5.366  -1.454  0.00  0.00    +0.410 C 
BRANCH  30  31
ATOM     31  O   UNL     1      -0.960   4.830  -1.960  0.00  0.00    -0.406 OA
BRANCH  31  32
ATOM     32  C   UNL     1      -1.987   4.891  -1.082  0.00  0.00    +0.512 C 
ATOM     33  O   UNL     1      -1.905   5.127   0.114  0.00  0.00    -0.203 OA
BRANCH  32  34
ATOM     34  O   UNL     1      -3.141   4.689  -1.767  0.00  0.00    -0.431 OA
BRANCH  34  35
ATOM     35  C   UNL     1      -4.364   4.729  -1.011  0.00  0.00    +0.174 C 
ATOM     36  C   UNL     1      -5.454   4.126  -1.893  0.00  0.00    +0.052 C 
ATOM     37  C   UNL     1      -4.746   6.158  -0.630  0.00  0.00    +0.052 C 
ENDBRANCH  34  35
ENDBRANCH  32  34
ENDBRANCH  31  32
ENDBRANCH  30  31
ENDBRANCH  29  30
ENDBRANCH   1  29
TORSDOF 18
