REMARK  Name = 
REMARK  11 active torsions:
REMARK  status: ('A' for Active; 'I' for Inactive)
REMARK    1  A    between atoms: C_1  and  C_2
REMARK    2  A    between atoms: N_4  and  C_5
REMARK    3  A    between atoms: C_6  and  C_19
REMARK    4  A    between atoms: C_8  and  C_16
REMARK    5  A    between atoms: C_10  and  N_12
REMARK    6  A    between atoms: C_16  and  O_18
REMARK    7  A    between atoms: C_19  and  C_21
REMARK    8  A    between atoms: C_19  and  O_26
REMARK    9  A    between atoms: C_21  and  C_23
REMARK   10  A    between atoms: C_21  and  O_25
REMARK   11  A    between atoms: C_23  and  O_24
REMARK                            x       y       z     vdW  Elec       q    Type
REMARK                         _______ _______ _______ _____ _____    ______ ____
ROOT
ATOM      1  C   UNL     1       4.530  -1.012   0.418  0.00  0.00    +0.096 C 
ATOM      2  C   UNL     1       5.199  -2.374   0.605  0.00  0.00    +0.262 C 
ATOM      3  C   UNL     1       6.658  -2.316   0.274  0.00  0.00    +0.076 C 
ATOM      4  C   UNL     1       7.305  -1.144   0.175  0.00  0.00    +0.211 C 
ATOM      5  O   UNL     1       6.666   0.072   0.364  0.00  0.00    -0.449 OA
ATOM      6  C   UNL     1       5.273   0.116   0.404  0.00  0.00    +0.158 C 
ENDROOT
BRANCH   2   7
ATOM      7  N   UNL     1       4.591  -3.401  -0.238  0.00  0.00    -0.100 NA
ATOM      8  C   UNL     1       3.576  -4.053   0.189  0.00  0.00    +0.377 C 
ATOM      9  N   UNL     1       3.005  -5.001  -0.585  0.00  0.00    -0.289 N 
ATOM     10  H   UNL     1       1.996  -4.930  -0.644  0.00  0.00    +0.255 HD
ATOM     11  H   UNL     1       3.414  -5.004  -1.516  0.00  0.00    +0.255 HD
ATOM     12  N   UNL     1       2.903  -3.954   1.360  0.00  0.00    -0.289 N 
ATOM     13  H   UNL     1       2.392  -4.804   1.580  0.00  0.00    +0.255 HD
ATOM     14  H   UNL     1       3.463  -3.683   2.158  0.00  0.00    +0.255 HD
ENDBRANCH   2   7
BRANCH   1  17
ATOM     15  C   UNL     1       3.162  -0.875  -2.132  0.00  0.00    +0.109 C 
ATOM     16  C   UNL     1       2.433  -1.028  -0.818  0.00  0.00    +0.214 C 
ATOM     17  N   UNL     1       3.147  -0.969   0.364  0.00  0.00    -0.283 N 
ATOM     18  H   UNL     1       2.657  -1.601   0.997  0.00  0.00    +0.155 HD
ATOM     19  O   UNL     1       1.216  -1.212  -0.779  0.00  0.00    -0.276 OA
ENDBRANCH   1  17
BRANCH   4  20
ATOM     20  C   UNL     1       8.765  -1.118  -0.101  0.00  0.00    +0.372 C 
ATOM     21  O   UNL     1       9.461  -2.103  -0.274  0.00  0.00    -0.242 OA
BRANCH  20  22
ATOM     22  O   UNL     1       9.245   0.151  -0.135  0.00  0.00    -0.475 OA
ATOM     23  H   UNL     1       8.545   0.818   0.030  0.00  0.00    +0.296 HD
ENDBRANCH  20  22
ENDBRANCH   4  20
BRANCH   6  24
ATOM     24  C   UNL     1       4.718   1.520   0.543  0.00  0.00    +0.212 C 
BRANCH  24  25
ATOM     25  O   UNL     1       5.566   2.434  -0.163  0.00  0.00    -0.381 OA
ATOM     26  H   UNL     1       5.384   2.319  -1.111  0.00  0.00    +0.210 HD
ENDBRANCH  24  25
BRANCH  24  27
ATOM     27  C   UNL     1       4.607   1.947   2.034  0.00  0.00    +0.176 C 
BRANCH  27  28
ATOM     28  O   UNL     1       4.019   3.260   2.168  0.00  0.00    -0.387 OA
ATOM     29  H   UNL     1       3.243   3.302   1.588  0.00  0.00    +0.210 HD
ENDBRANCH  27  28
BRANCH  27  30
ATOM     30  C   UNL     1       5.951   1.993   2.773  0.00  0.00    +0.190 C 
BRANCH  30  31
ATOM     31  O   UNL     1       5.731   2.395   4.128  0.00  0.00    -0.392 OA
ATOM     32  H   UNL     1       5.166   3.191   4.059  0.00  0.00    +0.210 HD
ENDBRANCH  30  31
ENDBRANCH  27  30
ENDBRANCH  24  27
ENDBRANCH   6  24
TORSDOF 10
