REMARK  Name = 
REMARK  24 active torsions:
REMARK  status: ('A' for Active; 'I' for Inactive)
REMARK    1  A    between atoms: C_1  and  C_2
REMARK    2  A    between atoms: C_2  and  C_3
REMARK    3  A    between atoms: C_2  and  C_4
REMARK    4  A    between atoms: C_6  and  C_9
REMARK    5  A    between atoms: C_9  and  N_10
REMARK    6  A    between atoms: N_10  and  C_11
REMARK    7  A    between atoms: N_14  and  C_15
REMARK    8  A    between atoms: C_15  and  C_17
REMARK    9  A    between atoms: C_15  and  C_20
REMARK   10  A    between atoms: C_17  and  C_18
REMARK   11  A    between atoms: C_17  and  C_19
REMARK   12  A    between atoms: N_22  and  C_23
REMARK   13  A    between atoms: C_23  and  C_25
REMARK   14  A    between atoms: C_23  and  C_32
REMARK   15  A    between atoms: C_25  and  C_26
REMARK   16  A    between atoms: C_32  and  C_33
REMARK   17  A    between atoms: C_33  and  C_35
REMARK   18  A    between atoms: C_33  and  O_54
REMARK   19  A    between atoms: C_35  and  C_37
REMARK   20  A    between atoms: C_35  and  N_44
REMARK   21  A    between atoms: C_37  and  C_38
REMARK   22  A    between atoms: C_45  and  O_47
REMARK   23  A    between atoms: O_47  and  C_48
REMARK   24  A    between atoms: C_48  and  C_49
REMARK                            x       y       z     vdW  Elec       q    Type
REMARK                         _______ _______ _______ _____ _____    ______ ____
ROOT
ATOM      1  C   UNL     1       2.187  -5.034 -14.214  0.00  0.00    +0.080 C 
ENDROOT
BRANCH   1   3
ATOM      2  C   UNL     1       1.143  -2.778 -13.717  0.00  0.00    +0.234 C 
ATOM      3  N   UNL     1       1.979  -3.824 -13.363  0.00  0.00    -0.311 N 
ATOM      4  H   UNL     1       2.091  -3.948 -12.362  0.00  0.00    +0.149 HD
ATOM      5  O   UNL     1       0.625  -2.719 -14.833  0.00  0.00    -0.274 OA
BRANCH   2   6
ATOM      6  C   UNL     1       0.920  -1.617 -12.682  0.00  0.00    +0.163 C 
BRANCH   6   9
ATOM      7  N   UNL     1      -0.540  -1.896  -9.280  0.00  0.00    -0.283 N 
ATOM      8  C   UNL     1      -0.082  -1.292 -10.440  0.00  0.00    +0.303 C 
ATOM      9  N   UNL     1       0.547  -2.130 -11.347  0.00  0.00    -0.288 N 
ATOM     10  H   UNL     1       0.157  -3.060 -11.357  0.00  0.00    +0.151 HD
ATOM     11  O   UNL     1      -0.197  -0.073 -10.634  0.00  0.00    -0.253 OA
ATOM     12  C   UNL     1      -0.443  -3.316  -8.994  0.00  0.00    +0.134 C 
BRANCH   7  13
ATOM     13  C   UNL     1      -1.037  -1.041  -8.194  0.00  0.00    +0.164 C 
BRANCH  13  17
ATOM     14  C   UNL     1      -4.425  -1.899  -7.166  0.00  0.00    +0.081 A 
ATOM     15  S   UNL     1      -5.038  -0.690  -8.229  0.00  0.00    -0.080 S 
ATOM     16  C   UNL     1      -3.445  -0.335  -8.737  0.00  0.00    +0.071 A 
ATOM     17  C   UNL     1      -2.534  -1.124  -8.061  0.00  0.00    +0.066 A 
ATOM     18  N   UNL     1      -3.110  -2.020  -7.156  0.00  0.00    -0.247 NA
BRANCH  14  20
ATOM     19  C   UNL     1      -5.289  -4.213  -6.838  0.00  0.00    +0.014 C 
ATOM     20  C   UNL     1      -5.393  -2.757  -6.382  0.00  0.00    +0.038 C 
ATOM     21  C   UNL     1      -5.171  -2.643  -4.875  0.00  0.00    +0.014 C 
ENDBRANCH  14  20
ENDBRANCH  13  17
ENDBRANCH   7  13
ENDBRANCH   6   9
BRANCH   6  22
ATOM     22  C   UNL     1       2.039  -0.533 -12.649  0.00  0.00    +0.012 C 
ATOM     23  C   UNL     1       2.350   0.043 -14.035  0.00  0.00    +0.009 C 
ATOM     24  C   UNL     1       3.326  -0.956 -11.943  0.00  0.00    +0.009 C 
ENDBRANCH   6  22
ENDBRANCH   2   6
ENDBRANCH   1   3
BRANCH   1  25
ATOM     25  C   UNL     1       3.221  -4.836 -15.400  0.00  0.00    +0.055 C 
BRANCH  25  26
ATOM     26  C   UNL     1       2.830  -3.899 -16.563  0.00  0.00    +0.137 C 
BRANCH  26  27
ATOM     27  O   UNL     1       1.815  -4.487 -17.385  0.00  0.00    -0.390 OA
ATOM     28  H   UNL     1       1.274  -5.082 -16.844  0.00  0.00    +0.210 HD
ENDBRANCH  26  27
BRANCH  26  29
ATOM     29  C   UNL     1       4.001  -3.452 -17.515  0.00  0.00    +0.109 C 
BRANCH  29  30
ATOM     30  N   UNL     1       4.604  -4.573 -18.268  0.00  0.00    -0.275 N 
ATOM     31  H   UNL     1       4.261  -4.761 -19.211  0.00  0.00    +0.152 HD
ATOM     32  C   UNL     1       5.782  -5.173 -17.941  0.00  0.00    +0.401 C 
ATOM     33  O   UNL     1       6.447  -4.873 -16.965  0.00  0.00    -0.226 OA
BRANCH  32  34
ATOM     34  O   UNL     1       6.131  -6.116 -18.843  0.00  0.00    -0.445 OA
BRANCH  34  35
ATOM     35  C   UNL     1       7.533  -6.498 -18.894  0.00  0.00    +0.278 C 
BRANCH  35  36
ATOM     36  C   UNL     1       7.959  -7.478 -17.833  0.00  0.00    +0.046 A 
ATOM     37  S   UNL     1       6.890  -8.448 -16.916  0.00  0.00    -0.077 S 
ATOM     38  C   UNL     1       8.235  -9.149 -16.103  0.00  0.00    +0.156 A 
ATOM     39  N   UNL     1       9.416  -8.743 -16.496  0.00  0.00    -0.255 NA
ATOM     40  C   UNL     1       9.255  -7.784 -17.481  0.00  0.00    +0.125 A 
ENDBRANCH  35  36
ENDBRANCH  34  35
ENDBRANCH  32  34
ENDBRANCH  29  30
BRANCH  29  41
ATOM     41  C   UNL     1       3.440  -2.343 -18.473  0.00  0.00    +0.060 C 
BRANCH  41  42
ATOM     42  C   UNL     1       4.501  -1.598 -19.251  0.00  0.00    -0.046 A 
ATOM     43  C   UNL     1       5.507  -0.888 -18.580  0.00  0.00    +0.004 A 
ATOM     44  C   UNL     1       6.554  -0.300 -19.290  0.00  0.00    +0.000 A 
ATOM     45  C   UNL     1       6.590  -0.388 -20.679  0.00  0.00    +0.000 A 
ATOM     46  C   UNL     1       5.547  -1.008 -21.363  0.00  0.00    +0.000 A 
ATOM     47  C   UNL     1       4.498  -1.599 -20.653  0.00  0.00    +0.004 A 
ENDBRANCH  41  42
ENDBRANCH  29  41
ENDBRANCH  26  29
ENDBRANCH  25  26
ENDBRANCH   1  25
BRANCH   1  48
ATOM     48  C   UNL     1       2.720  -6.231 -13.350  0.00  0.00    +0.057 C 
BRANCH  48  49
ATOM     49  C   UNL     1       1.906  -6.608 -12.125  0.00  0.00    -0.046 A 
ATOM     50  C   UNL     1       2.372  -6.269 -10.844  0.00  0.00    +0.004 A 
ATOM     51  C   UNL     1       1.623  -6.571  -9.699  0.00  0.00    +0.000 A 
ATOM     52  C   UNL     1       0.411  -7.242  -9.820  0.00  0.00    +0.000 A 
ATOM     53  C   UNL     1      -0.034  -7.644 -11.079  0.00  0.00    +0.000 A 
ATOM     54  C   UNL     1       0.713  -7.338 -12.225  0.00  0.00    +0.004 A 
ENDBRANCH  48  49
ENDBRANCH   1  48
TORSDOF 19
