REMARK  Name = 
REMARK  5 active torsions:
REMARK  status: ('A' for Active; 'I' for Inactive)
REMARK    1  A    between atoms: C3*_2  and  O3*_19
REMARK    2  A    between atoms: C4*_3  and  C5*_17
REMARK    3  A    between atoms: C1*_5  and  N_6
REMARK    4  A    between atoms: C_8  and  C_14
REMARK    5  A    between atoms: C5*_17  and  O5*_18
REMARK                            x       y       z     vdW  Elec       q    Type
REMARK                         _______ _______ _______ _____ _____    ______ ____
ROOT
ATOM      1  N   UNL     1       1.393  -1.814  -1.045  0.00  0.00    -0.273 N 
ATOM      2  C   UNL     1       1.409  -3.190  -0.877  0.00  0.00    +0.331 A 
ATOM      3  O   UNL     1       0.946  -3.767   0.104  0.00  0.00    -0.246 OA
ATOM      4  N   UNL     1       1.940  -3.906  -1.915  0.00  0.00    -0.274 N 
ATOM      5  H   UNL     1       1.891  -4.909  -1.834  0.00  0.00    +0.173 HD
ATOM      6  C   UNL     1       2.219  -3.411  -3.159  0.00  0.00    +0.261 A 
ATOM      7  O   UNL     1       2.422  -4.154  -4.113  0.00  0.00    -0.267 OA
ATOM      8  C   UNL     1       2.239  -1.924  -3.288  0.00  0.00    +0.056 A 
ATOM      9  C   UNL     1       1.829  -1.228  -2.219  0.00  0.00    +0.106 A 
ENDROOT
BRANCH   1  11
ATOM     10  C2* UNL     1      -0.797  -1.039  -0.164  0.00  0.00    +0.088 C 
ATOM     11  C1* UNL     1       0.723  -1.025  -0.014  0.00  0.00    +0.226 C 
ATOM     12  O4* UNL     1       1.148   0.352  -0.050  0.00  0.00    -0.348 OA
ATOM     13  C4* UNL     1      -0.015   1.202  -0.180  0.00  0.00    +0.175 C 
ATOM     14  C3* UNL     1      -1.194   0.352   0.270  0.00  0.00    +0.150 C 
BRANCH  14  15
ATOM     15  O3* UNL     1      -1.337   0.387   1.691  0.00  0.00    -0.389 OA
ATOM     16  H3* UNL     1      -0.456   0.309   2.101  0.00  0.00    +0.210 HD
ENDBRANCH  14  15
BRANCH  13  17
ATOM     17  C5* UNL     1      -0.165   1.676  -1.635  0.00  0.00    +0.190 C 
BRANCH  17  18
ATOM     18  O5* UNL     1       0.982   2.405  -2.070  0.00  0.00    -0.392 OA
ATOM     19  H5* UNL     1       1.140   3.124  -1.433  0.00  0.00    +0.210 HD
ENDBRANCH  17  18
ENDBRANCH  13  17
ENDBRANCH   1  11
BRANCH   8  20
ATOM     20  C   UNL     1       2.545  -1.317  -4.574  0.00  0.00    +0.022 C 
ATOM     21  C   UNL     1       3.023  -0.080  -4.768  0.00  0.00    +0.052 C 
ATOM     22 BR   UNL     1       3.341   0.650  -6.445  0.00  0.00    -0.059 Br
ENDBRANCH   8  20
TORSDOF 5
