REMARK  Name = 
REMARK  17 active torsions:
REMARK  status: ('A' for Active; 'I' for Inactive)
REMARK    1  A    between atoms: C_1  and  C_2
REMARK    2  A    between atoms: C_2  and  C_3
REMARK    3  A    between atoms: C_2  and  C_4
REMARK    4  A    between atoms: C_2  and  N_5
REMARK    5  A    between atoms: C_6  and  C_8
REMARK    6  A    between atoms: N_11  and  C_44
REMARK    7  A    between atoms: N_14  and  C_15
REMARK    8  A    between atoms: C_15  and  C_16
REMARK    9  A    between atoms: C_16  and  C_18
REMARK   10  A    between atoms: C_16  and  O_43
REMARK   11  A    between atoms: C_18  and  C_19
REMARK   12  A    between atoms: C_19  and  C_21
REMARK   13  A    between atoms: C_19  and  C_28
REMARK   14  A    between atoms: C_21  and  C_22
REMARK   15  A    between atoms: N_30  and  C_31
REMARK   16  A    between atoms: C_33  and  O_42
REMARK   17  A    between atoms: C_44  and  C_45
REMARK                            x       y       z     vdW  Elec       q    Type
REMARK                         _______ _______ _______ _____ _____    ______ ____
ROOT
ATOM      1  C   UNL     1       4.000   3.463   6.107  0.00  0.00    +0.129 C 
ENDROOT
BRANCH   1   2
ATOM      2  O   UNL     1       3.747   4.169   7.330  0.00  0.00    -0.391 OA
ATOM      3  H   UNL     1       4.612   4.364   7.734  0.00  0.00    +0.210 HD
ENDBRANCH   1   2
BRANCH   1   4
ATOM      4  C   UNL     1       2.728   3.557   5.204  0.00  0.00    +0.116 C 
BRANCH   4   6
ATOM      5  C   UNL     1       0.381   3.296   4.452  0.00  0.00    +0.157 C 
ATOM      6  N   UNL     1       1.418   2.903   5.499  0.00  0.00    -0.287 NA
ATOM      7  C   UNL     1       0.797   3.301   6.787  0.00  0.00    +0.100 C 
ATOM      8  C   UNL     1       0.281   4.766   6.876  0.00  0.00    +0.100 C 
ATOM      9  N   UNL     1      -0.670   5.151   5.797  0.00  0.00    -0.295 NA
ATOM     10  C   UNL     1      -0.088   4.786   4.482  0.00  0.00    +0.113 C 
BRANCH   5  13
ATOM     11  N   UNL     1       1.266   1.533   3.050  0.00  0.00    -0.309 N 
ATOM     12  H   UNL     1       1.395   1.130   3.973  0.00  0.00    +0.149 HD
ATOM     13  C   UNL     1       0.822   2.847   3.052  0.00  0.00    +0.232 C 
ATOM     14  O   UNL     1       0.748   3.558   2.057  0.00  0.00    -0.274 OA
BRANCH  11  16
ATOM     15  C   UNL     1       2.841   1.429   1.147  0.00  0.00    +0.031 C 
ATOM     16  C   UNL     1       1.647   0.774   1.856  0.00  0.00    +0.026 C 
ATOM     17  C   UNL     1       2.062  -0.643   2.291  0.00  0.00    +0.031 C 
ATOM     18  C   UNL     1       0.446   0.654   0.907  0.00  0.00    +0.031 C 
ENDBRANCH  11  16
ENDBRANCH   5  13
BRANCH   9  19
ATOM     19  C   UNL     1      -0.979   6.593   5.915  0.00  0.00    +0.121 C 
BRANCH  19  20
ATOM     20  C   UNL     1      -2.027   7.155   4.981  0.00  0.00    -0.015 A 
ATOM     21  C   UNL     1      -3.351   6.707   4.971  0.00  0.00    +0.008 A 
ATOM     22  C   UNL     1      -4.299   7.352   4.173  0.00  0.00    +0.020 A 
ATOM     23  C   UNL     1      -3.892   8.429   3.403  0.00  0.00    +0.111 A 
ATOM     24  N   UNL     1      -2.626   8.892   3.380  0.00  0.00    -0.263 NA
ATOM     25  C   UNL     1      -1.731   8.249   4.167  0.00  0.00    +0.115 A 
ENDBRANCH  19  20
ENDBRANCH   9  19
ENDBRANCH   4   6
ENDBRANCH   1   4
BRANCH   1  26
ATOM     26  C   UNL     1       4.648   2.105   6.440  0.00  0.00    +0.045 C 
BRANCH  26  27
ATOM     27  C   UNL     1       5.018   1.125   5.300  0.00  0.00    +0.082 C 
BRANCH  27  28
ATOM     28  C   UNL     1       5.491  -0.203   5.904  0.00  0.00    +0.217 C 
ATOM     29  N   UNL     1       5.258  -1.316   5.125  0.00  0.00    -0.306 N 
ATOM     30  H   UNL     1       4.664  -1.246   4.310  0.00  0.00    +0.149 HD
ATOM     31  O   UNL     1       6.031  -0.278   7.005  0.00  0.00    -0.275 OA
BRANCH  29  32
ATOM     32  C   UNL     1       5.517  -2.648   5.662  0.00  0.00    +0.132 C 
ATOM     33  C   UNL     1       4.553  -3.661   5.119  0.00  0.00    -0.022 A 
ATOM     34  C   UNL     1       5.208  -4.705   4.466  0.00  0.00    -0.040 A 
ATOM     35  C   UNL     1       4.500  -5.779   3.940  0.00  0.00    +0.004 A 
ATOM     36  C   UNL     1       3.112  -5.799   4.081  0.00  0.00    +0.000 A 
ATOM     37  C   UNL     1       2.449  -4.755   4.741  0.00  0.00    +0.000 A 
ATOM     38  C   UNL     1       6.693  -4.523   4.460  0.00  0.00    +0.069 C 
ATOM     39  C   UNL     1       3.170  -3.677   5.266  0.00  0.00    +0.006 A 
ATOM     40  C   UNL     1       6.910  -3.229   5.258  0.00  0.00    +0.143 C 
BRANCH  40  41
ATOM     41  O   UNL     1       7.695  -2.330   4.468  0.00  0.00    -0.389 OA
ATOM     42  H   UNL     1       7.084  -1.658   4.119  0.00  0.00    +0.210 HD
ENDBRANCH  40  41
ENDBRANCH  29  32
ENDBRANCH  27  28
BRANCH  27  43
ATOM     43  C   UNL     1       5.951   1.625   4.163  0.00  0.00    +0.048 C 
BRANCH  43  44
ATOM     44  C   UNL     1       7.447   1.890   4.239  0.00  0.00    -0.047 A 
ATOM     45  C   UNL     1       8.025   2.568   3.141  0.00  0.00    +0.003 A 
ATOM     46  C   UNL     1       9.401   2.798   3.048  0.00  0.00    +0.000 A 
ATOM     47  C   UNL     1      10.245   2.337   4.046  0.00  0.00    +0.000 A 
ATOM     48  C   UNL     1       9.708   1.649   5.127  0.00  0.00    +0.000 A 
ATOM     49  C   UNL     1       8.323   1.426   5.226  0.00  0.00    +0.003 A 
ENDBRANCH  43  44
ENDBRANCH  27  43
ENDBRANCH  26  27
ENDBRANCH   1  26
TORSDOF 14
