REMARK  Name = 
REMARK  5 active torsions:
REMARK  status: ('A' for Active; 'I' for Inactive)
REMARK    1  A    between atoms: C_1  and  C_2
REMARK    2  A    between atoms: N_4  and  C_10
REMARK    3  A    between atoms: C_13  and  O_20
REMARK    4  A    between atoms: C_15  and  C_18
REMARK    5  A    between atoms: C_18  and  O_19
REMARK                            x       y       z     vdW  Elec       q    Type
REMARK                         _______ _______ _______ _____ _____    ______ ____
ROOT
ATOM      1  C   UNL     1       5.384   2.495  -0.411  0.00  0.00    +0.260 C 
ATOM      2  O   UNL     1       6.421   2.583   0.588  0.00  0.00    -0.345 OA
ATOM      3  C   UNL     1       6.676   3.994   0.813  0.00  0.00    +0.178 C 
ATOM      4  C   UNL     1       5.712   4.800  -0.065  0.00  0.00    +0.184 C 
ATOM      5  C   UNL     1       4.610   3.809  -0.350  0.00  0.00    +0.246 C 
ATOM      6  F   UNL     1       3.748   3.816   0.707  0.00  0.00    -0.238 F 
ENDROOT
BRANCH   1  15
ATOM      7  C   UNL     1       3.320  -0.994   2.501  0.00  0.00    +0.051 C 
ATOM      8  C   UNL     1       3.578  -0.340   1.185  0.00  0.00    +0.030 A 
ATOM      9  C   UNL     1       2.906  -0.920  -0.004  0.00  0.00    +0.257 A 
ATOM     10  O   UNL     1       2.168  -1.896   0.077  0.00  0.00    -0.267 OA
ATOM     11  N   UNL     1       3.147  -0.289  -1.191  0.00  0.00    -0.275 N 
ATOM     12  H   UNL     1       2.674  -0.651  -2.003  0.00  0.00    +0.173 HD
ATOM     13  C   UNL     1       3.903   0.838  -1.363  0.00  0.00    +0.331 A 
ATOM     14  O   UNL     1       3.960   1.389  -2.461  0.00  0.00    -0.246 OA
ATOM     15  N   UNL     1       4.563   1.302  -0.237  0.00  0.00    -0.271 N 
ATOM     16  C   UNL     1       4.366   0.729   1.003  0.00  0.00    +0.102 A 
ENDBRANCH   1  15
BRANCH   4  17
ATOM     17  O   UNL     1       6.366   5.180  -1.281  0.00  0.00    -0.386 OA
ATOM     18  H   UNL     1       5.798   5.826  -1.740  0.00  0.00    +0.210 HD
ENDBRANCH   4  17
BRANCH   3  19
ATOM     19  C   UNL     1       6.483   4.256   2.307  0.00  0.00    +0.190 C 
BRANCH  19  20
ATOM     20  O   UNL     1       7.460   3.530   3.054  0.00  0.00    -0.392 OA
ATOM     21  H   UNL     1       7.600   2.687   2.580  0.00  0.00    +0.210 HD
ENDBRANCH  19  20
ENDBRANCH   3  19
TORSDOF 4
