REMARK  Name = 
REMARK  5 active torsions:
REMARK  status: ('A' for Active; 'I' for Inactive)
REMARK    1  A    between atoms: C_1  and  C_2
REMARK    2  A    between atoms: N_4  and  C_10
REMARK    3  A    between atoms: C_13  and  O_20
REMARK    4  A    between atoms: C_15  and  C_18
REMARK    5  A    between atoms: C_18  and  O_19
REMARK                            x       y       z     vdW  Elec       q    Type
REMARK                         _______ _______ _______ _____ _____    ______ ____
ROOT
ATOM      1  C   UNL     1       5.447   2.453  -0.283  0.00  0.00    +0.260 C 
ATOM      2  O   UNL     1       6.495   2.557   0.703  0.00  0.00    -0.345 OA
ATOM      3  C   UNL     1       6.739   3.958   0.967  0.00  0.00    +0.178 C 
ATOM      4  C   UNL     1       5.772   4.770   0.103  0.00  0.00    +0.184 C 
ATOM      5  C   UNL     1       4.683   3.779  -0.240  0.00  0.00    +0.246 C 
ATOM      6  F   UNL     1       3.759   3.761   0.760  0.00  0.00    -0.238 F 
ENDROOT
BRANCH   1  15
ATOM      7  C   UNL     1       4.398  -1.682   2.314  0.00  0.00    +0.051 C 
ATOM      8  C   UNL     1       4.146  -0.706   1.213  0.00  0.00    +0.030 A 
ATOM      9  C   UNL     1       2.995  -0.964   0.318  0.00  0.00    +0.257 A 
ATOM     10  O   UNL     1       2.251  -1.925   0.476  0.00  0.00    -0.267 OA
ATOM     11  N   UNL     1       2.820  -0.070  -0.697  0.00  0.00    -0.275 N 
ATOM     12  H   UNL     1       2.049  -0.237  -1.324  0.00  0.00    +0.173 HD
ATOM     13  C   UNL     1       3.583   1.040  -0.939  0.00  0.00    +0.331 A 
ATOM     14  O   UNL     1       3.336   1.768  -1.899  0.00  0.00    -0.246 OA
ATOM     15  N   UNL     1       4.623   1.266  -0.047  0.00  0.00    -0.271 N 
ATOM     16  C   UNL     1       4.891   0.382   0.982  0.00  0.00    +0.102 A 
ENDBRANCH   1  15
BRANCH   4  17
ATOM     17  O   UNL     1       6.443   5.187  -1.095  0.00  0.00    -0.386 OA
ATOM     18  H   UNL     1       5.856   5.808  -1.564  0.00  0.00    +0.210 HD
ENDBRANCH   4  17
BRANCH   3  19
ATOM     19  C   UNL     1       6.582   4.196   2.473  0.00  0.00    +0.190 C 
BRANCH  19  20
ATOM     20  O   UNL     1       5.263   3.937   2.935  0.00  0.00    -0.392 OA
ATOM     21  H   UNL     1       4.986   3.074   2.571  0.00  0.00    +0.210 HD
ENDBRANCH  19  20
ENDBRANCH   3  19
TORSDOF 4
