REMARK  Name = 
REMARK  5 active torsions:
REMARK  status: ('A' for Active; 'I' for Inactive)
REMARK    1  A    between atoms: C_1  and  C_2
REMARK    2  A    between atoms: C_5  and  C_8
REMARK    3  A    between atoms: C_6  and  C_7
REMARK    4  A    between atoms: C_8  and  C_9
REMARK    5  A    between atoms: C_8  and  C_10
REMARK                            x       y       z     vdW  Elec       q    Type
REMARK                         _______ _______ _______ _____ _____    ______ ____
ROOT
ATOM      1  C   UNL     1       0.850   0.078   0.030  0.00  0.00    +0.008 C 
ATOM      2  C   UNL     1       2.372   0.025   0.057  0.00  0.00    -0.011 C 
ATOM      3  C   UNL     1       2.933  -1.348   0.507  0.00  0.00    -0.008 C 
ATOM      4  C   UNL     1       3.039  -2.277  -0.699  0.00  0.00    +0.008 C 
ATOM      5  C   UNL     1       4.229  -1.027   1.325  0.00  0.00    -0.005 C 
ATOM      6  C   UNL     1       4.384   0.504   1.204  0.00  0.00    +0.004 C 
ATOM      7  C   UNL     1       2.969   1.023   1.036  0.00  0.00    +0.004 C 
ENDROOT
BRANCH   5   8
ATOM      8  C   UNL     1       5.553  -1.776   1.018  0.00  0.00    -0.014 C 
ATOM      9  C   UNL     1       5.478  -3.287   1.262  0.00  0.00    +0.007 C 
ATOM     10  C   UNL     1       6.706  -1.242   1.891  0.00  0.00    +0.007 C 
ENDBRANCH   5   8
TORSDOF 1
