REMARK  Name = 
REMARK  5 active torsions:
REMARK  status: ('A' for Active; 'I' for Inactive)
REMARK    1  A    between atoms: C_1  and  C_2
REMARK    2  A    between atoms: C_5  and  C_8
REMARK    3  A    between atoms: C_6  and  C_7
REMARK    4  A    between atoms: C_8  and  C_9
REMARK    5  A    between atoms: C_8  and  C_10
REMARK                            x       y       z     vdW  Elec       q    Type
REMARK                         _______ _______ _______ _____ _____    ______ ____
ROOT
ATOM      1  C   UNL     1       0.883   0.196   0.039  0.00  0.00    +0.008 C 
ATOM      2  C   UNL     1       2.409   0.143   0.065  0.00  0.00    -0.011 C 
ATOM      3  C   UNL     1       2.972  -1.227   0.509  0.00  0.00    -0.008 C 
ATOM      4  C   UNL     1       3.078  -2.154  -0.697  0.00  0.00    +0.008 C 
ATOM      5  C   UNL     1       4.267  -0.906   1.326  0.00  0.00    -0.005 C 
ATOM      6  C   UNL     1       4.421   0.625   1.205  0.00  0.00    +0.004 C 
ATOM      7  C   UNL     1       3.006   1.143   1.040  0.00  0.00    +0.004 C 
ENDROOT
BRANCH   5   8
ATOM      8  C   UNL     1       5.591  -1.654   1.018  0.00  0.00    -0.014 C 
ATOM      9  C   UNL     1       5.516  -3.164   1.262  0.00  0.00    +0.007 C 
ATOM     10  C   UNL     1       6.745  -1.120   1.888  0.00  0.00    +0.007 C 
ENDBRANCH   5   8
TORSDOF 1
