REMARK  Name = 
REMARK  5 active torsions:
REMARK  status: ('A' for Active; 'I' for Inactive)
REMARK    1  A    between atoms: C_1  and  C_2
REMARK    2  A    between atoms: C_1  and  P_5
REMARK    3  A    between atoms: C_2  and  O_4
REMARK    4  A    between atoms: P_5  and  O_7
REMARK    5  A    between atoms: P_5  and  O_8
REMARK                            x       y       z     vdW  Elec       q    Type
REMARK                         _______ _______ _______ _____ _____    ______ ____
ROOT
ATOM      1  P   UNL     1       2.763   0.062   0.041  0.00  0.00    +0.338 P 
ATOM      2  O   UNL     1       2.788   0.464  -1.436  0.00  0.00    -0.258 OA
ENDROOT
BRANCH   1   3
ATOM      3  O   UNL     1       4.493   0.062   0.041  0.00  0.00    -0.324 OA
ATOM      4  H   UNL     1       4.729   0.649  -0.710  0.00  0.00    +0.220 HD
ENDBRANCH   1   3
BRANCH   1   5
ATOM      5  O   UNL     1       2.821   1.440   0.916  0.00  0.00    -0.324 OA
ATOM      6  H   UNL     1       3.399   1.350   1.700  0.00  0.00    +0.220 HD
ENDBRANCH   1   5
BRANCH   1   7
ATOM      7  C   UNL     1       0.933   0.062   0.041  0.00  0.00    +0.247 C 
BRANCH   7   8
ATOM      8  C   UNL     1       0.500  -1.286  -0.422  0.00  0.00    +0.316 C 
ATOM      9  O   UNL     1       0.333  -2.227   0.340  0.00  0.00    -0.250 OA
BRANCH   8  10
ATOM     10  O   UNL     1       0.374  -1.399  -1.756  0.00  0.00    -0.480 OA
ATOM     11  H   UNL     1       0.668  -0.603  -2.249  0.00  0.00    +0.295 HD
ENDBRANCH   8  10
ENDBRANCH   7   8
ENDBRANCH   1   7
TORSDOF 5
