REMARK  Name = 
REMARK  5 active torsions:
REMARK  status: ('A' for Active; 'I' for Inactive)
REMARK    1  A    between atoms: C_1  and  C_2
REMARK    2  A    between atoms: C_1  and  P_5
REMARK    3  A    between atoms: C_2  and  O_4
REMARK    4  A    between atoms: P_5  and  O_7
REMARK    5  A    between atoms: P_5  and  O_8
REMARK                            x       y       z     vdW  Elec       q    Type
REMARK                         _______ _______ _______ _____ _____    ______ ____
ROOT
ATOM      1  P   UNL     1       2.908  -0.060   0.018  0.00  0.00    +0.338 P 
ATOM      2  O   UNL     1       2.932   1.462   0.185  0.00  0.00    -0.258 OA
ENDROOT
BRANCH   1   3
ATOM      3  O   UNL     1       4.638  -0.060   0.018  0.00  0.00    -0.324 OA
ATOM      4  H   UNL     1       4.875   0.771   0.485  0.00  0.00    +0.220 HD
ENDBRANCH   1   3
BRANCH   1   5
ATOM      5  O   UNL     1       2.964  -0.708   1.517  0.00  0.00    -0.324 OA
ATOM      6  H   UNL     1       3.517  -1.514   1.548  0.00  0.00    +0.220 HD
ENDBRANCH   1   5
BRANCH   1   7
ATOM      7  C   UNL     1       1.078  -0.060   0.018  0.00  0.00    +0.247 C 
BRANCH   7   8
ATOM      8  C   UNL     1       0.652   0.173  -1.385  0.00  0.00    +0.316 C 
ATOM      9  O   UNL     1       0.501  -0.732  -2.195  0.00  0.00    -0.250 OA
BRANCH   8  10
ATOM     10  O   UNL     1       0.501   1.474  -1.712  0.00  0.00    -0.480 OA
ATOM     11  H   UNL     1       0.786   2.093  -1.004  0.00  0.00    +0.295 HD
ENDBRANCH   8  10
ENDBRANCH   7   8
ENDBRANCH   1   7
TORSDOF 5
