REMARK  Name = 
REMARK  4 active torsions:
REMARK  status: ('A' for Active; 'I' for Inactive)
REMARK    1  A    between atoms: C_1  and  O_3
REMARK    2  A    between atoms: C_1  and  P_4
REMARK    3  A    between atoms: P_4  and  O_6
REMARK    4  A    between atoms: P_4  and  O_7
REMARK                            x       y       z     vdW  Elec       q    Type
REMARK                         _______ _______ _______ _____ _____    ______ ____
ROOT
ATOM      1  P   UNL     1       2.776   0.037  -0.076  0.00  0.00    +0.434 P 
ATOM      2  O   UNL     1       2.822   1.275  -0.975  0.00  0.00    -0.247 OA
ENDROOT
BRANCH   1   3
ATOM      3  C   UNL     1       0.946   0.037  -0.076  0.00  0.00    +0.418 C 
ATOM      4  O   UNL     1       0.335   0.813   0.667  0.00  0.00    -0.237 OA
BRANCH   3   5
ATOM      5  O   UNL     1       0.240  -0.788  -0.910  0.00  0.00    -0.472 OA
ATOM      6  H   UNL     1       0.791  -1.304  -1.529  0.00  0.00    +0.296 HD
ENDBRANCH   3   5
ENDBRANCH   1   3
BRANCH   1   7
ATOM      7  O   UNL     1       4.506   0.037  -0.076  0.00  0.00    -0.316 OA
ATOM      8  H   UNL     1       4.778   0.855  -0.546  0.00  0.00    +0.220 HD
ENDBRANCH   1   7
BRANCH   1   9
ATOM      9  O   UNL     1       2.911   0.625   1.455  0.00  0.00    -0.316 OA
ATOM     10  H   UNL     1       3.564   1.346   1.486  0.00  0.00    +0.220 HD
ENDBRANCH   1   9
TORSDOF 4
REMARK  Name = 
REMARK  4 active torsions:
REMARK  status: ('A' for Active; 'I' for Inactive)
REMARK    1  A    between atoms: C_1  and  O_3
REMARK    2  A    between atoms: C_1  and  P_4
REMARK    3  A    between atoms: P_4  and  O_6
REMARK    4  A    between atoms: P_4  and  O_7
REMARK                            x       y       z     vdW  Elec       q    Type
REMARK                         _______ _______ _______ _____ _____    ______ ____
ROOT
ATOM      1 NA   UNL     1      -0.668   2.444   1.615  0.00  0.00    +0.000 Na
ENDROOT
TORSDOF 0
