REMARK  Name = 
REMARK  19 active torsions:
REMARK  status: ('A' for Active; 'I' for Inactive)
REMARK    1  A    between atoms: C_1  and  C_2
REMARK    2  A    between atoms: C_2  and  C_3
REMARK    3  A    between atoms: C_2  and  C_4
REMARK    4  A    between atoms: C_2  and  N_5
REMARK    5  A    between atoms: C_6  and  C_8
REMARK    6  A    between atoms: N_11  and  C_44
REMARK    7  A    between atoms: N_14  and  C_15
REMARK    8  A    between atoms: C_15  and  C_16
REMARK    9  A    between atoms: C_16  and  C_18
REMARK   10  A    between atoms: C_16  and  O_43
REMARK   11  A    between atoms: C_18  and  C_19
REMARK   12  A    between atoms: C_19  and  C_21
REMARK   13  A    between atoms: C_19  and  C_28
REMARK   14  A    between atoms: C_21  and  C_22
REMARK   15  A    between atoms: N_30  and  C_31
REMARK   16  A    between atoms: C_33  and  O_42
REMARK   17  A    between atoms: C_44  and  C_45
REMARK   18  A    between atoms: O_51  and  S_52
REMARK   19  A    between atoms: S_52  and  O_55
REMARK                            x       y       z     vdW  Elec       q    Type
REMARK                         _______ _______ _______ _____ _____    ______ ____
ROOT
ATOM      1  C   UNL     1       1.848   2.831  -5.568  0.00  0.00    +0.129 C 
ENDROOT
BRANCH   1   2
ATOM      2  O   UNL     1       1.467   3.853  -6.498  0.00  0.00    -0.391 OA
ATOM      3  H   UNL     1       0.704   3.517  -7.000  0.00  0.00    +0.210 HD
ENDBRANCH   1   2
BRANCH   1   4
ATOM      4  C   UNL     1       2.823   3.416  -4.494  0.00  0.00    +0.116 C 
BRANCH   4   6
ATOM      5  C   UNL     1       4.928   4.515  -3.701  0.00  0.00    +0.157 C 
ATOM      6  N   UNL     1       4.180   3.903  -4.872  0.00  0.00    -0.287 NA
ATOM      7  C   UNL     1       4.118   4.994  -5.881  0.00  0.00    +0.100 C 
ATOM      8  C   UNL     1       3.453   6.300  -5.374  0.00  0.00    +0.100 C 
ATOM      9  N   UNL     1       4.172   6.883  -4.217  0.00  0.00    -0.295 NA
ATOM     10  C   UNL     1       4.354   5.856  -3.161  0.00  0.00    +0.113 C 
BRANCH   5  13
ATOM     11  N   UNL     1       6.424   3.518  -2.015  0.00  0.00    -0.309 N 
ATOM     12  H   UNL     1       7.123   4.108  -2.447  0.00  0.00    +0.149 HD
ATOM     13  C   UNL     1       5.128   3.555  -2.511  0.00  0.00    +0.232 C 
ATOM     14  O   UNL     1       4.203   2.933  -1.996  0.00  0.00    -0.274 OA
BRANCH  11  16
ATOM     15  C   UNL     1       6.786   1.144  -1.452  0.00  0.00    +0.031 C 
ATOM     16  C   UNL     1       6.872   2.596  -0.956  0.00  0.00    +0.026 C 
ATOM     17  C   UNL     1       8.344   2.895  -0.620  0.00  0.00    +0.031 C 
ATOM     18  C   UNL     1       6.050   2.787   0.329  0.00  0.00    +0.031 C 
ENDBRANCH  11  16
ENDBRANCH   5  13
BRANCH   9  19
ATOM     19  C   UNL     1       3.454   8.073  -3.723  0.00  0.00    +0.121 C 
BRANCH  19  20
ATOM     20  C   UNL     1       4.212   8.857  -2.681  0.00  0.00    -0.015 A 
ATOM     21  C   UNL     1       3.644   9.172  -1.442  0.00  0.00    +0.008 A 
ATOM     22  C   UNL     1       4.377   9.900  -0.508  0.00  0.00    +0.020 A 
ATOM     23  C   UNL     1       5.660  10.298  -0.846  0.00  0.00    +0.111 A 
ATOM     24  N   UNL     1       6.237  10.034  -2.037  0.00  0.00    -0.263 NA
ATOM     25  C   UNL     1       5.500   9.327  -2.926  0.00  0.00    +0.115 A 
ENDBRANCH  19  20
ENDBRANCH   9  19
ENDBRANCH   4   6
ENDBRANCH   1   4
BRANCH   1  26
ATOM     26  C   UNL     1       2.317   1.567  -6.328  0.00  0.00    +0.045 C 
BRANCH  26  27
ATOM     27  C   UNL     1       2.651   0.339  -5.445  0.00  0.00    +0.082 C 
BRANCH  27  28
ATOM     28  C   UNL     1       3.397  -0.782  -6.218  0.00  0.00    +0.217 C 
ATOM     29  N   UNL     1       4.693  -0.479  -6.585  0.00  0.00    -0.306 N 
ATOM     30  H   UNL     1       5.091   0.376  -6.218  0.00  0.00    +0.149 HD
ATOM     31  O   UNL     1       2.872  -1.844  -6.536  0.00  0.00    -0.275 OA
BRANCH  29  32
ATOM     32  C   UNL     1       5.620  -1.354  -7.333  0.00  0.00    +0.132 C 
ATOM     33  C   UNL     1       6.130  -2.533  -6.548  0.00  0.00    -0.022 A 
ATOM     34  C   UNL     1       5.619  -3.737  -7.040  0.00  0.00    -0.040 A 
ATOM     35  C   UNL     1       5.824  -4.938  -6.376  0.00  0.00    +0.004 A 
ATOM     36  C   UNL     1       6.649  -4.942  -5.254  0.00  0.00    +0.000 A 
ATOM     37  C   UNL     1       7.288  -3.763  -4.845  0.00  0.00    +0.000 A 
ATOM     38  C   UNL     1       4.923  -3.554  -8.349  0.00  0.00    +0.069 C 
ATOM     39  C   UNL     1       7.023  -2.547  -5.485  0.00  0.00    +0.006 A 
ATOM     40  C   UNL     1       5.063  -2.040  -8.629  0.00  0.00    +0.143 C 
BRANCH  40  41
ATOM     41  O   UNL     1       3.824  -1.504  -9.086  0.00  0.00    -0.389 OA
ATOM     42  H   UNL     1       3.182  -1.723  -8.377  0.00  0.00    +0.210 HD
ENDBRANCH  40  41
ENDBRANCH  29  32
ENDBRANCH  27  28
BRANCH  27  43
ATOM     43  C   UNL     1       1.449  -0.182  -4.596  0.00  0.00    +0.048 C 
BRANCH  43  44
ATOM     44  C   UNL     1       0.070  -0.463  -5.186  0.00  0.00    -0.047 A 
ATOM     45  C   UNL     1      -1.073  -0.241  -4.395  0.00  0.00    +0.003 A 
ATOM     46  C   UNL     1      -2.359  -0.561  -4.852  0.00  0.00    +0.000 A 
ATOM     47  C   UNL     1      -2.526  -1.131  -6.113  0.00  0.00    +0.000 A 
ATOM     48  C   UNL     1      -1.403  -1.380  -6.901  0.00  0.00    +0.000 A 
ATOM     49  C   UNL     1      -0.124  -1.054  -6.438  0.00  0.00    +0.003 A 
ENDBRANCH  43  44
ENDBRANCH  27  43
ENDBRANCH  26  27
ENDBRANCH   1  26
TORSDOF 14
REMARK  Name = 
REMARK  19 active torsions:
REMARK  status: ('A' for Active; 'I' for Inactive)
REMARK    1  A    between atoms: C_1  and  C_2
REMARK    2  A    between atoms: C_2  and  C_3
REMARK    3  A    between atoms: C_2  and  C_4
REMARK    4  A    between atoms: C_2  and  N_5
REMARK    5  A    between atoms: C_6  and  C_8
REMARK    6  A    between atoms: N_11  and  C_44
REMARK    7  A    between atoms: N_14  and  C_15
REMARK    8  A    between atoms: C_15  and  C_16
REMARK    9  A    between atoms: C_16  and  C_18
REMARK   10  A    between atoms: C_16  and  O_43
REMARK   11  A    between atoms: C_18  and  C_19
REMARK   12  A    between atoms: C_19  and  C_21
REMARK   13  A    between atoms: C_19  and  C_28
REMARK   14  A    between atoms: C_21  and  C_22
REMARK   15  A    between atoms: N_30  and  C_31
REMARK   16  A    between atoms: C_33  and  O_42
REMARK   17  A    between atoms: C_44  and  C_45
REMARK   18  A    between atoms: O_51  and  S_52
REMARK   19  A    between atoms: S_52  and  O_55
REMARK                            x       y       z     vdW  Elec       q    Type
REMARK                         _______ _______ _______ _____ _____    ______ ____
ROOT
ATOM      1  S   UNL     1       2.990  -0.122   0.776  0.00  0.00    +0.205 S 
ATOM      2  O   UNL     1       3.704  -0.089  -0.483  0.00  0.00    -0.118 OA
ATOM      3  O   UNL     1       2.909  -1.315   1.571  0.00  0.00    -0.118 OA
ENDROOT
BRANCH   1   4
ATOM      4  O   UNL     1       1.477   0.318   0.480  0.00  0.00    -0.231 OA
ATOM      5  H   UNL     1       1.041  -0.434   0.028  0.00  0.00    +0.247 HD
ENDBRANCH   1   4
BRANCH   1   6
ATOM      6  O   UNL     1       3.490   1.074   1.716  0.00  0.00    -0.231 OA
ATOM      7  H   UNL     1       2.716   1.424   2.192  0.00  0.00    +0.247 HD
ENDBRANCH   1   6
TORSDOF 2
