REMARK  Name = 
REMARK  19 active torsions:
REMARK  status: ('A' for Active; 'I' for Inactive)
REMARK    1  A    between atoms: C_1  and  C_2
REMARK    2  A    between atoms: C_2  and  C_3
REMARK    3  A    between atoms: C_2  and  C_4
REMARK    4  A    between atoms: C_2  and  N_5
REMARK    5  A    between atoms: C_6  and  C_8
REMARK    6  A    between atoms: N_11  and  C_44
REMARK    7  A    between atoms: N_14  and  C_15
REMARK    8  A    between atoms: C_15  and  C_16
REMARK    9  A    between atoms: C_16  and  C_18
REMARK   10  A    between atoms: C_16  and  O_43
REMARK   11  A    between atoms: C_18  and  C_19
REMARK   12  A    between atoms: C_19  and  C_21
REMARK   13  A    between atoms: C_19  and  C_28
REMARK   14  A    between atoms: C_21  and  C_22
REMARK   15  A    between atoms: N_30  and  C_31
REMARK   16  A    between atoms: C_33  and  O_42
REMARK   17  A    between atoms: C_44  and  C_45
REMARK   18  A    between atoms: O_51  and  S_52
REMARK   19  A    between atoms: S_52  and  O_55
REMARK                            x       y       z     vdW  Elec       q    Type
REMARK                         _______ _______ _______ _____ _____    ______ ____
ROOT
ATOM      1  C   UNL     1      -1.225   0.100   5.749  0.00  0.00    +0.129 C 
ENDROOT
BRANCH   1   2
ATOM      2  O   UNL     1      -1.215  -1.252   5.281  0.00  0.00    -0.391 OA
ATOM      3  H   UNL     1      -1.624  -1.818   5.965  0.00  0.00    +0.210 HD
ENDBRANCH   1   2
BRANCH   1   4
ATOM      4  C   UNL     1      -1.524   1.034   4.551  0.00  0.00    +0.116 C 
BRANCH   4   6
ATOM      5  C   UNL     1      -3.349  -0.320   3.413  0.00  0.00    +0.157 C 
ATOM      6  N   UNL     1      -2.920   1.003   4.005  0.00  0.00    -0.287 NA
ATOM      7  C   UNL     1      -3.028   1.960   2.873  0.00  0.00    +0.100 C 
ATOM      8  C   UNL     1      -2.269   1.537   1.588  0.00  0.00    +0.100 C 
ATOM      9  N   UNL     1      -2.480   0.134   1.116  0.00  0.00    -0.295 NA
ATOM     10  C   UNL     1      -2.437  -0.811   2.269  0.00  0.00    +0.113 C 
BRANCH   5  13
ATOM     11  N   UNL     1      -4.443  -0.749   5.526  0.00  0.00    -0.309 N 
ATOM     12  H   UNL     1      -4.453   0.267   5.450  0.00  0.00    +0.149 HD
ATOM     13  C   UNL     1      -3.721  -1.347   4.502  0.00  0.00    +0.232 C 
ATOM     14  O   UNL     1      -3.477  -2.545   4.426  0.00  0.00    -0.274 OA
BRANCH  11  16
ATOM     15  C   UNL     1      -3.944  -0.971   7.924  0.00  0.00    +0.031 C 
ATOM     16  C   UNL     1      -4.911  -1.329   6.792  0.00  0.00    +0.026 C 
ATOM     17  C   UNL     1      -6.266  -0.684   7.110  0.00  0.00    +0.031 C 
ATOM     18  C   UNL     1      -5.051  -2.855   6.760  0.00  0.00    +0.031 C 
ENDBRANCH  11  16
ENDBRANCH   5  13
BRANCH   9  19
ATOM     19  C   UNL     1      -1.446  -0.133   0.098  0.00  0.00    +0.121 C 
BRANCH  19  20
ATOM     20  C   UNL     1      -1.402  -1.460  -0.620  0.00  0.00    -0.015 A 
ATOM     21  C   UNL     1      -1.008  -2.650   0.002  0.00  0.00    +0.008 A 
ATOM     22  C   UNL     1      -0.863  -3.820  -0.743  0.00  0.00    +0.020 A 
ATOM     23  C   UNL     1      -1.091  -3.765  -2.105  0.00  0.00    +0.111 A 
ATOM     24  N   UNL     1      -1.441  -2.637  -2.755  0.00  0.00    -0.263 NA
ATOM     25  C   UNL     1      -1.592  -1.520  -2.001  0.00  0.00    +0.115 A 
ENDBRANCH  19  20
ENDBRANCH   9  19
ENDBRANCH   4   6
ENDBRANCH   1   4
BRANCH   1  26
ATOM     26  C   UNL     1       0.168   0.253   6.357  0.00  0.00    +0.045 C 
BRANCH  26  27
ATOM     27  C   UNL     1       0.565   1.600   6.977  0.00  0.00    +0.082 C 
BRANCH  27  28
ATOM     28  C   UNL     1       1.996   1.453   7.504  0.00  0.00    +0.217 C 
ATOM     29  N   UNL     1       2.492   2.563   8.143  0.00  0.00    -0.306 N 
ATOM     30  H   UNL     1       2.021   3.445   8.003  0.00  0.00    +0.149 HD
ATOM     31  O   UNL     1       2.683   0.449   7.336  0.00  0.00    -0.275 OA
BRANCH  29  32
ATOM     32  C   UNL     1       3.870   2.610   8.595  0.00  0.00    +0.132 C 
ATOM     33  C   UNL     1       4.204   4.010   9.021  0.00  0.00    -0.022 A 
ATOM     34  C   UNL     1       4.546   4.077  10.369  0.00  0.00    -0.040 A 
ATOM     35  C   UNL     1       4.830   5.291  10.972  0.00  0.00    +0.004 A 
ATOM     36  C   UNL     1       4.780   6.451  10.199  0.00  0.00    +0.000 A 
ATOM     37  C   UNL     1       4.453   6.385   8.837  0.00  0.00    +0.000 A 
ATOM     38  C   UNL     1       4.567   2.732  11.015  0.00  0.00    +0.069 C 
ATOM     39  C   UNL     1       4.163   5.160   8.239  0.00  0.00    +0.006 A 
ATOM     40  C   UNL     1       4.170   1.765   9.883  0.00  0.00    +0.143 C 
BRANCH  40  41
ATOM     41  O   UNL     1       3.077   0.978  10.357  0.00  0.00    -0.389 OA
ATOM     42  H   UNL     1       2.271   1.340   9.953  0.00  0.00    +0.210 HD
ENDBRANCH  40  41
ENDBRANCH  29  32
ENDBRANCH  27  28
BRANCH  27  43
ATOM     43  C   UNL     1      -0.418   2.174   8.028  0.00  0.00    +0.048 C 
BRANCH  43  44
ATOM     44  C   UNL     1      -0.491   1.456   9.357  0.00  0.00    -0.047 A 
ATOM     45  C   UNL     1      -1.003   0.158   9.443  0.00  0.00    +0.003 A 
ATOM     46  C   UNL     1      -1.019  -0.548  10.644  0.00  0.00    +0.000 A 
ATOM     47  C   UNL     1      -0.514   0.043  11.793  0.00  0.00    +0.000 A 
ATOM     48  C   UNL     1      -0.031   1.348  11.742  0.00  0.00    +0.000 A 
ATOM     49  C   UNL     1      -0.038   2.060  10.537  0.00  0.00    +0.003 A 
ENDBRANCH  43  44
ENDBRANCH  27  43
ENDBRANCH  26  27
ENDBRANCH   1  26
TORSDOF 14
REMARK  Name = 
REMARK  19 active torsions:
REMARK  status: ('A' for Active; 'I' for Inactive)
REMARK    1  A    between atoms: C_1  and  C_2
REMARK    2  A    between atoms: C_2  and  C_3
REMARK    3  A    between atoms: C_2  and  C_4
REMARK    4  A    between atoms: C_2  and  N_5
REMARK    5  A    between atoms: C_6  and  C_8
REMARK    6  A    between atoms: N_11  and  C_44
REMARK    7  A    between atoms: N_14  and  C_15
REMARK    8  A    between atoms: C_15  and  C_16
REMARK    9  A    between atoms: C_16  and  C_18
REMARK   10  A    between atoms: C_16  and  O_43
REMARK   11  A    between atoms: C_18  and  C_19
REMARK   12  A    between atoms: C_19  and  C_21
REMARK   13  A    between atoms: C_19  and  C_28
REMARK   14  A    between atoms: C_21  and  C_22
REMARK   15  A    between atoms: N_30  and  C_31
REMARK   16  A    between atoms: C_33  and  O_42
REMARK   17  A    between atoms: C_44  and  C_45
REMARK   18  A    between atoms: O_51  and  S_52
REMARK   19  A    between atoms: S_52  and  O_55
REMARK                            x       y       z     vdW  Elec       q    Type
REMARK                         _______ _______ _______ _____ _____    ______ ____
ROOT
ATOM      1  S   UNL     1       3.254   0.016  -0.045  0.00  0.00    +0.205 S 
ATOM      2  O   UNL     1       3.622  -1.311   0.398  0.00  0.00    -0.118 OA
ATOM      3  O   UNL     1       3.683   1.219   0.602  0.00  0.00    -0.118 OA
ENDROOT
BRANCH   1   4
ATOM      4  O   UNL     1       1.658   0.026  -0.054  0.00  0.00    -0.231 OA
ATOM      5  H   UNL     1       1.383  -0.872   0.263  0.00  0.00    +0.247 HD
ENDBRANCH   1   4
BRANCH   1   6
ATOM      6  O   UNL     1       3.560   0.157  -1.611  0.00  0.00    -0.231 OA
ATOM      7  H   UNL     1       3.142   0.976  -1.924  0.00  0.00    +0.247 HD
ENDBRANCH   1   6
TORSDOF 2
