REMARK  Name = 
REMARK  11 active torsions:
REMARK  status: ('A' for Active; 'I' for Inactive)
REMARK    1  A    between atoms: C_1  and  C_2
REMARK    2  A    between atoms: C_5  and  C_7
REMARK    3  A    between atoms: N_9  and  C_10
REMARK    4  A    between atoms: C_10  and  C_11
REMARK    5  A    between atoms: C_10  and  C_12
REMARK    6  A    between atoms: C_10  and  C_13
REMARK    7  A    between atoms: C_15  and  C_22
REMARK    8  A    between atoms: C_16  and  O_21
REMARK    9  A    between atoms: N_19  and  C_20
REMARK   10  A    between atoms: N_24  and  C_25
REMARK   11  A    between atoms: C_25  and  C_26
REMARK                            x       y       z     vdW  Elec       q    Type
REMARK                         _______ _______ _______ _____ _____    ______ ____
ROOT
ATOM      1  C   UNL     1       5.540  -5.858  -0.002  0.00  0.00    +0.136 A 
ATOM      2  N   UNL     1       4.162  -5.970  -0.091  0.00  0.00    -0.295 N 
ATOM      3  C   UNL     1       3.245  -4.841  -0.141  0.00  0.00    +0.154 C 
ATOM      4  C   UNL     1       3.562  -7.214  -0.003  0.00  0.00    +0.296 A 
ATOM      5  O   UNL     1       2.352  -7.418   0.115  0.00  0.00    -0.264 OA
ATOM      6  C   UNL     1       4.444  -8.399  -0.059  0.00  0.00    +0.213 A 
ATOM      7  C   UNL     1       5.763  -8.168  -0.089  0.00  0.00    +0.174 A 
ATOM      8  N   UNL     1       6.322  -6.904  -0.021  0.00  0.00    -0.223 NA
ENDROOT
BRANCH   7   9
ATOM      9  C   UNL     1       6.695  -9.365  -0.181  0.00  0.00    +0.267 C 
ATOM     10  N   UNL     1       8.029  -9.033  -0.178  0.00  0.00    -0.306 N 
ATOM     11  H   UNL     1       8.265  -8.052  -0.094  0.00  0.00    +0.149 HD
ATOM     12  O   UNL     1       6.323 -10.532  -0.258  0.00  0.00    -0.268 OA
BRANCH  10  13
ATOM     13  C   UNL     1       9.062 -10.042  -0.171  0.00  0.00    +0.140 C 
BRANCH  13  14
ATOM     14  C   UNL     1      10.022  -9.860  -1.318  0.00  0.00    -0.030 A 
ATOM     15  C   UNL     1       9.781 -10.488  -2.552  0.00  0.00    +0.008 A 
ATOM     16  C   UNL     1      10.667 -10.316  -3.617  0.00  0.00    +0.038 A 
ATOM     17  C   UNL     1      11.787  -9.511  -3.452  0.00  0.00    +0.123 A 
ATOM     18  F   UNL     1      12.635  -9.340  -4.475  0.00  0.00    -0.205 F 
ATOM     19  C   UNL     1      12.041  -8.878  -2.241  0.00  0.00    +0.038 A 
ATOM     20  C   UNL     1      11.159  -9.051  -1.174  0.00  0.00    +0.008 A 
ENDBRANCH  13  14
ENDBRANCH  10  13
ENDBRANCH   7   9
BRANCH   1  21
ATOM     21  C   UNL     1       6.267  -4.440  -0.038  0.00  0.00    +0.087 C 
ATOM     22  C   UNL     1       7.651  -4.562   0.644  0.00  0.00    +0.039 C 
ATOM     23  C   UNL     1       6.518  -4.126  -1.529  0.00  0.00    +0.039 C 
BRANCH  21  25
ATOM     24  C   UNL     1       5.247  -3.071   1.865  0.00  0.00    +0.301 C 
ATOM     25  N   UNL     1       5.553  -3.278   0.525  0.00  0.00    -0.295 N 
ATOM     26  H   UNL     1       5.498  -2.440  -0.049  0.00  0.00    +0.150 HD
ATOM     27  O   UNL     1       5.398  -3.952   2.704  0.00  0.00    -0.265 OA
BRANCH  24  31
ATOM     28  C   UNL     1       3.168   0.620   4.248  0.00  0.00    +0.111 C 
ATOM     29  C   UNL     1       3.773  -0.119   3.123  0.00  0.00    +0.215 A 
ATOM     30  O   UNL     1       4.233  -1.383   3.370  0.00  0.00    -0.417 OA
ATOM     31  C   UNL     1       4.687  -1.755   2.128  0.00  0.00    +0.304 A 
ATOM     32  N   UNL     1       4.533  -0.806   1.222  0.00  0.00    -0.102 NA
ATOM     33  N   UNL     1       3.935   0.254   1.873  0.00  0.00    -0.112 NA
ENDBRANCH  24  31
ENDBRANCH  21  25
ENDBRANCH   1  21
BRANCH   6  34
ATOM     34  O   UNL     1       3.840  -9.641  -0.045  0.00  0.00    -0.501 OA
ATOM     35  H   UNL     1       2.906  -9.486   0.201  0.00  0.00    +0.292 HD
ENDBRANCH   6  34
TORSDOF 7
