REMARK  Name = 
REMARK  15 active torsions:
REMARK  status: ('A' for Active; 'I' for Inactive)
REMARK    1  A    between atoms: C_1  and  C_2
REMARK    2  A    between atoms: C_2  and  C_3
REMARK    3  A    between atoms: C_3  and  C_4
REMARK    4  A    between atoms: C_4  and  C_36
REMARK    5  A    between atoms: C_6  and  O_35
REMARK    6  A    between atoms: C_7  and  C_11
REMARK    7  A    between atoms: C_11  and  C_13
REMARK    8  A    between atoms: C_11  and  C_15
REMARK    9  A    between atoms: C_13  and  C_14
REMARK   10  A    between atoms: C_17  and  N_21
REMARK   11  A    between atoms: N_21  and  S_22
REMARK   12  A    between atoms: S_22  and  C_25
REMARK   13  A    between atoms: C_28  and  C_31
REMARK   14  A    between atoms: C_36  and  C_37
REMARK   15  A    between atoms: C_37  and  C_38
REMARK                            x       y       z     vdW  Elec       q    Type
REMARK                         _______ _______ _______ _____ _____    ______ ____
ROOT
ATOM      1  C   UNL     1       7.130  -1.251   2.919  0.00  0.00    +0.059 C 
ENDROOT
BRANCH   1   6
ATOM      2  C   UNL     1       4.599   1.492   0.532  0.00  0.00    +0.121 C 
ATOM      3  O   UNL     1       5.092   0.170   0.231  0.00  0.00    -0.454 OA
ATOM      4  C   UNL     1       5.226  -0.694   1.266  0.00  0.00    +0.339 C 
ATOM      5  O   UNL     1       4.717  -1.801   1.272  0.00  0.00    -0.245 OA
ATOM      6  C   UNL     1       6.167  -0.213   2.307  0.00  0.00    +0.081 C 
ATOM      7  C   UNL     1       5.984   1.080   2.647  0.00  0.00    +0.108 C 
ATOM      8  C   UNL     1       5.018   1.983   1.940  0.00  0.00    +0.122 C 
BRANCH   7   9
ATOM      9  O   UNL     1       6.641   1.656   3.715  0.00  0.00    -0.510 OA
ATOM     10  H   UNL     1       6.438   2.605   3.771  0.00  0.00    +0.292 HD
ENDBRANCH   7   9
BRANCH   2  11
ATOM     11  C   UNL     1       5.143   2.439  -0.571  0.00  0.00    +0.048 C 
BRANCH  11  13
ATOM     12  C   UNL     1       7.126   3.484  -1.728  0.00  0.00    +0.004 C 
ATOM     13  C   UNL     1       6.675   2.523  -0.637  0.00  0.00    +0.000 C 
ENDBRANCH  11  13
ENDBRANCH   2  11
BRANCH   2  14
ATOM     14  C   UNL     1       3.052   1.432   0.483  0.00  0.00    +0.053 C 
BRANCH  14  15
ATOM     15  C   UNL     1       2.448   0.904  -0.823  0.00  0.00    +0.039 C 
BRANCH  15  16
ATOM     16  C   UNL     1       0.944   0.857  -0.711  0.00  0.00    -0.047 A 
ATOM     17  C   UNL     1       0.307  -0.286  -0.209  0.00  0.00    +0.003 A 
ATOM     18  C   UNL     1      -1.076  -0.299  -0.031  0.00  0.00    +0.000 A 
ATOM     19  C   UNL     1      -1.832   0.827  -0.349  0.00  0.00    +0.000 A 
ATOM     20  C   UNL     1      -1.209   1.965  -0.857  0.00  0.00    +0.000 A 
ATOM     21  C   UNL     1       0.174   1.981  -1.038  0.00  0.00    +0.003 A 
ENDBRANCH  15  16
ENDBRANCH  14  15
ENDBRANCH   2  14
ENDBRANCH   1   6
BRANCH   1  22
ATOM     22  C   UNL     1       8.307  -0.593   3.653  0.00  0.00    -0.038 A 
ATOM     23  C   UNL     1       9.250   0.189   2.960  0.00  0.00    +0.004 A 
ATOM     24  C   UNL     1      10.178   0.969   3.656  0.00  0.00    +0.002 A 
ATOM     25  C   UNL     1      10.196   0.958   5.050  0.00  0.00    +0.024 A 
ATOM     26  C   UNL     1       9.314   0.134   5.746  0.00  0.00    +0.048 A 
ATOM     27  C   UNL     1       8.378  -0.640   5.056  0.00  0.00    +0.028 A 
BRANCH  26  28
ATOM     28  N   UNL     1       9.297   0.146   7.169  0.00  0.00    -0.215 N 
ATOM     29  H   UNL     1      10.195   0.097   7.647  0.00  0.00    +0.174 HD
BRANCH  28  30
ATOM     30  S   UNL     1       8.293   1.280   7.942  0.00  0.00    +0.090 S 
ATOM     31  O   UNL     1       8.434   2.551   7.257  0.00  0.00    -0.148 OA
ATOM     32  O   UNL     1       8.586   1.186   9.360  0.00  0.00    -0.148 OA
BRANCH  30  33
ATOM     33  C   UNL     1       6.626   0.680   7.680  0.00  0.00    +0.197 A 
ATOM     34  C   UNL     1       5.707   1.479   7.017  0.00  0.00    +0.050 A 
ATOM     35  C   UNL     1       4.457   0.932   6.749  0.00  0.00    +0.017 A 
ATOM     36  C   UNL     1       4.165  -0.376   7.162  0.00  0.00    +0.073 A 
ATOM     37  C   UNL     1       5.148  -1.075   7.853  0.00  0.00    +0.125 A 
ATOM     38  N   UNL     1       6.382  -0.585   8.114  0.00  0.00    -0.235 NA
BRANCH  36  39
ATOM     39  C   UNL     1       2.847  -1.010   6.841  0.00  0.00    +0.419 C 
ATOM     40  F   UNL     1       2.613  -1.050   5.499  0.00  0.00    -0.166 F 
ATOM     41  F   UNL     1       1.797  -0.333   7.380  0.00  0.00    -0.166 F 
ATOM     42  F   UNL     1       2.733  -2.293   7.279  0.00  0.00    -0.166 F 
ENDBRANCH  36  39
ENDBRANCH  30  33
ENDBRANCH  28  30
ENDBRANCH  26  28
ENDBRANCH   1  22
BRANCH   1  43
ATOM     43  C   UNL     1       7.649  -2.296   1.884  0.00  0.00    +0.010 C 
ATOM     44  C   UNL     1       8.486  -3.424   2.479  0.00  0.00    +0.005 C 
ENDBRANCH   1  43
TORSDOF 13
