REMARK  Name = 
REMARK  15 active torsions:
REMARK  status: ('A' for Active; 'I' for Inactive)
REMARK    1  A    between atoms: C_1  and  C_2
REMARK    2  A    between atoms: C_2  and  C_3
REMARK    3  A    between atoms: C_3  and  C_4
REMARK    4  A    between atoms: C_4  and  C_35
REMARK    5  A    between atoms: C_6  and  O_34
REMARK    6  A    between atoms: C_7  and  C_11
REMARK    7  A    between atoms: C_11  and  C_12
REMARK    8  A    between atoms: C_11  and  C_14
REMARK    9  A    between atoms: C_12  and  C_13
REMARK   10  A    between atoms: C_16  and  N_20
REMARK   11  A    between atoms: N_20  and  S_21
REMARK   12  A    between atoms: S_21  and  C_24
REMARK   13  A    between atoms: C_27  and  C_30
REMARK   14  A    between atoms: C_35  and  C_36
REMARK   15  A    between atoms: C_36  and  C_37
REMARK                            x       y       z     vdW  Elec       q    Type
REMARK                         _______ _______ _______ _____ _____    ______ ____
ROOT
ATOM      1  C   UNL     1       7.095   0.838  -2.564  0.00  0.00    +0.059 C 
ENDROOT
BRANCH   1   6
ATOM      2  C   UNL     1       4.556   0.732   1.051  0.00  0.00    +0.121 C 
ATOM      3  O   UNL     1       4.858   1.836   0.164  0.00  0.00    -0.454 OA
ATOM      4  C   UNL     1       5.075   1.600  -1.144  0.00  0.00    +0.339 C 
ATOM      5  O   UNL     1       4.557   2.274  -2.025  0.00  0.00    -0.245 OA
ATOM      6  C   UNL     1       6.107   0.570  -1.408  0.00  0.00    +0.081 C 
ATOM      7  C   UNL     1       5.974  -0.531  -0.643  0.00  0.00    +0.108 C 
ATOM      8  C   UNL     1       4.963  -0.639   0.459  0.00  0.00    +0.122 C 
BRANCH   7   9
ATOM      9  O   UNL     1       6.746  -1.652  -0.846  0.00  0.00    -0.510 OA
ATOM     10  H   UNL     1       6.395  -2.413  -0.356  0.00  0.00    +0.292 HD
ENDBRANCH   7   9
BRANCH   2  11
ATOM     11  C   UNL     1       3.012   0.744   1.251  0.00  0.00    +0.048 C 
BRANCH  11  13
ATOM     12  C   UNL     1       0.918   2.057   1.809  0.00  0.00    +0.004 C 
ATOM     13  C   UNL     1       2.437   2.083   1.735  0.00  0.00    +0.000 C 
ENDBRANCH  11  13
ENDBRANCH   2  11
BRANCH   2  14
ATOM     14  C   UNL     1       5.289   1.004   2.392  0.00  0.00    +0.053 C 
BRANCH  14  15
ATOM     15  C   UNL     1       6.820   1.004   2.276  0.00  0.00    +0.039 C 
BRANCH  15  16
ATOM     16  C   UNL     1       7.487   1.268   3.605  0.00  0.00    -0.047 A 
ATOM     17  C   UNL     1       7.756   2.580   4.015  0.00  0.00    +0.003 A 
ATOM     18  C   UNL     1       8.373   2.823   5.243  0.00  0.00    +0.000 A 
ATOM     19  C   UNL     1       8.722   1.758   6.072  0.00  0.00    +0.000 A 
ATOM     20  C   UNL     1       8.452   0.450   5.676  0.00  0.00    +0.000 A 
ATOM     21  C   UNL     1       7.834   0.205   4.449  0.00  0.00    +0.003 A 
ENDBRANCH  15  16
ENDBRANCH  14  15
ENDBRANCH   2  14
ENDBRANCH   1   6
BRANCH   1  22
ATOM     22  C   UNL     1       8.323  -0.087  -2.518  0.00  0.00    -0.038 A 
ATOM     23  C   UNL     1       9.243  -0.004  -1.456  0.00  0.00    +0.004 A 
ATOM     24  C   UNL     1      10.224  -0.983  -1.287  0.00  0.00    +0.002 A 
ATOM     25  C   UNL     1      10.325  -2.039  -2.193  0.00  0.00    +0.024 A 
ATOM     26  C   UNL     1       9.468  -2.096  -3.292  0.00  0.00    +0.048 A 
ATOM     27  C   UNL     1       8.466  -1.133  -3.451  0.00  0.00    +0.028 A 
BRANCH  26  28
ATOM     28  N   UNL     1       9.556  -3.193  -4.205  0.00  0.00    -0.215 N 
ATOM     29  H   UNL     1      10.502  -3.517  -4.420  0.00  0.00    +0.174 HD
BRANCH  28  30
ATOM     30  S   UNL     1       8.574  -4.543  -3.856  0.00  0.00    +0.090 S 
ATOM     31  O   UNL     1       7.212  -4.247  -4.249  0.00  0.00    -0.148 OA
ATOM     32  O   UNL     1       8.898  -5.018  -2.524  0.00  0.00    -0.148 OA
BRANCH  30  33
ATOM     33  C   UNL     1       9.199  -5.791  -4.994  0.00  0.00    +0.197 A 
ATOM     34  C   UNL     1       8.574  -7.026  -5.079  0.00  0.00    +0.050 A 
ATOM     35  C   UNL     1       9.083  -7.939  -6.000  0.00  0.00    +0.017 A 
ATOM     36  C   UNL     1      10.179  -7.588  -6.803  0.00  0.00    +0.073 A 
ATOM     37  C   UNL     1      10.737  -6.325  -6.620  0.00  0.00    +0.125 A 
ATOM     38  N   UNL     1      10.287  -5.413  -5.724  0.00  0.00    -0.235 NA
BRANCH  36  39
ATOM     39  C   UNL     1      10.736  -8.532  -7.830  0.00  0.00    +0.419 C 
ATOM     40  F   UNL     1       9.805  -8.909  -8.749  0.00  0.00    -0.166 F 
ATOM     41  F   UNL     1      11.206  -9.684  -7.278  0.00  0.00    -0.166 F 
ATOM     42  F   UNL     1      11.772  -8.010  -8.542  0.00  0.00    -0.166 F 
ENDBRANCH  36  39
ENDBRANCH  30  33
ENDBRANCH  28  30
ENDBRANCH  26  28
ENDBRANCH   1  22
BRANCH   1  43
ATOM     43  C   UNL     1       7.533   2.333  -2.652  0.00  0.00    +0.010 C 
ATOM     44  C   UNL     1       8.393   2.674  -3.866  0.00  0.00    +0.005 C 
ENDBRANCH   1  43
TORSDOF 13
