REMARK  Name = 
REMARK  15 active torsions:
REMARK  status: ('A' for Active; 'I' for Inactive)
REMARK    1  A    between atoms: C_1  and  C_2
REMARK    2  A    between atoms: C_2  and  C_3
REMARK    3  A    between atoms: C_3  and  C_4
REMARK    4  A    between atoms: C_4  and  C_36
REMARK    5  A    between atoms: C_6  and  O_35
REMARK    6  A    between atoms: C_7  and  C_11
REMARK    7  A    between atoms: C_11  and  C_13
REMARK    8  A    between atoms: C_11  and  C_15
REMARK    9  A    between atoms: C_13  and  C_14
REMARK   10  A    between atoms: C_17  and  N_21
REMARK   11  A    between atoms: N_21  and  S_22
REMARK   12  A    between atoms: S_22  and  C_25
REMARK   13  A    between atoms: C_28  and  C_31
REMARK   14  A    between atoms: C_36  and  C_37
REMARK   15  A    between atoms: C_37  and  C_38
REMARK                            x       y       z     vdW  Elec       q    Type
REMARK                         _______ _______ _______ _____ _____    ______ ____
ROOT
ATOM      1  C   UNL     1       6.954  -3.281  -3.748  0.00  0.00    +0.059 C 
ENDROOT
BRANCH   1   6
ATOM      2  C   UNL     1      10.760  -4.105  -1.651  0.00  0.00    +0.121 C 
ATOM      3  O   UNL     1      10.441  -4.484  -3.011  0.00  0.00    -0.454 OA
ATOM      4  C   UNL     1       9.284  -4.250  -3.657  0.00  0.00    +0.339 C 
ATOM      5  O   UNL     1       9.112  -4.676  -4.794  0.00  0.00    -0.245 OA
ATOM      6  C   UNL     1       8.246  -3.462  -2.950  0.00  0.00    +0.081 C 
ATOM      7  C   UNL     1       8.526  -2.907  -1.759  0.00  0.00    +0.108 C 
ATOM      8  C   UNL     1       9.843  -3.018  -1.077  0.00  0.00    +0.122 C 
BRANCH   7   9
ATOM      9  O   UNL     1       7.587  -2.172  -1.060  0.00  0.00    -0.510 OA
ATOM     10  H   UNL     1       8.009  -1.706  -0.316  0.00  0.00    +0.292 HD
ENDBRANCH   7   9
BRANCH   2  11
ATOM     11  C   UNL     1      12.180  -3.488  -1.733  0.00  0.00    +0.048 C 
BRANCH  11  13
ATOM     12  C   UNL     1      14.562  -3.621  -2.506  0.00  0.00    +0.004 C 
ATOM     13  C   UNL     1      13.254  -4.384  -2.352  0.00  0.00    +0.000 C 
ENDBRANCH  11  13
ENDBRANCH   2  11
BRANCH   2  14
ATOM     14  C   UNL     1      10.738  -5.384  -0.776  0.00  0.00    +0.053 C 
BRANCH  14  15
ATOM     15  C   UNL     1       9.343  -6.008  -0.601  0.00  0.00    +0.039 C 
BRANCH  15  16
ATOM     16  C   UNL     1       9.377  -7.240   0.268  0.00  0.00    -0.047 A 
ATOM     17  C   UNL     1       9.585  -8.501  -0.301  0.00  0.00    +0.003 A 
ATOM     18  C   UNL     1       9.615  -9.642   0.502  0.00  0.00    +0.000 A 
ATOM     19  C   UNL     1       9.434  -9.533   1.879  0.00  0.00    +0.000 A 
ATOM     20  C   UNL     1       9.239  -8.280   2.458  0.00  0.00    +0.000 A 
ATOM     21  C   UNL     1       9.211  -7.136   1.657  0.00  0.00    +0.003 A 
ENDBRANCH  15  16
ENDBRANCH  14  15
ENDBRANCH   2  14
ENDBRANCH   1   6
BRANCH   1  22
ATOM     22  C   UNL     1       6.011  -4.483  -3.639  0.00  0.00    -0.038 A 
ATOM     23  C   UNL     1       5.786  -5.142  -2.422  0.00  0.00    +0.004 A 
ATOM     24  C   UNL     1       4.884  -6.205  -2.342  0.00  0.00    +0.002 A 
ATOM     25  C   UNL     1       4.159  -6.595  -3.466  0.00  0.00    +0.024 A 
ATOM     26  C   UNL     1       4.352  -5.933  -4.674  0.00  0.00    +0.048 A 
ATOM     27  C   UNL     1       5.299  -4.914  -4.775  0.00  0.00    +0.028 A 
BRANCH  26  28
ATOM     28  N   UNL     1       3.587  -6.302  -5.804  0.00  0.00    -0.215 N 
ATOM     29  H   UNL     1       3.910  -7.011  -6.456  0.00  0.00    +0.174 HD
BRANCH  28  30
ATOM     30  S   UNL     1       2.069  -5.634  -6.066  0.00  0.00    +0.090 S 
ATOM     31  O   UNL     1       1.327  -5.685  -4.819  0.00  0.00    -0.148 OA
ATOM     32  O   UNL     1       1.533  -6.257  -7.260  0.00  0.00    -0.148 OA
BRANCH  30  33
ATOM     33  C   UNL     1       2.388  -3.906  -6.444  0.00  0.00    +0.197 A 
ATOM     34  C   UNL     1       1.860  -2.903  -5.646  0.00  0.00    +0.050 A 
ATOM     35  C   UNL     1       2.220  -1.588  -5.940  0.00  0.00    +0.017 A 
ATOM     36  C   UNL     1       3.092  -1.320  -7.007  0.00  0.00    +0.073 A 
ATOM     37  C   UNL     1       3.538  -2.401  -7.761  0.00  0.00    +0.125 A 
ATOM     38  N   UNL     1       3.218  -3.691  -7.503  0.00  0.00    -0.235 NA
BRANCH  36  39
ATOM     39  C   UNL     1       3.601   0.066  -7.277  0.00  0.00    +0.419 C 
ATOM     40  F   UNL     1       4.279   0.591  -6.217  0.00  0.00    -0.166 F 
ATOM     41  F   UNL     1       2.604   0.950  -7.547  0.00  0.00    -0.166 F 
ATOM     42  F   UNL     1       4.463   0.135  -8.329  0.00  0.00    -0.166 F 
ENDBRANCH  36  39
ENDBRANCH  30  33
ENDBRANCH  28  30
ENDBRANCH  26  28
ENDBRANCH   1  22
BRANCH   1  43
ATOM     43  C   UNL     1       6.223  -1.953  -3.432  0.00  0.00    +0.010 C 
ATOM     44  C   UNL     1       5.125  -1.616  -4.411  0.00  0.00    +0.005 C 
ENDBRANCH   1  43
TORSDOF 13
