REMARK  Name = 
REMARK  15 active torsions:
REMARK  status: ('A' for Active; 'I' for Inactive)
REMARK    1  A    between atoms: C_1  and  C_2
REMARK    2  A    between atoms: C_2  and  C_3
REMARK    3  A    between atoms: C_3  and  C_4
REMARK    4  A    between atoms: C_4  and  C_36
REMARK    5  A    between atoms: C_6  and  O_35
REMARK    6  A    between atoms: C_7  and  C_11
REMARK    7  A    between atoms: C_11  and  C_13
REMARK    8  A    between atoms: C_11  and  C_15
REMARK    9  A    between atoms: C_13  and  C_14
REMARK   10  A    between atoms: C_17  and  N_21
REMARK   11  A    between atoms: N_21  and  S_22
REMARK   12  A    between atoms: S_22  and  C_25
REMARK   13  A    between atoms: C_28  and  C_31
REMARK   14  A    between atoms: C_36  and  C_37
REMARK   15  A    between atoms: C_37  and  C_38
REMARK                            x       y       z     vdW  Elec       q    Type
REMARK                         _______ _______ _______ _____ _____    ______ ____
ROOT
ATOM      1  C   UNL     1       6.986   1.183  -2.728  0.00  0.00    +0.059 C 
ENDROOT
BRANCH   1   6
ATOM      2  C   UNL     1       4.442   1.078   0.884  0.00  0.00    +0.121 C 
ATOM      3  O   UNL     1       4.733   2.185  -0.004  0.00  0.00    -0.454 OA
ATOM      4  C   UNL     1       4.967   1.952  -1.315  0.00  0.00    +0.339 C 
ATOM      5  O   UNL     1       4.460   2.629  -2.198  0.00  0.00    -0.245 OA
ATOM      6  C   UNL     1       5.998   0.918  -1.572  0.00  0.00    +0.081 C 
ATOM      7  C   UNL     1       5.862  -0.183  -0.805  0.00  0.00    +0.108 C 
ATOM      8  C   UNL     1       4.828  -0.291   0.276  0.00  0.00    +0.122 C 
BRANCH   7   9
ATOM      9  O   UNL     1       6.647  -1.300  -0.981  0.00  0.00    -0.510 OA
ATOM     10  H   UNL     1       6.255  -2.075  -0.548  0.00  0.00    +0.292 HD
ENDBRANCH   7   9
BRANCH   2  11
ATOM     11  C   UNL     1       2.901   1.100   1.109  0.00  0.00    +0.048 C 
BRANCH  11  13
ATOM     12  C   UNL     1       0.830   2.425   1.723  0.00  0.00    +0.004 C 
ATOM     13  C   UNL     1       2.348   2.436   1.626  0.00  0.00    +0.000 C 
ENDBRANCH  11  13
ENDBRANCH   2  11
BRANCH   2  14
ATOM     14  C   UNL     1       5.192   1.336   2.218  0.00  0.00    +0.053 C 
BRANCH  14  15
ATOM     15  C   UNL     1       6.723   1.312   2.096  0.00  0.00    +0.039 C 
BRANCH  15  16
ATOM     16  C   UNL     1       7.396   1.571   3.422  0.00  0.00    -0.047 A 
ATOM     17  C   UNL     1       7.679   2.880   3.831  0.00  0.00    +0.003 A 
ATOM     18  C   UNL     1       8.301   3.118   5.058  0.00  0.00    +0.000 A 
ATOM     19  C   UNL     1       8.639   2.052   5.889  0.00  0.00    +0.000 A 
ATOM     20  C   UNL     1       8.353   0.746   5.497  0.00  0.00    +0.000 A 
ATOM     21  C   UNL     1       7.731   0.505   4.270  0.00  0.00    +0.003 A 
ENDBRANCH  15  16
ENDBRANCH  14  15
ENDBRANCH   2  14
ENDBRANCH   1   6
BRANCH   1  22
ATOM     22  C   UNL     1       8.207   0.251  -2.685  0.00  0.00    -0.038 A 
ATOM     23  C   UNL     1       9.137   0.334  -1.632  0.00  0.00    +0.004 A 
ATOM     24  C   UNL     1      10.109  -0.652  -1.462  0.00  0.00    +0.002 A 
ATOM     25  C   UNL     1      10.193  -1.717  -2.360  0.00  0.00    +0.024 A 
ATOM     26  C   UNL     1       9.327  -1.775  -3.452  0.00  0.00    +0.048 A 
ATOM     27  C   UNL     1       8.333  -0.804  -3.611  0.00  0.00    +0.028 A 
BRANCH  26  28
ATOM     28  N   UNL     1       9.396  -2.878  -4.356  0.00  0.00    -0.215 N 
ATOM     29  H   UNL     1      10.336  -3.217  -4.574  0.00  0.00    +0.174 HD
BRANCH  28  30
ATOM     30  S   UNL     1       8.393  -4.210  -3.996  0.00  0.00    +0.090 S 
ATOM     31  O   UNL     1       7.032  -3.890  -4.375  0.00  0.00    -0.148 OA
ATOM     32  O   UNL     1       8.721  -4.691  -2.669  0.00  0.00    -0.148 OA
BRANCH  30  33
ATOM     33  C   UNL     1       8.984  -5.466  -5.142  0.00  0.00    +0.197 A 
ATOM     34  C   UNL     1       8.332  -6.684  -5.229  0.00  0.00    +0.050 A 
ATOM     35  C   UNL     1       8.814  -7.605  -6.160  0.00  0.00    +0.017 A 
ATOM     36  C   UNL     1       9.913  -7.273  -6.968  0.00  0.00    +0.073 A 
ATOM     37  C   UNL     1      10.502  -6.024  -6.781  0.00  0.00    +0.125 A 
ATOM     38  N   UNL     1      10.074  -5.107  -5.877  0.00  0.00    -0.235 NA
BRANCH  36  39
ATOM     39  C   UNL     1      10.440  -8.219  -8.003  0.00  0.00    +0.419 C 
ATOM     40  F   UNL     1       9.492  -8.576  -8.914  0.00  0.00    -0.166 F 
ATOM     41  F   UNL     1      10.893  -9.386  -7.464  0.00  0.00    -0.166 F 
ATOM     42  F   UNL     1      11.478  -7.716  -8.725  0.00  0.00    -0.166 F 
ENDBRANCH  36  39
ENDBRANCH  30  33
ENDBRANCH  28  30
ENDBRANCH  26  28
ENDBRANCH   1  22
BRANCH   1  43
ATOM     43  C   UNL     1       7.436   2.675  -2.825  0.00  0.00    +0.010 C 
ATOM     44  C   UNL     1       8.285   3.004  -4.049  0.00  0.00    +0.005 C 
ENDBRANCH   1  43
TORSDOF 13
