REMARK  Name = 
REMARK  15 active torsions:
REMARK  status: ('A' for Active; 'I' for Inactive)
REMARK    1  A    between atoms: C_1  and  C_2
REMARK    2  A    between atoms: C_2  and  C_3
REMARK    3  A    between atoms: C_3  and  C_4
REMARK    4  A    between atoms: C_4  and  C_35
REMARK    5  A    between atoms: C_6  and  O_34
REMARK    6  A    between atoms: C_7  and  C_11
REMARK    7  A    between atoms: C_11  and  C_12
REMARK    8  A    between atoms: C_11  and  C_14
REMARK    9  A    between atoms: C_12  and  C_13
REMARK   10  A    between atoms: C_16  and  N_20
REMARK   11  A    between atoms: N_20  and  S_21
REMARK   12  A    between atoms: S_21  and  C_24
REMARK   13  A    between atoms: C_27  and  C_30
REMARK   14  A    between atoms: C_35  and  C_36
REMARK   15  A    between atoms: C_36  and  C_37
REMARK                            x       y       z     vdW  Elec       q    Type
REMARK                         _______ _______ _______ _____ _____    ______ ____
ROOT
ATOM      1  C   UNL     1       7.152  -1.330  -2.736  0.00  0.00    +0.059 C 
ENDROOT
BRANCH   1   6
ATOM      2  C   UNL     1       4.575  -1.336   0.839  0.00  0.00    +0.121 C 
ATOM      3  O   UNL     1       4.959  -0.239  -0.024  0.00  0.00    -0.454 OA
ATOM      4  C   UNL     1       5.154  -0.483  -1.344  0.00  0.00    +0.339 C 
ATOM      5  O   UNL     1       4.668   0.213  -2.219  0.00  0.00    -0.245 OA
ATOM      6  C   UNL     1       6.130  -1.568  -1.605  0.00  0.00    +0.081 C 
ATOM      7  C   UNL     1       5.916  -2.669  -0.858  0.00  0.00    +0.108 C 
ATOM      8  C   UNL     1       4.853  -2.720   0.199  0.00  0.00    +0.122 C 
BRANCH   7   9
ATOM      9  O   UNL     1       6.638  -3.828  -1.032  0.00  0.00    -0.510 OA
ATOM     10  H   UNL     1       6.209  -4.576  -0.586  0.00  0.00    +0.292 HD
ENDBRANCH   7   9
BRANCH   2  11
ATOM     11  C   UNL     1       3.039  -1.198   1.051  0.00  0.00    +0.048 C 
BRANCH  11  13
ATOM     12  C   UNL     1       1.062   0.236   1.701  0.00  0.00    +0.004 C 
ATOM     13  C   UNL     1       2.580   0.150   1.623  0.00  0.00    +0.000 C 
ENDBRANCH  11  13
ENDBRANCH   2  11
BRANCH   2  14
ATOM     14  C   UNL     1       5.335  -1.175   2.184  0.00  0.00    +0.053 C 
BRANCH  14  15
ATOM     15  C   UNL     1       6.862  -1.304   2.069  0.00  0.00    +0.039 C 
BRANCH  15  16
ATOM     16  C   UNL     1       7.542  -1.178   3.411  0.00  0.00    -0.047 A 
ATOM     17  C   UNL     1       7.910   0.080   3.908  0.00  0.00    +0.003 A 
ATOM     18  C   UNL     1       8.538   0.193   5.150  0.00  0.00    +0.000 A 
ATOM     19  C   UNL     1       8.799  -0.947   5.908  0.00  0.00    +0.000 A 
ATOM     20  C   UNL     1       8.432  -2.202   5.425  0.00  0.00    +0.000 A 
ATOM     21  C   UNL     1       7.805  -2.318   4.183  0.00  0.00    +0.003 A 
ENDBRANCH  15  16
ENDBRANCH  14  15
ENDBRANCH   2  14
ENDBRANCH   1   6
BRANCH   1  22
ATOM     22  C   UNL     1       8.323  -2.324  -2.694  0.00  0.00    -0.038 A 
ATOM     23  C   UNL     1       9.232  -2.314  -1.620  0.00  0.00    +0.004 A 
ATOM     24  C   UNL     1      10.159  -3.347  -1.462  0.00  0.00    +0.002 A 
ATOM     25  C   UNL     1      10.218  -4.385  -2.392  0.00  0.00    +0.024 A 
ATOM     26  C   UNL     1       9.373  -4.374  -3.502  0.00  0.00    +0.048 A 
ATOM     27  C   UNL     1       8.423  -3.357  -3.650  0.00  0.00    +0.028 A 
BRANCH  26  28
ATOM     28  N   UNL     1       9.418  -5.454  -4.438  0.00  0.00    -0.215 N 
ATOM     29  H   UNL     1      10.348  -5.829  -4.640  0.00  0.00    +0.174 HD
BRANCH  28  30
ATOM     30  S   UNL     1       8.351  -6.751  -4.138  0.00  0.00    +0.090 S 
ATOM     31  O   UNL     1       7.019  -6.368  -4.562  0.00  0.00    -0.148 OA
ATOM     32  O   UNL     1       8.609  -7.268  -2.810  0.00  0.00    -0.148 OA
BRANCH  30  33
ATOM     33  C   UNL     1       8.928  -8.016  -5.285  0.00  0.00    +0.197 A 
ATOM     34  C   UNL     1       8.219  -9.200  -5.425  0.00  0.00    +0.050 A 
ATOM     35  C   UNL     1       8.689 -10.122  -6.359  0.00  0.00    +0.017 A 
ATOM     36  C   UNL     1       9.831  -9.827  -7.120  0.00  0.00    +0.073 A 
ATOM     37  C   UNL     1      10.474  -8.616  -6.880  0.00  0.00    +0.125 A 
ATOM     38  N   UNL     1      10.063  -7.699  -5.971  0.00  0.00    -0.235 NA
BRANCH  36  39
ATOM     39  C   UNL     1      10.340 -10.774  -8.170  0.00  0.00    +0.419 C 
ATOM     40  F   UNL     1       9.405 -11.044  -9.122  0.00  0.00    -0.166 F 
ATOM     41  F   UNL     1      10.705 -11.979  -7.652  0.00  0.00    -0.166 F 
ATOM     42  F   UNL     1      11.430 -10.309  -8.839  0.00  0.00    -0.166 F 
ENDBRANCH  36  39
ENDBRANCH  30  33
ENDBRANCH  28  30
ENDBRANCH  26  28
ENDBRANCH   1  22
BRANCH   1  43
ATOM     43  C   UNL     1       7.672   0.141  -2.776  0.00  0.00    +0.010 C 
ATOM     44  C   UNL     1       8.555   0.475  -3.974  0.00  0.00    +0.005 C 
ENDBRANCH   1  43
TORSDOF 13
