REMARK  Name = 
REMARK  5 active torsions:
REMARK  status: ('A' for Active; 'I' for Inactive)
REMARK    1  A    between atoms: C_1  and  C_2
REMARK    2  A    between atoms: C_13  and  O_32
REMARK    3  A    between atoms: C_16  and  C_20
REMARK    4  A    between atoms: N_22  and  C_23
REMARK    5  A    between atoms: C_23  and  C_24
REMARK                            x       y       z     vdW  Elec       q    Type
REMARK                         _______ _______ _______ _____ _____    ______ ____
ROOT
ATOM      1  C   UNL     1       0.871  -0.339  -0.072  0.00  0.00    +0.028 C 
ATOM      2  C   UNL     1       2.398  -0.184  -0.148  0.00  0.00    +0.078 C 
ATOM      3  N   UNL     1       2.981   0.752   0.820  0.00  0.00    -0.266 N 
ATOM      4  C   UNL     1       2.554   2.073   0.803  0.00  0.00    +0.269 C 
ATOM      5  C   UNL     1       3.462   3.109   1.423  0.00  0.00    +0.151 A 
ATOM      6  N   UNL     1       4.711   2.741   1.949  0.00  0.00    -0.335 N 
ATOM      7  C   UNL     1       5.151   1.340   1.883  0.00  0.00    +0.173 C 
ATOM      8  C   UNL     1       5.656   3.748   2.146  0.00  0.00    +0.103 A 
ATOM      9  C   UNL     1       5.397   5.065   2.082  0.00  0.00    +0.103 A 
ATOM     10  C   UNL     1       3.968   5.423   1.926  0.00  0.00    +0.236 A 
ATOM     11  O   UNL     1       3.540   6.527   2.251  0.00  0.00    -0.283 OA
ATOM     12  C   UNL     1       3.054   4.395   1.340  0.00  0.00    +0.194 A 
ATOM     13  O   UNL     1       1.525   2.441   0.233  0.00  0.00    -0.268 OA
ATOM     14  C   UNL     1       3.975   0.345   1.812  0.00  0.00    +0.228 C 
ATOM     15  O   UNL     1       4.578  -0.914   1.521  0.00  0.00    -0.357 OA
ATOM     16  C   UNL     1       3.684  -1.933   1.133  0.00  0.00    +0.164 C 
ATOM     17  C   UNL     1       3.070  -1.554  -0.190  0.00  0.00    +0.050 C 
ENDROOT
BRANCH   9  18
ATOM     18  C   UNL     1       6.525   6.024   2.201  0.00  0.00    +0.250 C 
ATOM     19  N   UNL     1       6.553   7.153   1.438  0.00  0.00    -0.307 N 
ATOM     20  H   UNL     1       7.350   7.759   1.638  0.00  0.00    +0.149 HD
ATOM     21  O   UNL     1       7.489   5.768   2.927  0.00  0.00    -0.270 OA
BRANCH  19  22
ATOM     22  C   UNL     1       5.499   7.689   0.605  0.00  0.00    +0.142 C 
BRANCH  22  23
ATOM     23  C   UNL     1       5.964   8.639  -0.454  0.00  0.00    +0.005 A 
ATOM     24  C   UNL     1       5.824  10.024  -0.283  0.00  0.00    +0.011 A 
ATOM     25  C   UNL     1       6.144  10.891  -1.328  0.00  0.00    +0.039 A 
ATOM     26  C   UNL     1       6.609  10.373  -2.533  0.00  0.00    +0.126 A 
ATOM     27  F   UNL     1       6.896  11.207  -3.540  0.00  0.00    -0.205 F 
ATOM     28  C   UNL     1       6.766   9.006  -2.716  0.00  0.00    +0.077 A 
ATOM     29  C   UNL     1       6.444   8.149  -1.674  0.00  0.00    +0.131 A 
ATOM     30  F   UNL     1       6.553   6.827  -1.870  0.00  0.00    -0.205 F 
ENDBRANCH  22  23
ENDBRANCH  19  22
ENDBRANCH   9  18
BRANCH  12  31
ATOM     31  O   UNL     1       1.881   4.850   0.760  0.00  0.00    -0.502 OA
ATOM     32  H   UNL     1       1.394   4.074   0.401  0.00  0.00    +0.292 HD
ENDBRANCH  12  31
TORSDOF 4
