REMARK  Name = 
REMARK  10 active torsions:
REMARK  status: ('A' for Active; 'I' for Inactive)
REMARK    1  A    between atoms: C_1  and  C_2
REMARK    2  A    between atoms: C_5  and  C_7
REMARK    3  A    between atoms: N_9  and  C_10
REMARK    4  A    between atoms: C_10  and  C_11
REMARK    5  A    between atoms: C_10  and  C_12
REMARK    6  A    between atoms: C_10  and  C_13
REMARK    7  A    between atoms: C_15  and  C_22
REMARK    8  A    between atoms: N_19  and  C_20
REMARK    9  A    between atoms: N_24  and  C_25
REMARK   10  A    between atoms: C_25  and  C_26
REMARK                            x       y       z     vdW  Elec       q    Type
REMARK                         _______ _______ _______ _____ _____    ______ ____
ROOT
ATOM      1  C   UNL     1       5.360  -5.802   0.034  0.00  0.00    +0.136 A 
ATOM      2  N   UNL     1       3.991  -5.868  -0.091  0.00  0.00    -0.299 N 
ATOM      3  C   UNL     1       3.113  -4.712  -0.142  0.00  0.00    +0.154 C 
ATOM      4  C   UNL     1       3.330  -7.094  -0.021  0.00  0.00    +0.247 A 
ATOM      5  O   UNL     1       2.096  -7.140   0.058  0.00  0.00    -0.268 OA
ATOM      6  C   UNL     1       4.173  -8.363  -0.039  0.00  0.00    -0.010 A 
ATOM      7  O   UNL     1       3.522  -9.457  -0.114  0.00  0.00    -0.869 OA
ATOM      8  C   UNL     1       5.507  -8.121   0.033  0.00  0.00    +0.125 A 
ATOM      9  N   UNL     1       6.090  -6.871   0.096  0.00  0.00    -0.227 NA
ENDROOT
BRANCH   8  10
ATOM     10  C   UNL     1       6.512  -9.315   0.015  0.00  0.00    +0.262 C 
ATOM     11  N   UNL     1       5.951 -10.566   0.075  0.00  0.00    -0.306 N 
ATOM     12  H   UNL     1       4.922 -10.548   0.048  0.00  0.00    +0.149 HD
ATOM     13  O   UNL     1       7.732  -9.143  -0.045  0.00  0.00    -0.269 OA
BRANCH  11  14
ATOM     14  C   UNL     1       6.634 -11.827   0.004  0.00  0.00    +0.140 C 
BRANCH  14  15
ATOM     15  C   UNL     1       6.276 -12.719   1.174  0.00  0.00    -0.030 A 
ATOM     16  C   UNL     1       7.268 -13.163   2.063  0.00  0.00    +0.008 A 
ATOM     17  C   UNL     1       6.932 -13.960   3.160  0.00  0.00    +0.038 A 
ATOM     18  C   UNL     1       5.605 -14.316   3.370  0.00  0.00    +0.123 A 
ATOM     19  F   UNL     1       5.287 -15.069   4.435  0.00  0.00    -0.205 F 
ATOM     20  C   UNL     1       4.608 -13.902   2.499  0.00  0.00    +0.038 A 
ATOM     21  C   UNL     1       4.942 -13.107   1.400  0.00  0.00    +0.008 A 
ENDBRANCH  14  15
ENDBRANCH  11  14
ENDBRANCH   8  10
BRANCH   1  22
ATOM     22  C   UNL     1       6.162  -4.407  -0.027  0.00  0.00    +0.087 C 
ATOM     23  C   UNL     1       7.550  -4.617   0.623  0.00  0.00    +0.039 C 
ATOM     24  C   UNL     1       6.359  -4.074  -1.519  0.00  0.00    +0.039 C 
BRANCH  22  26
ATOM     25  C   UNL     1       5.933  -1.958   0.713  0.00  0.00    +0.301 C 
ATOM     26  N   UNL     1       5.505  -3.285   0.684  0.00  0.00    -0.295 N 
ATOM     27  H   UNL     1       4.791  -3.520   1.362  0.00  0.00    +0.150 HD
ATOM     28  O   UNL     1       6.959  -1.567   0.157  0.00  0.00    -0.265 OA
BRANCH  25  32
ATOM     29  C   UNL     1       4.176   2.105   2.721  0.00  0.00    +0.111 C 
ATOM     30  C   UNL     1       4.230   0.687   2.322  0.00  0.00    +0.215 A 
ATOM     31  O   UNL     1       5.341   0.257   1.640  0.00  0.00    -0.417 OA
ATOM     32  C   UNL     1       5.043  -1.075   1.454  0.00  0.00    +0.304 A 
ATOM     33  N   UNL     1       3.875  -1.413   1.976  0.00  0.00    -0.102 NA
ATOM     34  N   UNL     1       3.348  -0.265   2.525  0.00  0.00    -0.112 NA
ENDBRANCH  25  32
ENDBRANCH  22  26
ENDBRANCH   1  22
TORSDOF 6
