REMARK  Name = 
REMARK  15 active torsions:
REMARK  status: ('A' for Active; 'I' for Inactive)
REMARK    1  A    between atoms: C_1  and  C_2
REMARK    2  A    between atoms: C_2  and  C_3
REMARK    3  A    between atoms: C_3  and  C_4
REMARK    4  A    between atoms: C_4  and  C_35
REMARK    5  A    between atoms: C_6  and  O_34
REMARK    6  A    between atoms: C_7  and  C_11
REMARK    7  A    between atoms: C_11  and  C_12
REMARK    8  A    between atoms: C_11  and  C_14
REMARK    9  A    between atoms: C_12  and  C_13
REMARK   10  A    between atoms: C_16  and  N_20
REMARK   11  A    between atoms: N_20  and  S_21
REMARK   12  A    between atoms: S_21  and  C_24
REMARK   13  A    between atoms: C_27  and  C_30
REMARK   14  A    between atoms: C_35  and  C_36
REMARK   15  A    between atoms: C_36  and  C_37
REMARK                            x       y       z     vdW  Elec       q    Type
REMARK                         _______ _______ _______ _____ _____    ______ ____
ROOT
ATOM      1  C   UNL     1       7.010   4.567   0.533  0.00  0.00    +0.059 C 
ENDROOT
BRANCH   1   6
ATOM      2  C   UNL     1       4.495   1.197  -0.850  0.00  0.00    +0.121 C 
ATOM      3  O   UNL     1       4.802   1.577   0.508  0.00  0.00    -0.454 OA
ATOM      4  C   UNL     1       5.116   2.851   0.830  0.00  0.00    +0.339 C 
ATOM      5  O   UNL     1       4.726   3.360   1.871  0.00  0.00    -0.245 OA
ATOM      6  C   UNL     1       6.051   3.541  -0.098  0.00  0.00    +0.081 C 
ATOM      7  C   UNL     1       5.841   3.283  -1.403  0.00  0.00    +0.108 C 
ATOM      8  C   UNL     1       4.805   2.311  -1.873  0.00  0.00    +0.122 C 
BRANCH   7   9
ATOM      9  O   UNL     1       6.509   3.957  -2.403  0.00  0.00    -0.510 OA
ATOM     10  H   UNL     1       6.203   3.660  -3.276  0.00  0.00    +0.292 HD
ENDBRANCH   7   9
BRANCH   2  11
ATOM     11  C   UNL     1       2.959   0.958  -0.899  0.00  0.00    +0.048 C 
BRANCH  11  13
ATOM     12  C   UNL     1       0.883  -0.136  -0.011  0.00  0.00    +0.004 C 
ATOM     13  C   UNL     1       2.404  -0.099   0.061  0.00  0.00    +0.000 C 
ENDBRANCH  11  13
ENDBRANCH   2  11
BRANCH   2  14
ATOM     14  C   UNL     1       5.277  -0.102  -1.167  0.00  0.00    +0.053 C 
BRANCH  14  15
ATOM     15  C   UNL     1       6.806   0.056  -1.156  0.00  0.00    +0.039 C 
BRANCH  15  16
ATOM     16  C   UNL     1       7.498  -1.237  -1.516  0.00  0.00    -0.047 A 
ATOM     17  C   UNL     1       7.807  -2.178  -0.525  0.00  0.00    +0.003 A 
ATOM     18  C   UNL     1       8.408  -3.392  -0.865  0.00  0.00    +0.000 A 
ATOM     19  C   UNL     1       8.704  -3.676  -2.197  0.00  0.00    +0.000 A 
ATOM     20  C   UNL     1       8.408  -2.744  -3.190  0.00  0.00    +0.000 A 
ATOM     21  C   UNL     1       7.808  -1.530  -2.852  0.00  0.00    +0.003 A 
ENDBRANCH  15  16
ENDBRANCH  14  15
ENDBRANCH   2  14
ENDBRANCH   1   6
BRANCH   1  22
ATOM     22  C   UNL     1       8.134   5.039  -0.399  0.00  0.00    -0.038 A 
ATOM     23  C   UNL     1       9.171   4.176  -0.798  0.00  0.00    +0.004 A 
ATOM     24  C   UNL     1      10.185   4.623  -1.648  0.00  0.00    +0.002 A 
ATOM     25  C   UNL     1      10.183   5.937  -2.114  0.00  0.00    +0.024 A 
ATOM     26  C   UNL     1       9.160   6.801  -1.729  0.00  0.00    +0.048 A 
ATOM     27  C   UNL     1       8.143   6.360  -0.880  0.00  0.00    +0.028 A 
BRANCH  26  28
ATOM     28  N   UNL     1       9.133   8.133  -2.211  0.00  0.00    -0.215 N 
ATOM     29  H   UNL     1       9.900   8.764  -1.993  0.00  0.00    +0.174 HD
BRANCH  28  30
ATOM     30  S   UNL     1       8.400   8.451  -3.698  0.00  0.00    +0.090 S 
ATOM     31  O   UNL     1       8.781   7.411  -4.635  0.00  0.00    -0.148 OA
ATOM     32  O   UNL     1       8.667   9.841  -4.008  0.00  0.00    -0.148 OA
BRANCH  30  33
ATOM     33  C   UNL     1       6.650   8.287  -3.356  0.00  0.00    +0.197 A 
ATOM     34  C   UNL     1       5.892   7.347  -4.036  0.00  0.00    +0.050 A 
ATOM     35  C   UNL     1       4.566   7.191  -3.643  0.00  0.00    +0.017 A 
ATOM     36  C   UNL     1       4.050   7.972  -2.598  0.00  0.00    +0.073 A 
ATOM     37  C   UNL     1       4.894   8.901  -2.001  0.00  0.00    +0.125 A 
ATOM     38  N   UNL     1       6.188   9.074  -2.346  0.00  0.00    -0.235 NA
BRANCH  36  39
ATOM     39  C   UNL     1       2.642   7.797  -2.118  0.00  0.00    +0.419 C 
ATOM     40  F   UNL     1       2.402   6.527  -1.688  0.00  0.00    -0.166 F 
ATOM     41  F   UNL     1       1.725   8.038  -3.094  0.00  0.00    -0.166 F 
ATOM     42  F   UNL     1       2.311   8.612  -1.081  0.00  0.00    -0.166 F 
ENDBRANCH  36  39
ENDBRANCH  30  33
ENDBRANCH  28  30
ENDBRANCH  26  28
ENDBRANCH   1  22
BRANCH   1  43
ATOM     43  C   UNL     1       7.630   4.112   1.890  0.00  0.00    +0.010 C 
ATOM     44  C   UNL     1       8.496   5.170   2.573  0.00  0.00    +0.005 C 
ENDBRANCH   1  43
TORSDOF 13
