REMARK  Name = 
REMARK  16 active torsions:
REMARK  status: ('A' for Active; 'I' for Inactive)
REMARK    1  A    between atoms: C_1  and  C_2
REMARK    2  A    between atoms: C_2  and  N_3
REMARK    3  A    between atoms: N_3  and  C_4
REMARK    4  A    between atoms: N_3  and  C_6
REMARK    5  A    between atoms: C_4  and  C_5
REMARK    6  A    between atoms: C_6  and  C_7
REMARK    7  A    between atoms: C_7  and  O_8
REMARK    8  A    between atoms: O_8  and  C_9
REMARK    9  A    between atoms: C_20  and  O_23
REMARK   10  A    between atoms: O_23  and  C_24
REMARK   11  A    between atoms: C_24  and  C_25
REMARK   12  A    between atoms: C_25  and  N_26
REMARK   13  A    between atoms: N_26  and  C_27
REMARK   14  A    between atoms: N_26  and  C_29
REMARK   15  A    between atoms: C_27  and  C_28
REMARK   16  A    between atoms: C_29  and  C_30
REMARK                            x       y       z     vdW  Elec       q    Type
REMARK                         _______ _______ _______ _____ _____    ______ ____
ROOT
ATOM      1  C   UNL     1       6.935  -3.446   2.353  0.00  0.00    +0.121 A 
ATOM      2  C   UNL     1       6.544  -4.763   2.032  0.00  0.00    +0.046 A 
ATOM      3  C   UNL     1       7.157  -5.874   2.626  0.00  0.00    +0.013 A 
ATOM      4  C   UNL     1       8.178  -5.653   3.524  0.00  0.00    -0.006 A 
ATOM      5  C   UNL     1       8.982  -6.574   4.295  0.00  0.00    -0.006 A 
ATOM      6  C   UNL     1       8.949  -7.953   4.399  0.00  0.00    +0.013 A 
ATOM      7  C   UNL     1       9.896  -8.580   5.225  0.00  0.00    +0.046 A 
ATOM      8  C   UNL     1      10.848  -7.833   5.949  0.00  0.00    +0.121 A 
ATOM      9  C   UNL     1      10.869  -6.439   5.853  0.00  0.00    +0.058 A 
ATOM     10  C   UNL     1       9.929  -5.849   5.031  0.00  0.00    +0.033 A 
ATOM     11  C   UNL     1       9.719  -4.411   4.749  0.00  0.00    +0.195 C 
ATOM     12  O   UNL     1      10.343  -3.482   5.217  0.00  0.00    -0.287 OA
ATOM     13  C   UNL     1       8.596  -4.337   3.787  0.00  0.00    +0.033 A 
ATOM     14  C   UNL     1       8.003  -3.223   3.221  0.00  0.00    +0.058 A 
ENDROOT
BRANCH   1  15
ATOM     15  O   UNL     1       6.327  -2.319   1.863  0.00  0.00    -0.491 OA
BRANCH  15  16
ATOM     16  C   UNL     1       4.972  -2.504   1.428  0.00  0.00    +0.244 C 
BRANCH  16  17
ATOM     17  C   UNL     1       4.259  -1.145   1.414  0.00  0.00    +0.125 C 
BRANCH  17  18
ATOM     18  N   UNL     1       2.815  -1.210   1.101  0.00  0.00    -0.300 NA
BRANCH  18  20
ATOM     19  C   UNL     1       0.705   0.174   1.052  0.00  0.00    +0.020 C 
ATOM     20  C   UNL     1       2.215   0.125   1.269  0.00  0.00    +0.081 C 
ENDBRANCH  18  20
BRANCH  18  21
ATOM     21  C   UNL     1       2.510  -1.850  -0.187  0.00  0.00    +0.081 C 
ATOM     22  C   UNL     1       3.129  -1.203  -1.422  0.00  0.00    +0.020 C 
ENDBRANCH  18  21
ENDBRANCH  17  18
ENDBRANCH  16  17
ENDBRANCH  15  16
ENDBRANCH   1  15
BRANCH   8  23
ATOM     23  O   UNL     1      11.741  -8.569   6.694  0.00  0.00    -0.491 OA
BRANCH  23  24
ATOM     24  C   UNL     1      12.187  -7.899   7.881  0.00  0.00    +0.244 C 
BRANCH  24  25
ATOM     25  C   UNL     1      13.125  -8.806   8.698  0.00  0.00    +0.125 C 
BRANCH  25  26
ATOM     26  N   UNL     1      13.642  -8.167   9.932  0.00  0.00    -0.300 NA
BRANCH  26  27
ATOM     27  C   UNL     1      14.654  -9.025  10.568  0.00  0.00    +0.081 C 
ATOM     28  C   UNL     1      15.317  -8.406  11.797  0.00  0.00    +0.020 C 
ENDBRANCH  26  27
BRANCH  26  29
ATOM     29  C   UNL     1      12.583  -7.712  10.847  0.00  0.00    +0.081 C 
ATOM     30  C   UNL     1      11.737  -8.803  11.492  0.00  0.00    +0.020 C 
ENDBRANCH  26  29
ENDBRANCH  25  26
ENDBRANCH  24  25
ENDBRANCH  23  24
ENDBRANCH   8  23
TORSDOF 12
