REMARK  Name = 
REMARK  17 active torsions:
REMARK  status: ('A' for Active; 'I' for Inactive)
REMARK    1  A    between atoms: C_1  and  C_2
REMARK    2  A    between atoms: C_2  and  C_3
REMARK    3  A    between atoms: C_2  and  C_4
REMARK    4  A    between atoms: C_2  and  N_5
REMARK    5  A    between atoms: C_6  and  C_8
REMARK    6  A    between atoms: N_11  and  C_44
REMARK    7  A    between atoms: N_14  and  C_15
REMARK    8  A    between atoms: C_15  and  C_16
REMARK    9  A    between atoms: C_16  and  C_18
REMARK   10  A    between atoms: C_16  and  O_43
REMARK   11  A    between atoms: C_18  and  C_19
REMARK   12  A    between atoms: C_19  and  C_21
REMARK   13  A    between atoms: C_19  and  C_28
REMARK   14  A    between atoms: C_21  and  C_22
REMARK   15  A    between atoms: N_30  and  C_31
REMARK   16  A    between atoms: C_33  and  O_42
REMARK   17  A    between atoms: C_44  and  C_45
REMARK                            x       y       z     vdW  Elec       q    Type
REMARK                         _______ _______ _______ _____ _____    ______ ____
ROOT
ATOM      1  C   UNL     1      -1.874   0.906   5.433  0.00  0.00    +0.129 C 
ENDROOT
BRANCH   1   2
ATOM      2  O   UNL     1      -2.630   1.914   4.750  0.00  0.00    -0.391 OA
ATOM      3  H   UNL     1      -2.474   2.757   5.211  0.00  0.00    +0.210 HD
ENDBRANCH   1   2
BRANCH   1   4
ATOM      4  C   UNL     1      -1.837  -0.393   4.578  0.00  0.00    +0.116 C 
BRANCH   4   6
ATOM      5  C   UNL     1      -2.810  -2.448   3.612  0.00  0.00    +0.157 C 
ATOM      6  N   UNL     1      -3.060  -1.236   4.478  0.00  0.00    -0.287 NA
ATOM      7  C   UNL     1      -4.183  -0.516   3.824  0.00  0.00    +0.100 C 
ATOM      8  C   UNL     1      -3.976  -0.187   2.320  0.00  0.00    +0.100 C 
ATOM      9  N   UNL     1      -3.631  -1.373   1.501  0.00  0.00    -0.295 NA
ATOM     10  C   UNL     1      -2.509  -2.126   2.127  0.00  0.00    +0.113 C 
BRANCH   5  13
ATOM     11  N   UNL     1      -2.325  -4.065   5.344  0.00  0.00    -0.309 N 
ATOM     12  H   UNL     1      -3.259  -3.762   5.599  0.00  0.00    +0.149 HD
ATOM     13  C   UNL     1      -1.769  -3.375   4.281  0.00  0.00    +0.232 C 
ATOM     14  O   UNL     1      -0.597  -3.460   3.932  0.00  0.00    -0.274 OA
BRANCH  11  16
ATOM     15  C   UNL     1      -0.582  -4.291   7.088  0.00  0.00    +0.031 C 
ATOM     16  C   UNL     1      -1.656  -5.001   6.253  0.00  0.00    +0.026 C 
ATOM     17  C   UNL     1      -2.740  -5.541   7.194  0.00  0.00    +0.031 C 
ATOM     18  C   UNL     1      -1.039  -6.187   5.509  0.00  0.00    +0.031 C 
ENDBRANCH  11  16
ENDBRANCH   5  13
BRANCH   9  19
ATOM     19  C   UNL     1      -3.286  -0.998   0.117  0.00  0.00    +0.119 C 
BRANCH  19  20
ATOM     20  C   UNL     1      -4.407  -0.339  -0.666  0.00  0.00    -0.033 A 
ATOM     21  C   UNL     1      -5.579  -1.041  -0.985  0.00  0.00    +0.005 A 
ATOM     22  C   UNL     1      -6.582  -0.444  -1.756  0.00  0.00    +0.000 A 
ATOM     23  C   UNL     1      -6.429   0.865  -2.212  0.00  0.00    +0.000 A 
ATOM     24  C   UNL     1      -5.278   1.581  -1.889  0.00  0.00    +0.000 A 
ATOM     25  C   UNL     1      -4.275   0.983  -1.121  0.00  0.00    +0.005 A 
ENDBRANCH  19  20
ENDBRANCH   9  19
ENDBRANCH   4   6
ENDBRANCH   1   4
BRANCH   1  26
ATOM     26  C   UNL     1      -2.370   0.771   6.882  0.00  0.00    +0.045 C 
BRANCH  26  27
ATOM     27  C   UNL     1      -1.673  -0.304   7.742  0.00  0.00    +0.082 C 
BRANCH  27  28
ATOM     28  C   UNL     1      -2.349  -0.415   9.120  0.00  0.00    +0.217 C 
ATOM     29  N   UNL     1      -2.280  -1.672   9.689  0.00  0.00    -0.306 N 
ATOM     30  H   UNL     1      -1.933  -2.443   9.139  0.00  0.00    +0.149 HD
ATOM     31  O   UNL     1      -2.914   0.523   9.673  0.00  0.00    -0.275 OA
BRANCH  29  32
ATOM     32  C   UNL     1      -2.952  -1.995  10.951  0.00  0.00    +0.132 C 
ATOM     33  C   UNL     1      -3.281  -3.464  11.004  0.00  0.00    -0.022 A 
ATOM     34  C   UNL     1      -2.682  -4.098  12.091  0.00  0.00    -0.040 A 
ATOM     35  C   UNL     1      -2.786  -5.473  12.269  0.00  0.00    +0.004 A 
ATOM     36  C   UNL     1      -3.535  -6.209  11.352  0.00  0.00    +0.000 A 
ATOM     37  C   UNL     1      -4.202  -5.564  10.303  0.00  0.00    +0.000 A 
ATOM     38  C   UNL     1      -2.018  -3.126  13.006  0.00  0.00    +0.069 C 
ATOM     39  C   UNL     1      -4.085  -4.181  10.131  0.00  0.00    +0.006 A 
ATOM     40  C   UNL     1      -2.021  -1.812  12.199  0.00  0.00    +0.143 C 
BRANCH  40  41
ATOM     41  O   UNL     1      -0.660  -1.532  11.844  0.00  0.00    -0.389 OA
ATOM     42  H   UNL     1      -0.526  -1.920  10.962  0.00  0.00    +0.210 HD
ENDBRANCH  40  41
ENDBRANCH  29  32
ENDBRANCH  27  28
BRANCH  27  43
ATOM     43  C   UNL     1      -0.135  -0.175   7.852  0.00  0.00    +0.048 C 
BRANCH  43  44
ATOM     44  C   UNL     1       0.427   1.061   8.519  0.00  0.00    -0.047 A 
ATOM     45  C   UNL     1       0.878   2.159   7.772  0.00  0.00    +0.003 A 
ATOM     46  C   UNL     1       1.410   3.287   8.407  0.00  0.00    +0.000 A 
ATOM     47  C   UNL     1       1.512   3.329   9.795  0.00  0.00    +0.000 A 
ATOM     48  C   UNL     1       1.093   2.238  10.547  0.00  0.00    +0.000 A 
ATOM     49  C   UNL     1       0.560   1.114   9.913  0.00  0.00    +0.003 A 
ENDBRANCH  43  44
ENDBRANCH  27  43
ENDBRANCH  26  27
ENDBRANCH   1  26
TORSDOF 14
