REMARK  Name = 
REMARK  17 active torsions:
REMARK  status: ('A' for Active; 'I' for Inactive)
REMARK    1  A    between atoms: C_1  and  C_2
REMARK    2  A    between atoms: C_2  and  C_3
REMARK    3  A    between atoms: C_2  and  C_4
REMARK    4  A    between atoms: C_2  and  N_5
REMARK    5  A    between atoms: C_6  and  C_8
REMARK    6  A    between atoms: N_11  and  C_44
REMARK    7  A    between atoms: N_14  and  C_15
REMARK    8  A    between atoms: C_15  and  C_16
REMARK    9  A    between atoms: C_16  and  C_18
REMARK   10  A    between atoms: C_16  and  O_43
REMARK   11  A    between atoms: C_18  and  C_19
REMARK   12  A    between atoms: C_19  and  C_21
REMARK   13  A    between atoms: C_19  and  C_28
REMARK   14  A    between atoms: C_21  and  C_22
REMARK   15  A    between atoms: N_30  and  C_31
REMARK   16  A    between atoms: C_33  and  O_42
REMARK   17  A    between atoms: C_44  and  C_45
REMARK                            x       y       z     vdW  Elec       q    Type
REMARK                         _______ _______ _______ _____ _____    ______ ____
ROOT
ATOM      1  C   UNL     1       7.569  -0.173  -5.734  0.00  0.00    +0.129 C 
ENDROOT
BRANCH   1   2
ATOM      2  O   UNL     1       6.794  -1.229  -6.314  0.00  0.00    -0.391 OA
ATOM      3  H   UNL     1       7.055  -2.048  -5.854  0.00  0.00    +0.210 HD
ENDBRANCH   1   2
BRANCH   1   4
ATOM      4  C   UNL     1       6.698   1.116  -5.540  0.00  0.00    +0.116 C 
BRANCH   4   6
ATOM      5  C   UNL     1       4.471   1.954  -4.573  0.00  0.00    +0.157 C 
ATOM      6  N   UNL     1       5.509   0.864  -4.681  0.00  0.00    -0.287 NA
ATOM      7  C   UNL     1       5.863   0.433  -3.305  0.00  0.00    +0.100 C 
ATOM      8  C   UNL     1       6.177   1.577  -2.317  0.00  0.00    +0.100 C 
ATOM      9  N   UNL     1       4.930   2.310  -2.127  0.00  0.00    -0.295 NA
ATOM     10  C   UNL     1       4.609   2.983  -3.399  0.00  0.00    +0.113 C 
BRANCH   5  13
ATOM     11  N   UNL     1       3.878   1.957  -6.970  0.00  0.00    -0.309 N 
ATOM     12  H   UNL     1       4.018   0.956  -6.862  0.00  0.00    +0.149 HD
ATOM     13  C   UNL     1       4.190   2.730  -5.868  0.00  0.00    +0.232 C 
ATOM     14  O   UNL     1       4.165   3.959  -5.894  0.00  0.00    -0.274 OA
BRANCH  11  16
ATOM     15  C   UNL     1       4.545   3.468  -8.817  0.00  0.00    +0.031 C 
ATOM     16  C   UNL     1       3.477   2.512  -8.269  0.00  0.00    +0.026 C 
ATOM     17  C   UNL     1       3.329   1.358  -9.276  0.00  0.00    +0.031 C 
ATOM     18  C   UNL     1       2.134   3.249  -8.157  0.00  0.00    +0.031 C 
ENDBRANCH  11  16
ENDBRANCH   5  13
BRANCH   9  19
ATOM     19  C   UNL     1       4.926   3.185  -0.958  0.00  0.00    +0.119 C 
BRANCH  19  20
ATOM     20  C   UNL     1       3.522   3.627  -0.588  0.00  0.00    -0.033 A 
ATOM     21  C   UNL     1       3.220   4.985  -0.420  0.00  0.00    +0.005 A 
ATOM     22  C   UNL     1       1.919   5.387  -0.108  0.00  0.00    +0.000 A 
ATOM     23  C   UNL     1       0.908   4.438   0.045  0.00  0.00    +0.000 A 
ATOM     24  C   UNL     1       1.198   3.084  -0.103  0.00  0.00    +0.000 A 
ATOM     25  C   UNL     1       2.498   2.680  -0.411  0.00  0.00    +0.005 A 
ENDBRANCH  19  20
ENDBRANCH   9  19
ENDBRANCH   4   6
ENDBRANCH   1   4
BRANCH   1  26
ATOM     26  C   UNL     1       8.886  -0.057  -6.513  0.00  0.00    +0.045 C 
BRANCH  26  27
ATOM     27  C   UNL     1       8.858  -0.021  -8.064  0.00  0.00    +0.082 C 
BRANCH  27  28
ATOM     28  C   UNL     1      10.201  -0.508  -8.650  0.00  0.00    +0.217 C 
ATOM     29  N   UNL     1      10.209  -0.743 -10.016  0.00  0.00    -0.306 N 
ATOM     30  H   UNL     1       9.332  -0.690 -10.517  0.00  0.00    +0.149 HD
ATOM     31  O   UNL     1      11.172  -0.768  -7.944  0.00  0.00    -0.275 OA
BRANCH  29  32
ATOM     32  C   UNL     1      11.236  -1.599 -10.605  0.00  0.00    +0.132 C 
ATOM     33  C   UNL     1      10.760  -2.258 -11.874  0.00  0.00    -0.022 A 
ATOM     34  C   UNL     1      11.517  -1.865 -12.982  0.00  0.00    -0.040 A 
ATOM     35  C   UNL     1      11.299  -2.415 -14.236  0.00  0.00    +0.004 A 
ATOM     36  C   UNL     1      10.291  -3.369 -14.379  0.00  0.00    +0.000 A 
ATOM     37  C   UNL     1       9.505  -3.741 -13.278  0.00  0.00    +0.000 A 
ATOM     38  C   UNL     1      12.504  -0.807 -12.622  0.00  0.00    +0.069 C 
ATOM     39  C   UNL     1       9.738  -3.187 -12.016  0.00  0.00    +0.006 A 
ATOM     40  C   UNL     1      12.541  -0.877 -11.083  0.00  0.00    +0.143 C 
BRANCH  40  41
ATOM     41  O   UNL     1      12.715   0.437 -10.559  0.00  0.00    -0.389 OA
ATOM     42  H   UNL     1      11.824   0.792 -10.397  0.00  0.00    +0.210 HD
ENDBRANCH  40  41
ENDBRANCH  29  32
ENDBRANCH  27  28
BRANCH  27  43
ATOM     43  C   UNL     1       8.336   1.267  -8.728  0.00  0.00    +0.048 C 
BRANCH  43  44
ATOM     44  C   UNL     1       8.827   2.658  -8.367  0.00  0.00    -0.047 A 
ATOM     45  C   UNL     1       8.135   3.739  -8.937  0.00  0.00    +0.003 A 
ATOM     46  C   UNL     1       8.375   5.053  -8.535  0.00  0.00    +0.000 A 
ATOM     47  C   UNL     1       9.360   5.313  -7.592  0.00  0.00    +0.000 A 
ATOM     48  C   UNL     1      10.129   4.262  -7.098  0.00  0.00    +0.000 A 
ATOM     49  C   UNL     1       9.880   2.942  -7.505  0.00  0.00    +0.003 A 
ENDBRANCH  43  44
ENDBRANCH  27  43
ENDBRANCH  26  27
ENDBRANCH   1  26
TORSDOF 14
