REMARK  Name = 
REMARK  23 active torsions:
REMARK  status: ('A' for Active; 'I' for Inactive)
REMARK    1  A    between atoms: C_1  and  C_2
REMARK    2  A    between atoms: C_2  and  C_4
REMARK    3  A    between atoms: C_2  and  O_15
REMARK    4  A    between atoms: C_4  and  N_5
REMARK    5  A    between atoms: C_9  and  N_14
REMARK    6  A    between atoms: O_15  and  C_16
REMARK    7  A    between atoms: C_16  and  P_17
REMARK    8  A    between atoms: P_17  and  O_19
REMARK    9  A    between atoms: P_17  and  O_28
REMARK   10  A    between atoms: O_19  and  C_20
REMARK   11  A    between atoms: C_20  and  O_21
REMARK   12  A    between atoms: O_21  and  C_22
REMARK   13  A    between atoms: C_22  and  O_24
REMARK   14  A    between atoms: O_24  and  C_25
REMARK   15  A    between atoms: C_25  and  C_26
REMARK   16  A    between atoms: C_25  and  C_27
REMARK   17  A    between atoms: O_28  and  C_29
REMARK   18  A    between atoms: C_29  and  O_30
REMARK   19  A    between atoms: O_30  and  C_31
REMARK   20  A    between atoms: C_31  and  O_33
REMARK   21  A    between atoms: O_33  and  C_34
REMARK   22  A    between atoms: C_34  and  C_35
REMARK   23  A    between atoms: C_34  and  C_36
REMARK                            x       y       z     vdW  Elec       q    Type
REMARK                         _______ _______ _______ _____ _____    ______ ____
ROOT
ATOM      1  P   UNL     1       5.277   1.572   2.974  0.00  0.00    +0.364 P 
ATOM      2  O   UNL     1       6.489   2.391   2.643  0.00  0.00    -0.256 OA
ENDROOT
BRANCH   1   3
ATOM      3  O   UNL     1       5.439   0.771   4.362  0.00  0.00    -0.268 OA
BRANCH   3   4
ATOM      4  C   UNL     1       4.348   0.554   5.230  0.00  0.00    +0.410 C 
BRANCH   4   5
ATOM      5  O   UNL     1       4.788  -0.026   6.462  0.00  0.00    -0.406 OA
BRANCH   5   6
ATOM      6  C   UNL     1       5.360   0.866   7.310  0.00  0.00    +0.512 C 
ATOM      7  O   UNL     1       5.507   2.063   7.097  0.00  0.00    -0.203 OA
BRANCH   6   8
ATOM      8  O   UNL     1       5.728   0.215   8.447  0.00  0.00    -0.431 OA
BRANCH   8   9
ATOM      9  C   UNL     1       6.395   1.012   9.445  0.00  0.00    +0.174 C 
ATOM     10  C   UNL     1       7.155   0.069  10.374  0.00  0.00    +0.052 C 
ATOM     11  C   UNL     1       5.382   1.823  10.248  0.00  0.00    +0.052 C 
ENDBRANCH   8   9
ENDBRANCH   6   8
ENDBRANCH   5   6
ENDBRANCH   4   5
ENDBRANCH   3   4
ENDBRANCH   1   3
BRANCH   1  12
ATOM     12  O   UNL     1       3.990   2.525   3.192  0.00  0.00    -0.268 OA
BRANCH  12  13
ATOM     13  C   UNL     1       4.251   3.715   3.920  0.00  0.00    +0.410 C 
BRANCH  13  14
ATOM     14  O   UNL     1       3.125   4.589   4.015  0.00  0.00    -0.406 OA
BRANCH  14  15
ATOM     15  C   UNL     1       2.026   4.051   4.584  0.00  0.00    +0.512 C 
ATOM     16  O   UNL     1       1.874   2.884   4.911  0.00  0.00    -0.203 OA
BRANCH  15  17
ATOM     17  O   UNL     1       1.094   5.027   4.710  0.00  0.00    -0.431 OA
BRANCH  17  18
ATOM     18  C   UNL     1      -0.221   4.605   5.096  0.00  0.00    +0.174 C 
ATOM     19  C   UNL     1      -1.167   5.735   4.727  0.00  0.00    +0.052 C 
ATOM     20  C   UNL     1      -0.299   4.309   6.595  0.00  0.00    +0.052 C 
ENDBRANCH  17  18
ENDBRANCH  15  17
ENDBRANCH  14  15
ENDBRANCH  13  14
ENDBRANCH  12  13
ENDBRANCH   1  12
BRANCH   1  21
ATOM     21  C   UNL     1       4.746   0.379   1.728  0.00  0.00    +0.287 C 
BRANCH  21  22
ATOM     22  O   UNL     1       5.820  -0.251   0.988  0.00  0.00    -0.363 OA
BRANCH  22  24
ATOM     23  C   UNL     1       5.931   1.430  -0.814  0.00  0.00    +0.040 C 
ATOM     24  C   UNL     1       6.692   0.614   0.234  0.00  0.00    +0.136 C 
BRANCH  24  25
ATOM     25  C   UNL     1       7.786  -0.213  -0.475  0.00  0.00    +0.156 C 
BRANCH  25  26
ATOM     26  N   UNL     1       8.655  -0.937   0.432  0.00  0.00    -0.312 N 
ATOM     27  C   UNL     1       9.969  -0.674   0.716  0.00  0.00    +0.165 A 
ATOM     28  C   UNL     1      10.359  -1.712   1.550  0.00  0.00    +0.147 A 
ATOM     29  C   UNL     1      11.689  -1.703   2.003  0.00  0.00    +0.147 A 
ATOM     30  N   UNL     1      12.493  -0.684   1.627  0.00  0.00    -0.219 NA
ATOM     31  C   UNL     1      11.981   0.259   0.804  0.00  0.00    +0.225 A 
ATOM     32  N   UNL     1       9.315  -2.584   1.783  0.00  0.00    -0.231 NA
ATOM     33  N   UNL     1      10.733   0.347   0.289  0.00  0.00    -0.216 NA
ATOM     34  C   UNL     1       8.311  -2.089   1.093  0.00  0.00    +0.201 A 
BRANCH  29  35
ATOM     35  N   UNL     1      12.206  -2.688   2.838  0.00  0.00    -0.341 N 
ATOM     36  H   UNL     1      12.979  -2.345   3.391  0.00  0.00    +0.144 HD
ATOM     37  H   UNL     1      11.479  -3.207   3.320  0.00  0.00    +0.144 HD
ENDBRANCH  29  35
ENDBRANCH  25  26
ENDBRANCH  24  25
ENDBRANCH  22  24
ENDBRANCH  21  22
ENDBRANCH   1  21
TORSDOF 18
