REMARK  Name = 
REMARK  17 active torsions:
REMARK  status: ('A' for Active; 'I' for Inactive)
REMARK    1  A    between atoms: C_1  and  C_2
REMARK    2  A    between atoms: C_2  and  C_3
REMARK    3  A    between atoms: C_2  and  C_4
REMARK    4  A    between atoms: C_2  and  N_5
REMARK    5  A    between atoms: C_6  and  C_8
REMARK    6  A    between atoms: N_11  and  C_44
REMARK    7  A    between atoms: N_14  and  C_15
REMARK    8  A    between atoms: C_15  and  C_16
REMARK    9  A    between atoms: C_16  and  C_18
REMARK   10  A    between atoms: C_16  and  O_43
REMARK   11  A    between atoms: C_18  and  C_19
REMARK   12  A    between atoms: C_19  and  C_21
REMARK   13  A    between atoms: C_19  and  C_28
REMARK   14  A    between atoms: C_21  and  C_22
REMARK   15  A    between atoms: N_30  and  C_31
REMARK   16  A    between atoms: C_33  and  O_42
REMARK   17  A    between atoms: C_44  and  C_45
REMARK                            x       y       z     vdW  Elec       q    Type
REMARK                         _______ _______ _______ _____ _____    ______ ____
ROOT
ATOM      1  C   UNL     1       9.334  -1.410  -5.135  0.00  0.00    +0.129 C 
ENDROOT
BRANCH   1   2
ATOM      2  O   UNL     1      10.197  -1.303  -6.281  0.00  0.00    -0.391 OA
ATOM      3  H   UNL     1       9.916  -0.529  -6.796  0.00  0.00    +0.210 HD
ENDBRANCH   1   2
BRANCH   1   4
ATOM      4  C   UNL     1      10.010  -2.424  -4.138  0.00  0.00    +0.116 C 
BRANCH   4   6
ATOM      5  C   UNL     1      11.920  -2.954  -2.569  0.00  0.00    +0.157 C 
ATOM      6  N   UNL     1      11.383  -2.045  -3.647  0.00  0.00    -0.287 NA
ATOM      7  C   UNL     1      11.423  -0.694  -3.044  0.00  0.00    +0.100 C 
ATOM      8  C   UNL     1      10.531  -0.571  -1.791  0.00  0.00    +0.100 C 
ATOM      9  N   UNL     1      10.971  -1.466  -0.705  0.00  0.00    -0.295 NA
ATOM     10  C   UNL     1      11.175  -2.857  -1.203  0.00  0.00    +0.113 C 
BRANCH   5  13
ATOM     11  N   UNL     1      12.763  -4.518  -4.246  0.00  0.00    -0.309 N 
ATOM     12  H   UNL     1      12.803  -3.650  -4.777  0.00  0.00    +0.149 HD
ATOM     13  C   UNL     1      12.068  -4.408  -3.051  0.00  0.00    +0.232 C 
ATOM     14  O   UNL     1      11.660  -5.366  -2.400  0.00  0.00    -0.274 OA
BRANCH  11  16
ATOM     15  C   UNL     1      11.695  -6.469  -5.316  0.00  0.00    +0.031 C 
ATOM     16  C   UNL     1      13.020  -5.783  -4.950  0.00  0.00    +0.026 C 
ATOM     17  C   UNL     1      13.790  -5.487  -6.252  0.00  0.00    +0.031 C 
ATOM     18  C   UNL     1      13.890  -6.724  -4.097  0.00  0.00    +0.031 C 
ENDBRANCH  11  16
ENDBRANCH   5  13
BRANCH   9  19
ATOM     19  C   UNL     1      10.031  -1.466   0.434  0.00  0.00    +0.121 C 
BRANCH  19  20
ATOM     20  C   UNL     1       9.717  -0.094   0.982  0.00  0.00    -0.015 A 
ATOM     21  C   UNL     1      10.699   0.715   1.562  0.00  0.00    +0.008 A 
ATOM     22  C   UNL     1      10.365   1.988   2.017  0.00  0.00    +0.020 A 
ATOM     23  C   UNL     1       9.055   2.415   1.877  0.00  0.00    +0.111 A 
ATOM     24  N   UNL     1       8.077   1.666   1.325  0.00  0.00    -0.263 NA
ATOM     25  C   UNL     1       8.430   0.432   0.897  0.00  0.00    +0.115 A 
ENDBRANCH  19  20
ENDBRANCH   9  19
ENDBRANCH   4   6
ENDBRANCH   1   4
BRANCH   1  26
ATOM     26  C   UNL     1       7.923  -1.779  -5.683  0.00  0.00    +0.045 C 
BRANCH  26  27
ATOM     27  C   UNL     1       6.755  -1.922  -4.687  0.00  0.00    +0.082 C 
BRANCH  27  28
ATOM     28  C   UNL     1       5.438  -2.551  -5.212  0.00  0.00    +0.217 C 
ATOM     29  N   UNL     1       5.179  -2.539  -6.555  0.00  0.00    -0.306 N 
ATOM     30  H   UNL     1       5.942  -2.403  -7.208  0.00  0.00    +0.149 HD
ATOM     31  O   UNL     1       4.629  -3.003  -4.404  0.00  0.00    -0.275 OA
BRANCH  29  32
ATOM     32  C   UNL     1       4.010  -3.221  -7.137  0.00  0.00    +0.132 C 
ATOM     33  C   UNL     1       2.773  -2.365  -7.288  0.00  0.00    -0.022 A 
ATOM     34  C   UNL     1       2.220  -2.467  -8.571  0.00  0.00    -0.040 A 
ATOM     35  C   UNL     1       0.998  -1.883  -8.887  0.00  0.00    +0.004 A 
ATOM     36  C   UNL     1       0.312  -1.190  -7.891  0.00  0.00    +0.000 A 
ATOM     37  C   UNL     1       0.855  -1.086  -6.604  0.00  0.00    +0.000 A 
ATOM     38  C   UNL     1       3.032  -3.343  -9.469  0.00  0.00    +0.069 C 
ATOM     39  C   UNL     1       2.089  -1.674  -6.297  0.00  0.00    +0.006 A 
ATOM     40  C   UNL     1       4.282  -3.649  -8.617  0.00  0.00    +0.143 C 
BRANCH  40  41
ATOM     41  O   UNL     1       5.423  -2.941  -9.141  0.00  0.00    -0.389 OA
ATOM     42  H   UNL     1       5.132  -2.021  -9.299  0.00  0.00    +0.210 HD
ENDBRANCH  40  41
ENDBRANCH  29  32
ENDBRANCH  27  28
BRANCH  27  43
ATOM     43  C   UNL     1       6.434  -0.692  -3.800  0.00  0.00    +0.048 C 
BRANCH  43  44
ATOM     44  C   UNL     1       6.081   0.665  -4.378  0.00  0.00    -0.047 A 
ATOM     45  C   UNL     1       6.380   1.803  -3.601  0.00  0.00    +0.003 A 
ATOM     46  C   UNL     1       6.072   3.092  -4.043  0.00  0.00    +0.000 A 
ATOM     47  C   UNL     1       5.430   3.273  -5.261  0.00  0.00    +0.000 A 
ATOM     48  C   UNL     1       5.066   2.160  -6.015  0.00  0.00    +0.000 A 
ATOM     49  C   UNL     1       5.379   0.865  -5.572  0.00  0.00    +0.003 A 
ENDBRANCH  43  44
ENDBRANCH  27  43
ENDBRANCH  26  27
ENDBRANCH   1  26
TORSDOF 14
REMARK  Name = 
REMARK  17 active torsions:
REMARK  status: ('A' for Active; 'I' for Inactive)
REMARK    1  A    between atoms: C_1  and  C_2
REMARK    2  A    between atoms: C_2  and  C_3
REMARK    3  A    between atoms: C_2  and  C_4
REMARK    4  A    between atoms: C_2  and  N_5
REMARK    5  A    between atoms: C_6  and  C_8
REMARK    6  A    between atoms: N_11  and  C_44
REMARK    7  A    between atoms: N_14  and  C_15
REMARK    8  A    between atoms: C_15  and  C_16
REMARK    9  A    between atoms: C_16  and  C_18
REMARK   10  A    between atoms: C_16  and  O_43
REMARK   11  A    between atoms: C_18  and  C_19
REMARK   12  A    between atoms: C_19  and  C_21
REMARK   13  A    between atoms: C_19  and  C_28
REMARK   14  A    between atoms: C_21  and  C_22
REMARK   15  A    between atoms: N_30  and  C_31
REMARK   16  A    between atoms: C_33  and  O_42
REMARK   17  A    between atoms: C_44  and  C_45
REMARK                            x       y       z     vdW  Elec       q    Type
REMARK                         _______ _______ _______ _____ _____    ______ ____
ROOT
ATOM      1  O   HOH     1       0.510   0.886   0.158  0.00  0.00    -0.410 OA
ATOM      2  H   HOH     0       0.231   0.311  -0.571  0.00  0.00    +0.205 HD
ATOM      3  H   HOH     0       1.476   0.795   0.167  0.00  0.00    +0.205 HD
ENDROOT
TORSDOF 0
