REMARK  Name = 
REMARK  17 active torsions:
REMARK  status: ('A' for Active; 'I' for Inactive)
REMARK    1  A    between atoms: C_1  and  C_2
REMARK    2  A    between atoms: C_2  and  C_3
REMARK    3  A    between atoms: C_2  and  C_4
REMARK    4  A    between atoms: C_2  and  N_5
REMARK    5  A    between atoms: C_6  and  C_8
REMARK    6  A    between atoms: N_11  and  C_44
REMARK    7  A    between atoms: N_14  and  C_15
REMARK    8  A    between atoms: C_15  and  C_16
REMARK    9  A    between atoms: C_16  and  C_18
REMARK   10  A    between atoms: C_16  and  O_43
REMARK   11  A    between atoms: C_18  and  C_19
REMARK   12  A    between atoms: C_19  and  C_21
REMARK   13  A    between atoms: C_19  and  C_28
REMARK   14  A    between atoms: C_21  and  C_22
REMARK   15  A    between atoms: N_30  and  C_31
REMARK   16  A    between atoms: C_33  and  O_42
REMARK   17  A    between atoms: C_44  and  C_45
REMARK                            x       y       z     vdW  Elec       q    Type
REMARK                         _______ _______ _______ _____ _____    ______ ____
ROOT
ATOM      1  C   UNL     1       8.333   1.683  -3.468  0.00  0.00    +0.129 C 
ENDROOT
BRANCH   1   2
ATOM      2  O   UNL     1       9.615   2.182  -3.871  0.00  0.00    -0.391 OA
ATOM      3  H   UNL     1       9.477   3.044  -4.304  0.00  0.00    +0.210 HD
ENDBRANCH   1   2
BRANCH   1   4
ATOM      4  C   UNL     1       8.471   0.251  -2.879  0.00  0.00    +0.116 C 
BRANCH   4   6
ATOM      5  C   UNL     1       9.089  -2.143  -2.964  0.00  0.00    +0.157 C 
ATOM      6  N   UNL     1       8.829  -0.888  -3.765  0.00  0.00    -0.287 NA
ATOM      7  C   UNL     1      10.085  -0.639  -4.527  0.00  0.00    +0.100 C 
ATOM      8  C   UNL     1      11.369  -0.533  -3.661  0.00  0.00    +0.100 C 
ATOM      9  N   UNL     1      11.625  -1.784  -2.917  0.00  0.00    -0.295 NA
ATOM     10  C   UNL     1      10.417  -2.144  -2.145  0.00  0.00    +0.113 C 
BRANCH   5  13
ATOM     11  N   UNL     1       6.689  -2.607  -2.530  0.00  0.00    -0.309 N 
ATOM     12  H   UNL     1       6.624  -2.532  -3.540  0.00  0.00    +0.149 HD
ATOM     13  C   UNL     1       7.953  -2.488  -1.978  0.00  0.00    +0.232 C 
ATOM     14  O   UNL     1       8.161  -2.660  -0.780  0.00  0.00    -0.274 OA
BRANCH  11  16
ATOM     15  C   UNL     1       5.272  -2.119  -0.543  0.00  0.00    +0.031 C 
ATOM     16  C   UNL     1       5.519  -3.047  -1.750  0.00  0.00    +0.026 C 
ATOM     17  C   UNL     1       4.270  -2.987  -2.644  0.00  0.00    +0.031 C 
ATOM     18  C   UNL     1       5.705  -4.497  -1.268  0.00  0.00    +0.031 C 
ENDBRANCH  11  16
ENDBRANCH   5  13
BRANCH   9  19
ATOM     19  C   UNL     1      12.791  -1.625  -2.024  0.00  0.00    +0.121 C 
BRANCH  19  20
ATOM     20  C   UNL     1      13.185  -2.890  -1.299  0.00  0.00    -0.015 A 
ATOM     21  C   UNL     1      13.290  -2.936   0.096  0.00  0.00    +0.008 A 
ATOM     22  C   UNL     1      13.657  -4.123   0.725  0.00  0.00    +0.020 A 
ATOM     23  C   UNL     1      13.914  -5.231  -0.064  0.00  0.00    +0.111 A 
ATOM     24  N   UNL     1      13.832  -5.228  -1.411  0.00  0.00    -0.263 NA
ATOM     25  C   UNL     1      13.470  -4.061  -1.995  0.00  0.00    +0.115 A 
ENDBRANCH  19  20
ENDBRANCH   9  19
ENDBRANCH   4   6
ENDBRANCH   1   4
BRANCH   1  26
ATOM     26  C   UNL     1       7.323   1.865  -4.609  0.00  0.00    +0.045 C 
BRANCH  26  27
ATOM     27  C   UNL     1       5.839   1.552  -4.290  0.00  0.00    +0.082 C 
BRANCH  27  28
ATOM     28  C   UNL     1       5.003   1.721  -5.569  0.00  0.00    +0.217 C 
ATOM     29  N   UNL     1       3.694   1.275  -5.474  0.00  0.00    -0.306 N 
ATOM     30  H   UNL     1       3.516   0.574  -4.768  0.00  0.00    +0.149 HD
ATOM     31  O   UNL     1       5.464   2.187  -6.607  0.00  0.00    -0.275 OA
BRANCH  29  32
ATOM     32  C   UNL     1       2.887   1.190  -6.690  0.00  0.00    +0.132 C 
ATOM     33  C   UNL     1       2.890  -0.220  -7.206  0.00  0.00    -0.022 A 
ATOM     34  C   UNL     1       1.606  -0.756  -7.282  0.00  0.00    -0.040 A 
ATOM     35  C   UNL     1       1.402  -2.049  -7.741  0.00  0.00    +0.004 A 
ATOM     36  C   UNL     1       2.511  -2.807  -8.125  0.00  0.00    +0.000 A 
ATOM     37  C   UNL     1       3.802  -2.268  -8.052  0.00  0.00    +0.000 A 
ATOM     38  C   UNL     1       0.561   0.218  -6.845  0.00  0.00    +0.069 C 
ATOM     39  C   UNL     1       3.997  -0.965  -7.593  0.00  0.00    +0.006 A 
ATOM     40  C   UNL     1       1.364   1.488  -6.487  0.00  0.00    +0.143 C 
BRANCH  40  41
ATOM     41  O   UNL     1       1.032   1.913  -5.161  0.00  0.00    -0.389 OA
ATOM     42  H   UNL     1       1.701   1.546  -4.563  0.00  0.00    +0.210 HD
ENDBRANCH  40  41
ENDBRANCH  29  32
ENDBRANCH  27  28
BRANCH  27  43
ATOM     43  C   UNL     1       5.238   2.367  -3.118  0.00  0.00    +0.048 C 
BRANCH  43  44
ATOM     44  C   UNL     1       5.189   3.862  -3.348  0.00  0.00    -0.047 A 
ATOM     45  C   UNL     1       6.277   4.679  -3.015  0.00  0.00    +0.003 A 
ATOM     46  C   UNL     1       6.296   6.025  -3.379  0.00  0.00    +0.000 A 
ATOM     47  C   UNL     1       5.208   6.581  -4.045  0.00  0.00    +0.000 A 
ATOM     48  C   UNL     1       4.088   5.800  -4.315  0.00  0.00    +0.000 A 
ATOM     49  C   UNL     1       4.075   4.449  -3.965  0.00  0.00    +0.003 A 
ENDBRANCH  43  44
ENDBRANCH  27  43
ENDBRANCH  26  27
ENDBRANCH   1  26
TORSDOF 14
REMARK  Name = 
REMARK  17 active torsions:
REMARK  status: ('A' for Active; 'I' for Inactive)
REMARK    1  A    between atoms: C_1  and  C_2
REMARK    2  A    between atoms: C_2  and  C_3
REMARK    3  A    between atoms: C_2  and  C_4
REMARK    4  A    between atoms: C_2  and  N_5
REMARK    5  A    between atoms: C_6  and  C_8
REMARK    6  A    between atoms: N_11  and  C_44
REMARK    7  A    between atoms: N_14  and  C_15
REMARK    8  A    between atoms: C_15  and  C_16
REMARK    9  A    between atoms: C_16  and  C_18
REMARK   10  A    between atoms: C_16  and  O_43
REMARK   11  A    between atoms: C_18  and  C_19
REMARK   12  A    between atoms: C_19  and  C_21
REMARK   13  A    between atoms: C_19  and  C_28
REMARK   14  A    between atoms: C_21  and  C_22
REMARK   15  A    between atoms: N_30  and  C_31
REMARK   16  A    between atoms: C_33  and  O_42
REMARK   17  A    between atoms: C_44  and  C_45
REMARK                            x       y       z     vdW  Elec       q    Type
REMARK                         _______ _______ _______ _____ _____    ______ ____
ROOT
ATOM      1  O   HOH     1       1.105  -0.028  -0.002  0.00  0.00    -0.410 OA
ATOM      2  H   HOH     0       0.659   0.637   0.546  0.00  0.00    +0.205 HD
ATOM      3  H   HOH     0       2.039   0.068   0.234  0.00  0.00    +0.205 HD
ENDROOT
TORSDOF 0
