REMARK  Name = 
REMARK  9 active torsions:
REMARK  status: ('A' for Active; 'I' for Inactive)
REMARK    1  A    between atoms: C_1  and  C_2
REMARK    2  A    between atoms: C_2  and  C_3
REMARK    3  A    between atoms: C_2  and  N_4
REMARK    4  A    between atoms: N_4  and  C_5
REMARK    5  A    between atoms: C_6  and  N_11
REMARK    6  A    between atoms: C_17  and  C_19
REMARK    7  A    between atoms: C_26  and  N_28
REMARK    8  A    between atoms: N_28  and  S_29
REMARK    9  A    between atoms: S_29  and  C_32
REMARK                            x       y       z     vdW  Elec       q    Type
REMARK                         _______ _______ _______ _____ _____    ______ ____
ROOT
ATOM      1  N   UNL     1       3.890  -3.818  -1.023  0.00  0.00    -0.311 N 
ATOM      2  C   UNL     1       4.306  -5.041  -0.321  0.00  0.00    +0.125 C 
ATOM      3  C   UNL     1       3.748  -6.274  -1.062  0.00  0.00    +0.127 C 
ATOM      4  N   UNL     1       2.287  -6.170  -1.230  0.00  0.00    -0.293 N 
ATOM      5  C   UNL     1       1.317  -7.142  -1.022  0.00  0.00    +0.263 C 
ATOM      6  O   UNL     1       0.152  -6.951  -1.382  0.00  0.00    -0.268 OA
ATOM      7  C   UNL     1       1.897  -4.939  -1.930  0.00  0.00    +0.127 C 
ATOM      8  C   UNL     1       2.449  -3.681  -1.233  0.00  0.00    +0.125 C 
ENDROOT
BRANCH   5   9
ATOM      9  C   UNL     1       1.657  -8.428  -0.444  0.00  0.00    +0.103 A 
ATOM     10  N   UNL     1       0.880  -9.535  -0.735  0.00  0.00    -0.351 N 
ATOM     11  H   UNL     1       0.046  -9.486  -1.305  0.00  0.00    +0.166 HD
ATOM     12  C   UNL     1       1.459 -10.686  -0.261  0.00  0.00    +0.047 A 
ATOM     13  C   UNL     1       1.096 -12.025  -0.434  0.00  0.00    +0.028 A 
ATOM     14  C   UNL     1       1.935 -12.993   0.129  0.00  0.00    +0.026 A 
ATOM     15  C   UNL     1       3.059 -12.624   0.866  0.00  0.00    +0.048 A 
ATOM     16  C   UNL     1       3.364 -11.280   1.090  0.00  0.00    +0.034 A 
ATOM     17  C   UNL     1       2.560 -10.294   0.491  0.00  0.00    +0.002 A 
ATOM     18  C   UNL     1       2.607  -8.872   0.457  0.00  0.00    +0.041 A 
BRANCH  15  19
ATOM     19  N   UNL     1       3.907 -13.624   1.413  0.00  0.00    -0.221 N 
ATOM     20  H   UNL     1       4.175 -14.401   0.812  0.00  0.00    +0.173 HD
BRANCH  19  21
ATOM     21  S   UNL     1       3.741 -14.035   3.037  0.00  0.00    +0.040 S 
ATOM     22  C   UNL     1       2.191 -14.907   3.045  0.00  0.00    +0.218 C 
ATOM     23  O   UNL     1       3.612 -12.838   3.834  0.00  0.00    -0.155 OA
ATOM     24  O   UNL     1       4.779 -15.007   3.302  0.00  0.00    -0.155 OA
ENDBRANCH  19  21
ENDBRANCH  15  19
ENDBRANCH   5   9
BRANCH   1  30
ATOM     25  C   UNL     1       4.338  -1.439  -0.442  0.00  0.00    +0.068 A 
ATOM     26  C   UNL     1       5.276  -0.401  -0.566  0.00  0.00    +0.028 A 
ATOM     27  C   UNL     1       6.572  -0.658  -0.993  0.00  0.00    +0.022 A 
ATOM     28  C   UNL     1       6.899  -1.958  -1.304  0.00  0.00    +0.113 A 
ATOM     29  N   UNL     1       6.020  -2.978  -1.265  0.00  0.00    -0.238 NA
ATOM     30  C   UNL     1       4.737  -2.732  -0.887  0.00  0.00    +0.142 A 
BRANCH  25  31
ATOM     31  N   UNL     1       3.023  -1.174   0.006  0.00  0.00    -0.339 N 
ATOM     32  H   UNL     1       2.452  -1.016  -0.823  0.00  0.00    +0.146 HD
BRANCH  31  34
ATOM     33  C   UNL     1       1.270  -0.119   1.302  0.00  0.00    +0.027 C 
ATOM     34  C   UNL     1       2.772  -0.125   1.003  0.00  0.00    +0.064 C 
ATOM     35  C   UNL     1       3.541  -0.376   2.302  0.00  0.00    +0.027 C 
ENDBRANCH  31  34
ENDBRANCH  25  31
ENDBRANCH   1  30
TORSDOF 6
