REMARK  Name = 
REMARK  9 active torsions:
REMARK  status: ('A' for Active; 'I' for Inactive)
REMARK    1  A    between atoms: C_1  and  C_2
REMARK    2  A    between atoms: C_2  and  C_3
REMARK    3  A    between atoms: C_2  and  N_4
REMARK    4  A    between atoms: N_4  and  C_5
REMARK    5  A    between atoms: C_6  and  N_11
REMARK    6  A    between atoms: C_17  and  C_19
REMARK    7  A    between atoms: C_26  and  N_28
REMARK    8  A    between atoms: N_28  and  S_29
REMARK    9  A    between atoms: S_29  and  C_32
REMARK                            x       y       z     vdW  Elec       q    Type
REMARK                         _______ _______ _______ _____ _____    ______ ____
ROOT
ATOM      1  N   UNL     1       3.844  -3.940  -0.610  0.00  0.00    -0.311 N 
ATOM      2  C   UNL     1       4.249  -5.216  -0.005  0.00  0.00    +0.125 C 
ATOM      3  C   UNL     1       3.765  -6.408  -0.852  0.00  0.00    +0.127 C 
ATOM      4  N   UNL     1       2.324  -6.305  -1.113  0.00  0.00    -0.293 N 
ATOM      5  C   UNL     1       1.318  -7.225  -0.853  0.00  0.00    +0.263 C 
ATOM      6  O   UNL     1       0.155  -6.990  -1.191  0.00  0.00    -0.268 OA
ATOM      7  C   UNL     1       1.991  -5.074  -1.840  0.00  0.00    +0.127 C 
ATOM      8  C   UNL     1       2.456  -3.820  -1.080  0.00  0.00    +0.125 C 
ENDROOT
BRANCH   5   9
ATOM      9  C   UNL     1       1.614  -8.516  -0.256  0.00  0.00    +0.103 A 
ATOM     10  N   UNL     1       0.802  -9.599  -0.537  0.00  0.00    -0.351 N 
ATOM     11  H   UNL     1      -0.030  -9.531  -1.109  0.00  0.00    +0.166 HD
ATOM     12  C   UNL     1       1.343 -10.766  -0.056  0.00  0.00    +0.047 A 
ATOM     13  C   UNL     1       0.937 -12.094  -0.228  0.00  0.00    +0.028 A 
ATOM     14  C   UNL     1       1.727 -13.089   0.358  0.00  0.00    +0.026 A 
ATOM     15  C   UNL     1       2.852 -12.759   1.111  0.00  0.00    +0.048 A 
ATOM     16  C   UNL     1       3.231 -11.423   1.293  0.00  0.00    +0.034 A 
ATOM     17  C   UNL     1       2.460 -10.409   0.691  0.00  0.00    +0.002 A 
ATOM     18  C   UNL     1       2.554  -8.988   0.644  0.00  0.00    +0.041 A 
BRANCH  15  19
ATOM     19  N   UNL     1       3.644 -13.807   1.668  0.00  0.00    -0.221 N 
ATOM     20  H   UNL     1       3.946 -13.648   2.630  0.00  0.00    +0.173 HD
BRANCH  19  21
ATOM     21  S   UNL     1       4.976 -14.341   0.769  0.00  0.00    +0.040 S 
ATOM     22  C   UNL     1       4.279 -15.706  -0.132  0.00  0.00    +0.218 C 
ATOM     23  O   UNL     1       5.901 -14.887   1.742  0.00  0.00    -0.155 OA
ATOM     24  O   UNL     1       5.395 -13.316  -0.164  0.00  0.00    -0.155 OA
ENDBRANCH  19  21
ENDBRANCH  15  19
ENDBRANCH   5   9
BRANCH   1  30
ATOM     25  C   UNL     1       4.365  -1.540  -0.317  0.00  0.00    +0.068 A 
ATOM     26  C   UNL     1       5.340  -0.545  -0.471  0.00  0.00    +0.028 A 
ATOM     27  C   UNL     1       6.662  -0.888  -0.723  0.00  0.00    +0.022 A 
ATOM     28  C   UNL     1       6.965  -2.226  -0.853  0.00  0.00    +0.113 A 
ATOM     29  N   UNL     1       6.047  -3.214  -0.799  0.00  0.00    -0.238 NA
ATOM     30  C   UNL     1       4.748  -2.889  -0.582  0.00  0.00    +0.142 A 
BRANCH  25  31
ATOM     31  N   UNL     1       3.037  -1.227   0.044  0.00  0.00    -0.339 N 
ATOM     32  H   UNL     1       2.665  -2.061   0.497  0.00  0.00    +0.146 HD
BRANCH  31  34
ATOM     33  C   UNL     1       1.179   0.025   0.924  0.00  0.00    +0.027 C 
ATOM     34  C   UNL     1       2.707  -0.043   0.837  0.00  0.00    +0.064 C 
ATOM     35  C   UNL     1       3.297  -0.159   2.243  0.00  0.00    +0.027 C 
ENDBRANCH  31  34
ENDBRANCH  25  31
ENDBRANCH   1  30
TORSDOF 6
