REMARK  Name = 
REMARK  11 active torsions:
REMARK  status: ('A' for Active; 'I' for Inactive)
REMARK    1  A    between atoms: C_1  and  C_2
REMARK    2  A    between atoms: C_2  and  C_3
REMARK    3  A    between atoms: C_2  and  C_4
REMARK    4  A    between atoms: C_2  and  C_5
REMARK    5  A    between atoms: C_7  and  N_28
REMARK    6  A    between atoms: C_9  and  C_13
REMARK    7  A    between atoms: C_10  and  O_11
REMARK    8  A    between atoms: O_11  and  C_12
REMARK    9  A    between atoms: C_20  and  N_23
REMARK   10  A    between atoms: N_23  and  S_24
REMARK   11  A    between atoms: S_24  and  C_27
REMARK                            x       y       z     vdW  Elec       q    Type
REMARK                         _______ _______ _______ _____ _____    ______ ____
ROOT
ATOM      1  C   UNL     1       2.996   0.029   1.190  0.00  0.00    +0.002 A 
ATOM      2  C   UNL     1       3.247  -1.230   1.807  0.00  0.00    +0.132 A 
ATOM      3  C   UNL     1       3.531  -1.301   3.226  0.00  0.00    +0.026 A 
ATOM      4  C   UNL     1       3.674  -0.100   3.957  0.00  0.00    +0.038 A 
ATOM      5  C   UNL     1       3.573   1.154   3.364  0.00  0.00    +0.052 A 
ATOM      6  C   UNL     1       3.237   1.168   2.008  0.00  0.00    +0.034 A 
ENDROOT
BRANCH   3   7
ATOM      7  C   UNL     1       3.662  -2.605   3.983  0.00  0.00    -0.014 A 
ATOM      8  C   UNL     1       4.493  -2.752   5.110  0.00  0.00    +0.009 A 
ATOM      9  C   UNL     1       4.598  -3.969   5.808  0.00  0.00    +0.009 A 
ATOM     10  C   UNL     1       3.932  -5.113   5.349  0.00  0.00    -0.016 A 
ATOM     11  C   UNL     1       4.079  -6.371   5.962  0.00  0.00    +0.033 A 
ATOM     12  C   UNL     1       3.468  -7.499   5.411  0.00  0.00    +0.048 A 
ATOM     13  C   UNL     1       2.713  -7.394   4.247  0.00  0.00    +0.025 A 
ATOM     14  C   UNL     1       2.513  -6.144   3.667  0.00  0.00    +0.010 A 
ATOM     15  C   UNL     1       3.112  -4.999   4.209  0.00  0.00    -0.017 A 
ATOM     16  C   UNL     1       2.934  -3.747   3.605  0.00  0.00    +0.017 A 
BRANCH  12  17
ATOM     17  N   UNL     1       3.693  -8.784   5.990  0.00  0.00    -0.221 N 
ATOM     18  H   UNL     1       2.883  -9.409   5.962  0.00  0.00    +0.173 HD
BRANCH  17  19
ATOM     19  S   UNL     1       5.044  -9.645   5.435  0.00  0.00    +0.040 S 
ATOM     20  C   UNL     1       6.218  -9.310   6.728  0.00  0.00    +0.218 C 
ATOM     21  O   UNL     1       5.528  -9.082   4.195  0.00  0.00    -0.155 OA
ATOM     22  O   UNL     1       4.674 -11.042   5.532  0.00  0.00    -0.155 OA
ENDBRANCH  17  19
ENDBRANCH  12  17
ENDBRANCH   3   7
BRANCH   5  23
ATOM     23  N   UNL     1       3.808   2.378   4.114  0.00  0.00    -0.269 N 
ATOM     24  C   UNL     1       3.214   3.593   3.696  0.00  0.00    +0.334 A 
ATOM     25  O   UNL     1       2.405   3.748   2.782  0.00  0.00    -0.246 OA
ATOM     26  N   UNL     1       3.544   4.709   4.428  0.00  0.00    -0.275 N 
ATOM     27  H   UNL     1       3.076   5.559   4.153  0.00  0.00    +0.173 HD
ATOM     28  C   UNL     1       4.202   4.731   5.616  0.00  0.00    +0.254 A 
ATOM     29  O   UNL     1       4.279   5.724   6.328  0.00  0.00    -0.268 OA
ATOM     30  C   UNL     1       4.816   3.461   6.009  0.00  0.00    +0.088 A 
ATOM     31  C   UNL     1       4.605   2.378   5.258  0.00  0.00    +0.101 A 
ENDBRANCH   5  23
BRANCH   1  33
ATOM     32  C   UNL     1       2.247   1.834  -0.569  0.00  0.00    +0.015 C 
ATOM     33  C   UNL     1       2.484   0.316  -0.255  0.00  0.00    -0.009 C 
ATOM     34  C   UNL     1       3.523  -0.104  -1.315  0.00  0.00    +0.015 C 
ATOM     35  C   UNL     1       1.077  -0.302  -0.484  0.00  0.00    +0.015 C 
ENDBRANCH   1  33
BRANCH   2  36
ATOM     36  O   UNL     1       3.418  -2.450   1.220  0.00  0.00    -0.494 OA
ATOM     37  C   UNL     1       2.923  -2.985   0.017  0.00  0.00    +0.277 C 
ENDBRANCH   2  36
TORSDOF 6
