REMARK  Name = 
REMARK  19 active torsions:
REMARK  status: ('A' for Active; 'I' for Inactive)
REMARK    1  A    between atoms: C_1  and  C_2
REMARK    2  A    between atoms: C_2  and  C_3
REMARK    3  A    between atoms: C_2  and  C_4
REMARK    4  A    between atoms: C_4  and  C_5
REMARK    5  A    between atoms: C_4  and  N_52
REMARK    6  A    between atoms: C_11  and  C_13
REMARK    7  A    between atoms: C_16  and  C_18
REMARK    8  A    between atoms: C_21  and  C_24
REMARK    9  A    between atoms: C_27  and  C_30
REMARK   10  A    between atoms: C_33  and  C_35
REMARK   11  A    between atoms: C_41  and  C_43
REMARK   12  A    between atoms: C_43  and  C_44
REMARK   13  A    between atoms: C_43  and  N_47
REMARK   14  A    between atoms: C_44  and  C_45
REMARK   15  A    between atoms: C_44  and  C_46
REMARK   16  A    between atoms: C_48  and  O_50
REMARK   17  A    between atoms: O_50  and  C_51
REMARK   18  A    between atoms: C_53  and  O_55
REMARK   19  A    between atoms: O_55  and  C_56
REMARK                            x       y       z     vdW  Elec       q    Type
REMARK                         _______ _______ _______ _____ _____    ______ ____
ROOT
ATOM      1  C   UNL     1       0.506  -0.432  20.119  0.00  0.00    -0.000 A 
ATOM      2  C   UNL     1       0.649   0.236  18.898  0.00  0.00    +0.010 A 
ATOM      3  C   UNL     1      -0.456   0.852  18.270  0.00  0.00    +0.009 A 
ATOM      4  C   UNL     1      -1.747   0.822  18.830  0.00  0.00    -0.018 A 
ATOM      5  C   UNL     1      -1.858   0.186  20.080  0.00  0.00    +0.009 A 
ATOM      6  C   UNL     1      -0.760  -0.421  20.711  0.00  0.00    +0.010 A 
ENDROOT
BRANCH   1  10
ATOM      7  C   UNL     1       3.660  -1.816  21.368  0.00  0.00    +0.128 A 
ATOM      8  N   UNL     1       2.945  -0.912  20.615  0.00  0.00    -0.340 N 
ATOM      9  H   UNL     1       3.355  -0.179  20.060  0.00  0.00    +0.167 HD
ATOM     10  C   UNL     1       1.599  -1.170  20.759  0.00  0.00    +0.066 A 
ATOM     11  C   UNL     1       1.580  -2.261  21.611  0.00  0.00    +0.139 A 
ATOM     12  N   UNL     1       2.840  -2.630  22.001  0.00  0.00    -0.238 NA
BRANCH   7  15
ATOM     13  C   UNL     1       5.952  -1.983  19.143  0.00  0.00    +0.237 C 
ATOM     14  N   UNL     1       5.801  -1.229  20.294  0.00  0.00    -0.290 N 
ATOM     15  C   UNL     1       5.161  -1.821  21.474  0.00  0.00    +0.142 C 
ATOM     16  C   UNL     1       5.630  -0.972  22.667  0.00  0.00    +0.032 C 
ATOM     17  C   UNL     1       6.714  -0.053  22.114  0.00  0.00    +0.021 C 
ATOM     18  C   UNL     1       6.415   0.043  20.630  0.00  0.00    +0.108 C 
ATOM     19  O   UNL     1       5.374  -3.068  19.016  0.00  0.00    -0.274 OA
BRANCH  13  20
ATOM     20  C   UNL     1       6.829  -1.448  17.981  0.00  0.00    +0.165 C 
BRANCH  20  21
ATOM     21  N   UNL     1       7.377  -2.638  17.326  0.00  0.00    -0.270 N 
ATOM     22  H   UNL     1       6.740  -3.393  17.096  0.00  0.00    +0.153 HD
ATOM     23  C   UNL     1       8.700  -2.917  17.220  0.00  0.00    +0.401 C 
ATOM     24  O   UNL     1       9.606  -2.207  17.629  0.00  0.00    -0.226 OA
BRANCH  23  25
ATOM     25  O   UNL     1       8.851  -4.092  16.565  0.00  0.00    -0.454 OA
ATOM     26  C   UNL     1      10.206  -4.473  16.321  0.00  0.00    +0.282 C 
ENDBRANCH  23  25
ENDBRANCH  20  21
BRANCH  20  28
ATOM     27  C   UNL     1       5.370   0.619  17.518  0.00  0.00    +0.009 C 
ATOM     28  C   UNL     1       6.031  -0.630  16.939  0.00  0.00    +0.012 C 
ATOM     29  C   UNL     1       6.938  -0.206  15.772  0.00  0.00    +0.009 C 
ENDBRANCH  20  28
ENDBRANCH  13  20
ENDBRANCH   7  15
ENDBRANCH   1  10
BRANCH   4  30
ATOM     30  C   UNL     1      -2.952   1.367  18.134  0.00  0.00    -0.018 A 
ATOM     31  C   UNL     1      -3.088   1.342  16.734  0.00  0.00    +0.009 A 
ATOM     32  C   UNL     1      -4.282   1.736  16.088  0.00  0.00    +0.010 A 
ATOM     33  C   UNL     1      -5.391   2.168  16.818  0.00  0.00    -0.000 A 
ATOM     34  C   UNL     1      -5.247   2.254  18.209  0.00  0.00    +0.010 A 
ATOM     35  C   UNL     1      -4.054   1.868  18.849  0.00  0.00    +0.009 A 
BRANCH  33  36
ATOM     36  C   UNL     1      -6.690   2.447  16.194  0.00  0.00    +0.066 A 
ATOM     37  N   UNL     1      -7.185   1.792  15.080  0.00  0.00    -0.340 N 
ATOM     38  H   UNL     1      -6.700   1.079  14.557  0.00  0.00    +0.167 HD
ATOM     39  C   UNL     1      -8.547   2.012  15.012  0.00  0.00    +0.128 A 
ATOM     40  N   UNL     1      -8.877   2.986  15.839  0.00  0.00    -0.238 NA
ATOM     41  C   UNL     1      -7.749   3.245  16.577  0.00  0.00    +0.139 A 
BRANCH  39  42
ATOM     42  C   UNL     1      -9.519   1.069  14.327  0.00  0.00    +0.142 C 
ATOM     43  N   UNL     1      -8.933   0.372  13.167  0.00  0.00    -0.290 N 
ATOM     44  C   UNL     1      -9.176   0.597  11.813  0.00  0.00    +0.237 C 
ATOM     45  O   UNL     1      -8.991  -0.318  11.005  0.00  0.00    -0.274 OA
ATOM     46  C   UNL     1      -8.503  -0.976  13.543  0.00  0.00    +0.108 C 
ATOM     47  C   UNL     1      -8.681  -1.079  15.047  0.00  0.00    +0.021 C 
ATOM     48  C   UNL     1      -9.821  -0.096  15.304  0.00  0.00    +0.032 C 
BRANCH  44  49
ATOM     49  C   UNL     1      -9.697   1.969  11.301  0.00  0.00    +0.165 C 
BRANCH  49  50
ATOM     50  N   UNL     1     -11.151   1.929  11.135  0.00  0.00    -0.270 N 
ATOM     51  H   UNL     1     -11.536   1.429  10.344  0.00  0.00    +0.153 HD
ATOM     52  C   UNL     1     -11.932   2.932  11.630  0.00  0.00    +0.401 C 
ATOM     53  O   UNL     1     -11.586   3.713  12.505  0.00  0.00    -0.226 OA
BRANCH  52  54
ATOM     54  O   UNL     1     -13.110   2.987  10.963  0.00  0.00    -0.454 OA
ATOM     55  C   UNL     1     -13.910   4.123  11.315  0.00  0.00    +0.282 C 
ENDBRANCH  52  54
ENDBRANCH  49  50
BRANCH  49  56
ATOM     56  C   UNL     1      -9.044   2.276   9.907  0.00  0.00    +0.012 C 
ATOM     57  C   UNL     1      -7.527   2.442  10.032  0.00  0.00    +0.009 C 
ATOM     58  C   UNL     1      -9.628   3.515   9.211  0.00  0.00    +0.009 C 
ENDBRANCH  49  56
ENDBRANCH  44  49
ENDBRANCH  39  42
ENDBRANCH  33  36
ENDBRANCH   4  30
TORSDOF 13
