REMARK  Name = 
REMARK  3 active torsions:
REMARK  status: ('A' for Active; 'I' for Inactive)
REMARK    1  A    between atoms: C_3  and  N_8
REMARK    2  A    between atoms: C_5  and  C_6
REMARK    3  A    between atoms: C_6  and  O_7
REMARK                            x       y       z     vdW  Elec       q    Type
REMARK                         _______ _______ _______ _____ _____    ______ ____
ROOT
ATOM      1  N   UNL     1      -0.164   1.496  -1.796  0.00  0.00    -0.273 N 
ATOM      2  C   UNL     1      -1.202   2.375  -2.129  0.00  0.00    +0.352 A 
ATOM      3  O   UNL     1      -1.937   2.845  -1.265  0.00  0.00    -0.244 OA
ATOM      4  N   UNL     1      -1.377   2.713  -3.454  0.00  0.00    -0.178 NA
ATOM      5  C   UNL     1      -0.542   2.286  -4.346  0.00  0.00    +0.123 A 
ATOM      6  N   UNL     1      -0.762   2.651  -5.645  0.00  0.00    -0.343 N 
ATOM      7  H   UNL     1      -1.414   3.424  -5.726  0.00  0.00    +0.144 HD
ATOM      8  H   UNL     1       0.045   2.734  -6.250  0.00  0.00    +0.144 HD
ATOM      9  C   UNL     1       0.627   1.452  -4.025  0.00  0.00    +0.061 A 
ATOM     10  C   UNL     1       0.755   1.106  -2.747  0.00  0.00    +0.096 A 
ENDROOT
BRANCH   1  14
ATOM     11  C   UNL     1      -0.777  -1.063   0.004  0.00  0.00    +0.038 C 
ATOM     12  C   UNL     1       0.738  -1.038   0.067  0.00  0.00    +0.146 C 
ATOM     13  O   UNL     1       1.165   0.315  -0.205  0.00  0.00    -0.351 OA
ATOM     14  C   UNL     1       0.003   1.156  -0.381  0.00  0.00    +0.224 C 
ATOM     15  C   UNL     1      -1.155   0.377   0.235  0.00  0.00    +0.057 C 
BRANCH  12  16
ATOM     16  C   UNL     1       1.370  -1.989  -0.954  0.00  0.00    +0.187 C 
BRANCH  16  17
ATOM     17  O   UNL     1       2.791  -1.887  -0.921  0.00  0.00    -0.392 OA
ATOM     18  H   UNL     1       2.993  -0.932  -0.915  0.00  0.00    +0.210 HD
ENDBRANCH  16  17
ENDBRANCH  12  16
ENDBRANCH   1  14
TORSDOF 3
