REMARK  Name = 
REMARK  3 active torsions:
REMARK  status: ('A' for Active; 'I' for Inactive)
REMARK    1  A    between atoms: C_3  and  N_8
REMARK    2  A    between atoms: C_5  and  C_6
REMARK    3  A    between atoms: C_6  and  O_7
REMARK                            x       y       z     vdW  Elec       q    Type
REMARK                         _______ _______ _______ _____ _____    ______ ____
ROOT
ATOM      1  N   UNL     1      -0.172   1.504  -1.797  0.00  0.00    -0.273 N 
ATOM      2  C   UNL     1      -1.203   2.397  -2.124  0.00  0.00    +0.352 A 
ATOM      3  O   UNL     1      -1.935   2.863  -1.252  0.00  0.00    -0.244 OA
ATOM      4  N   UNL     1      -1.379   2.744  -3.444  0.00  0.00    -0.178 NA
ATOM      5  C   UNL     1      -0.551   2.312  -4.343  0.00  0.00    +0.123 A 
ATOM      6  N   UNL     1      -0.768   2.698  -5.636  0.00  0.00    -0.343 N 
ATOM      7  H   UNL     1      -1.405   3.483  -5.709  0.00  0.00    +0.144 HD
ATOM      8  H   UNL     1       0.040   2.775  -6.244  0.00  0.00    +0.144 HD
ATOM      9  C   UNL     1       0.606   1.461  -4.030  0.00  0.00    +0.061 A 
ATOM     10  C   UNL     1       0.736   1.106  -2.756  0.00  0.00    +0.096 A 
ENDROOT
BRANCH   1  14
ATOM     11  C   UNL     1      -0.781  -1.061  -0.001  0.00  0.00    +0.038 C 
ATOM     12  C   UNL     1       0.734  -1.033   0.064  0.00  0.00    +0.146 C 
ATOM     13  O   UNL     1       1.159   0.320  -0.211  0.00  0.00    -0.351 OA
ATOM     14  C   UNL     1      -0.003   1.159  -0.384  0.00  0.00    +0.224 C 
ATOM     15  C   UNL     1      -1.162   0.378   0.233  0.00  0.00    +0.057 C 
BRANCH  12  16
ATOM     16  C   UNL     1       1.368  -1.986  -0.953  0.00  0.00    +0.187 C 
BRANCH  16  17
ATOM     17  O   UNL     1       2.789  -1.881  -0.919  0.00  0.00    -0.392 OA
ATOM     18  H   UNL     1       2.989  -0.926  -0.914  0.00  0.00    +0.210 HD
ENDBRANCH  16  17
ENDBRANCH  12  16
ENDBRANCH   1  14
TORSDOF 3
