REMARK  Name = 
REMARK  11 active torsions:
REMARK  status: ('A' for Active; 'I' for Inactive)
REMARK    1  A    between atoms: C_1  and  C_2
REMARK    2  A    between atoms: N_4  and  C_5
REMARK    3  A    between atoms: C_6  and  N_20
REMARK    4  A    between atoms: C_8  and  C_17
REMARK    5  A    between atoms: C_10  and  C_11
REMARK    6  A    between atoms: C_11  and  C_12
REMARK    7  A    between atoms: C_11  and  O_16
REMARK    8  A    between atoms: C_12  and  C_13
REMARK    9  A    between atoms: C_12  and  O_15
REMARK   10  A    between atoms: C_13  and  O_14
REMARK   11  A    between atoms: C_17  and  O_19
REMARK                            x       y       z     vdW  Elec       q    Type
REMARK                         _______ _______ _______ _____ _____    ______ ____
ROOT
ATOM      1  C   UNL     1       4.382   1.114   0.536  0.00  0.00    +0.160 C 
ATOM      2  C   UNL     1       5.121   2.090  -0.420  0.00  0.00    +0.229 C 
ATOM      3  O   UNL     1       5.951   1.522  -1.445  0.00  0.00    -0.477 OA
ATOM      4  C   UNL     1       6.144   0.169  -1.519  0.00  0.00    +0.204 C 
ATOM      5  C   UNL     1       5.705  -0.712  -0.615  0.00  0.00    +0.071 C 
ATOM      6  C   UNL     1       4.976  -0.311   0.614  0.00  0.00    +0.238 C 
ENDROOT
BRANCH   6   7
ATOM      7  N   UNL     1       3.896  -1.284   0.825  0.00  0.00    -0.104 NA
ATOM      8  C   UNL     1       3.551  -1.598   2.018  0.00  0.00    +0.377 C 
ATOM      9  N   UNL     1       2.541  -2.473   2.188  0.00  0.00    -0.289 N 
ATOM     10  H   UNL     1       1.876  -2.248   2.918  0.00  0.00    +0.255 HD
ATOM     11  H   UNL     1       2.073  -2.676   1.308  0.00  0.00    +0.255 HD
ATOM     12  N   UNL     1       4.058  -1.205   3.199  0.00  0.00    -0.289 N 
ATOM     13  H   UNL     1       3.527  -1.345   4.046  0.00  0.00    +0.255 HD
ATOM     14  H   UNL     1       4.789  -0.513   3.257  0.00  0.00    +0.255 HD
ENDBRANCH   6   7
BRANCH   1  17
ATOM     15  C   UNL     1       0.666   1.927   0.275  0.00  0.00    +0.109 C 
ATOM     16  C   UNL     1       2.127   2.156   0.530  0.00  0.00    +0.210 C 
ATOM     17  N   UNL     1       2.942   1.100   0.206  0.00  0.00    -0.305 N 
ATOM     18  H   UNL     1       2.565   0.208  -0.102  0.00  0.00    +0.149 HD
ATOM     19  O   UNL     1       2.560   3.205   1.002  0.00  0.00    -0.276 OA
ENDBRANCH   1  17
BRANCH   4  20
ATOM     20  C   UNL     1       6.963  -0.339  -2.665  0.00  0.00    +0.372 C 
ATOM     21  O   UNL     1       7.276  -1.501  -2.857  0.00  0.00    -0.242 OA
BRANCH  20  22
ATOM     22  O   UNL     1       7.353   0.686  -3.459  0.00  0.00    -0.475 OA
ATOM     23  H   UNL     1       6.996   1.540  -3.127  0.00  0.00    +0.296 HD
ENDBRANCH  20  22
ENDBRANCH   4  20
BRANCH   2  24
ATOM     24  C   UNL     1       5.912   3.176   0.355  0.00  0.00    +0.187 C 
BRANCH  24  25
ATOM     25  O   UNL     1       5.170   3.713   1.452  0.00  0.00    -0.385 OA
ATOM     26  H   UNL     1       4.226   3.820   1.189  0.00  0.00    +0.210 HD
ENDBRANCH  24  25
BRANCH  24  27
ATOM     27  C   UNL     1       6.379   4.340  -0.556  0.00  0.00    +0.172 C 
BRANCH  27  28
ATOM     28  O   UNL     1       7.289   3.890  -1.575  0.00  0.00    -0.387 OA
ATOM     29  H   UNL     1       8.044   3.466  -1.130  0.00  0.00    +0.210 HD
ENDBRANCH  27  28
BRANCH  27  30
ATOM     30  C   UNL     1       7.073   5.444   0.259  0.00  0.00    +0.189 C 
BRANCH  30  31
ATOM     31  O   UNL     1       7.525   6.486  -0.604  0.00  0.00    -0.392 OA
ATOM     32  H   UNL     1       7.897   6.048  -1.393  0.00  0.00    +0.210 HD
ENDBRANCH  30  31
ENDBRANCH  27  30
ENDBRANCH  24  27
ENDBRANCH   2  24
TORSDOF 10
