REMARK  Name = 
REMARK  11 active torsions:
REMARK  status: ('A' for Active; 'I' for Inactive)
REMARK    1  A    between atoms: C_1  and  C_2
REMARK    2  A    between atoms: N_4  and  C_5
REMARK    3  A    between atoms: C_6  and  N_20
REMARK    4  A    between atoms: C_8  and  C_17
REMARK    5  A    between atoms: C_10  and  C_11
REMARK    6  A    between atoms: C_11  and  C_12
REMARK    7  A    between atoms: C_11  and  O_16
REMARK    8  A    between atoms: C_12  and  C_13
REMARK    9  A    between atoms: C_12  and  O_15
REMARK   10  A    between atoms: C_13  and  O_14
REMARK   11  A    between atoms: C_17  and  O_19
REMARK                            x       y       z     vdW  Elec       q    Type
REMARK                         _______ _______ _______ _____ _____    ______ ____
ROOT
ATOM      1  C   UNL     1       4.499   0.070   1.089  0.00  0.00    +0.160 C 
ATOM      2  C   UNL     1       5.229  -1.268   0.765  0.00  0.00    +0.229 C 
ATOM      3  O   UNL     1       5.996  -1.895   1.790  0.00  0.00    -0.477 OA
ATOM      4  C   UNL     1       6.180  -1.292   3.002  0.00  0.00    +0.204 C 
ATOM      5  C   UNL     1       5.674  -0.106   3.347  0.00  0.00    +0.071 C 
ATOM      6  C   UNL     1       4.871   0.750   2.439  0.00  0.00    +0.238 C 
ENDROOT
BRANCH   6   7
ATOM      7  N   UNL     1       3.654   1.142   3.157  0.00  0.00    -0.104 NA
ATOM      8  C   UNL     1       3.106   2.272   2.915  0.00  0.00    +0.377 C 
ATOM      9  N   UNL     1       1.915   2.571   3.472  0.00  0.00    -0.289 N 
ATOM     10  H   UNL     1       1.821   3.528   3.785  0.00  0.00    +0.255 HD
ATOM     11  H   UNL     1       1.663   1.907   4.197  0.00  0.00    +0.255 HD
ATOM     12  N   UNL     1       3.499   3.292   2.120  0.00  0.00    -0.289 N 
ATOM     13  H   UNL     1       2.726   3.738   1.638  0.00  0.00    +0.255 HD
ATOM     14  H   UNL     1       4.278   3.124   1.501  0.00  0.00    +0.255 HD
ENDBRANCH   6   7
BRANCH   1  17
ATOM     15  C   UNL     1       2.676   1.208  -1.051  0.00  0.00    +0.109 C 
ATOM     16  C   UNL     1       2.153   0.352   0.070  0.00  0.00    +0.210 C 
ATOM     17  N   UNL     1       3.040  -0.158   0.971  0.00  0.00    -0.305 N 
ATOM     18  H   UNL     1       2.590  -0.575   1.782  0.00  0.00    +0.149 HD
ATOM     19  O   UNL     1       0.960   0.088   0.170  0.00  0.00    -0.276 OA
ENDBRANCH   1  17
BRANCH   4  20
ATOM     20  C   UNL     1       7.057  -2.016   3.977  0.00  0.00    +0.372 C 
ATOM     21  O   UNL     1       7.390  -1.607   5.076  0.00  0.00    -0.242 OA
BRANCH  20  22
ATOM     22  O   UNL     1       7.491  -3.185   3.446  0.00  0.00    -0.475 OA
ATOM     23  H   UNL     1       7.096  -3.336   2.559  0.00  0.00    +0.296 HD
ENDBRANCH  20  22
ENDBRANCH   4  20
BRANCH   2  24
ATOM     24  C   UNL     1       6.104  -1.161  -0.517  0.00  0.00    +0.187 C 
BRANCH  24  25
ATOM     25  O   UNL     1       5.395  -0.498  -1.564  0.00  0.00    -0.385 OA
ATOM     26  H   UNL     1       4.652  -1.071  -1.838  0.00  0.00    +0.210 HD
ENDBRANCH  24  25
BRANCH  24  27
ATOM     27  C   UNL     1       6.582  -2.536  -1.038  0.00  0.00    +0.172 C 
BRANCH  27  28
ATOM     28  O   UNL     1       7.411  -3.218  -0.089  0.00  0.00    -0.387 OA
ATOM     29  H   UNL     1       8.182  -2.651   0.095  0.00  0.00    +0.210 HD
ENDBRANCH  27  28
BRANCH  27  30
ATOM     30  C   UNL     1       7.355  -2.406  -2.361  0.00  0.00    +0.189 C 
BRANCH  30  31
ATOM     31  O   UNL     1       7.715  -3.702  -2.838  0.00  0.00    -0.392 OA
ATOM     32  H   UNL     1       7.920  -4.242  -2.051  0.00  0.00    +0.210 HD
ENDBRANCH  30  31
ENDBRANCH  27  30
ENDBRANCH  24  27
ENDBRANCH   2  24
TORSDOF 10
