REMARK  Name = 
REMARK  5 active torsions:
REMARK  status: ('A' for Active; 'I' for Inactive)
REMARK    1  A    between atoms: C_1  and  C_2
REMARK    2  A    between atoms: N_4  and  C_10
REMARK    3  A    between atoms: C_12  and  N_17
REMARK    4  A    between atoms: C_13  and  C_15
REMARK    5  A    between atoms: C_15  and  O_16
REMARK                            x       y       z     vdW  Elec       q    Type
REMARK                         _______ _______ _______ _____ _____    ______ ____
ROOT
ATOM      1  C   UNL     1       5.335   2.543  -0.300  0.00  0.00    +0.226 C 
ATOM      2  O   UNL     1       6.396   2.588   0.667  0.00  0.00    -0.349 OA
ATOM      3  C   UNL     1       6.644   3.972   0.987  0.00  0.00    +0.177 C 
ATOM      4  C   UNL     1       5.708   4.833   0.121  0.00  0.00    +0.226 C 
ATOM      5  C   UNL     1       4.583   3.860  -0.165  0.00  0.00    +0.091 C 
ENDROOT
BRANCH   1  14
ATOM      6  C   UNL     1       3.304  -0.954   2.630  0.00  0.00    +0.051 C 
ATOM      7  C   UNL     1       3.536  -0.285   1.315  0.00  0.00    +0.030 A 
ATOM      8  C   UNL     1       2.826  -0.842   0.139  0.00  0.00    +0.257 A 
ATOM      9  O   UNL     1       2.063  -1.797   0.233  0.00  0.00    -0.267 OA
ATOM     10  N   UNL     1       3.060  -0.218  -1.050  0.00  0.00    -0.275 N 
ATOM     11  H   UNL     1       2.566  -0.568  -1.855  0.00  0.00    +0.173 HD
ATOM     12  C   UNL     1       3.814   0.907  -1.232  0.00  0.00    +0.331 A 
ATOM     13  O   UNL     1       3.850   1.456  -2.332  0.00  0.00    -0.246 OA
ATOM     14  N   UNL     1       4.495   1.368  -0.114  0.00  0.00    -0.274 N 
ATOM     15  C   UNL     1       4.332   0.776   1.124  0.00  0.00    +0.101 A 
ENDBRANCH   1  14
BRANCH   4  16
ATOM     16  N   UNL     1       6.349   5.236  -1.146  0.00  0.00    +0.082 NA
ATOM     17  N   UNL     1       5.858   6.231  -1.715  0.00  0.00    -0.014 NA
ATOM     18  N   UNL     1       5.416   7.148  -2.225  0.00  0.00    -0.328 NA
ENDBRANCH   4  16
BRANCH   3  19
ATOM     19  C   UNL     1       8.136   4.275   0.865  0.00  0.00    +0.189 C 
BRANCH  19  20
ATOM     20  O   UNL     1       8.422   5.620   1.227  0.00  0.00    -0.392 OA
ATOM     21  H   UNL     1       8.159   6.177   0.473  0.00  0.00    +0.210 HD
ENDBRANCH  19  20
ENDBRANCH   3  19
TORSDOF 4
