REMARK  Name = 
REMARK  5 active torsions:
REMARK  status: ('A' for Active; 'I' for Inactive)
REMARK    1  A    between atoms: C_1  and  C_2
REMARK    2  A    between atoms: N_4  and  C_10
REMARK    3  A    between atoms: C_12  and  N_17
REMARK    4  A    between atoms: C_13  and  C_15
REMARK    5  A    between atoms: C_15  and  O_16
REMARK                            x       y       z     vdW  Elec       q    Type
REMARK                         _______ _______ _______ _____ _____    ______ ____
ROOT
ATOM      1  C   UNL     1       5.366   2.452  -0.458  0.00  0.00    +0.226 C 
ATOM      2  O   UNL     1       6.428   2.497   0.507  0.00  0.00    -0.349 OA
ATOM      3  C   UNL     1       6.672   3.881   0.830  0.00  0.00    +0.177 C 
ATOM      4  C   UNL     1       5.734   4.741  -0.033  0.00  0.00    +0.226 C 
ATOM      5  C   UNL     1       4.610   3.767  -0.320  0.00  0.00    +0.091 C 
ENDROOT
BRANCH   1  14
ATOM      6  C   UNL     1       3.343  -1.044   2.476  0.00  0.00    +0.051 C 
ATOM      7  C   UNL     1       3.573  -0.378   1.158  0.00  0.00    +0.030 A 
ATOM      8  C   UNL     1       2.862  -0.936  -0.015  0.00  0.00    +0.257 A 
ATOM      9  O   UNL     1       2.103  -1.892   0.080  0.00  0.00    -0.267 OA
ATOM     10  N   UNL     1       3.090  -0.309  -1.204  0.00  0.00    -0.275 N 
ATOM     11  H   UNL     1       2.594  -0.659  -2.008  0.00  0.00    +0.173 HD
ATOM     12  C   UNL     1       3.843   0.819  -1.389  0.00  0.00    +0.331 A 
ATOM     13  O   UNL     1       3.873   1.370  -2.488  0.00  0.00    -0.246 OA
ATOM     14  N   UNL     1       4.527   1.277  -0.272  0.00  0.00    -0.274 N 
ATOM     15  C   UNL     1       4.366   0.684   0.967  0.00  0.00    +0.101 A 
ENDBRANCH   1  14
BRANCH   4  16
ATOM     16  N   UNL     1       6.373   5.147  -1.302  0.00  0.00    +0.082 NA
ATOM     17  N   UNL     1       5.878   6.138  -1.872  0.00  0.00    -0.014 NA
ATOM     18  N   UNL     1       5.429   7.051  -2.382  0.00  0.00    -0.328 NA
ENDBRANCH   4  16
BRANCH   3  19
ATOM     19  C   UNL     1       8.163   4.189   0.707  0.00  0.00    +0.189 C 
BRANCH  19  20
ATOM     20  O   UNL     1       8.444   5.536   1.068  0.00  0.00    -0.392 OA
ATOM     21  H   UNL     1       8.190   6.089   0.309  0.00  0.00    +0.210 HD
ENDBRANCH  19  20
ENDBRANCH   3  19
TORSDOF 4
