REMARK  Name = 
REMARK  18 active torsions:
REMARK  status: ('A' for Active; 'I' for Inactive)
REMARK    1  A    between atoms: C_1  and  C_2
REMARK    2  A    between atoms: C_2  and  C_3
REMARK    3  A    between atoms: C_3  and  C_4
REMARK    4  A    between atoms: C_4  and  C_6
REMARK    5  A    between atoms: C_4  and  N_14
REMARK    6  A    between atoms: C_6  and  C_8
REMARK    7  A    between atoms: N_10  and  C_11
REMARK    8  A    between atoms: C_15  and  C_17
REMARK    9  A    between atoms: C_28  and  C_30
REMARK   10  A    between atoms: C_30  and  C_32
REMARK   11  A    between atoms: C_30  and  N_36
REMARK   12  A    between atoms: C_32  and  C_33
REMARK   13  A    between atoms: C_32  and  C_34
REMARK   14  A    between atoms: C_32  and  C_35
REMARK   15  A    between atoms: C_37  and  C_39
REMARK   16  A    between atoms: C_39  and  C_41
REMARK   17  A    between atoms: C_39  and  N_47
REMARK   18  A    between atoms: C_48  and  C_50
REMARK                            x       y       z     vdW  Elec       q    Type
REMARK                         _______ _______ _______ _____ _____    ______ ____
ROOT
ATOM      1  C   UNL     1       8.262  -5.368  -9.057  0.00  0.00    +0.165 C 
ATOM      2  N   UNL     1       9.672  -4.992  -8.707  0.00  0.00    -0.288 N 
ATOM      3  C   UNL     1      10.143  -3.945  -7.875  0.00  0.00    +0.237 C 
ATOM      4  O   UNL     1      11.084  -3.244  -8.280  0.00  0.00    -0.274 OA
ATOM      5  C   UNL     1      10.521  -5.195  -9.904  0.00  0.00    +0.112 C 
ATOM      6  C   UNL     1       9.689  -5.841 -10.998  0.00  0.00    +0.012 C 
ATOM      7  C   UNL     1       9.196  -4.906 -12.117  0.00  0.00    +0.005 C 
ATOM      8  C   UNL     1       7.688  -5.116 -12.223  0.00  0.00    +0.001 C 
ATOM      9  C   UNL     1       7.391  -6.344 -11.376  0.00  0.00    +0.006 C 
ATOM     10  C   UNL     1       8.450  -6.345 -10.274  0.00  0.00    +0.023 C 
ENDROOT
BRANCH   1  13
ATOM     11  N   UNL     1       7.616  -7.077  -7.270  0.00  0.00    -0.304 N 
ATOM     12  H   UNL     1       8.598  -7.304  -7.182  0.00  0.00    +0.149 HD
ATOM     13  C   UNL     1       7.215  -6.068  -8.123  0.00  0.00    +0.234 C 
ATOM     14  O   UNL     1       6.014  -5.845  -8.301  0.00  0.00    -0.274 OA
BRANCH  11  15
ATOM     15  C   UNL     1       6.625  -7.884  -6.485  0.00  0.00    +0.149 C 
BRANCH  15  16
ATOM     16  C   UNL     1       7.247  -8.324  -5.156  0.00  0.00    +0.237 C 
ATOM     17  O   UNL     1       8.371  -8.813  -5.055  0.00  0.00    -0.285 OA
BRANCH  16  18
ATOM     18  C   UNL     1       6.355  -8.227  -3.909  0.00  0.00    +0.282 C 
ATOM     19  N   UNL     1       6.734  -9.058  -2.866  0.00  0.00    -0.306 N 
ATOM     20  H   UNL     1       7.562  -9.633  -2.994  0.00  0.00    +0.149 HD
ATOM     21  O   UNL     1       5.394  -7.474  -3.902  0.00  0.00    -0.267 OA
BRANCH  19  22
ATOM     22  C   UNL     1       6.052  -9.054  -1.606  0.00  0.00    +0.073 C 
ATOM     23  C   UNL     1       6.314 -10.078  -0.534  0.00  0.00    +0.024 C 
ATOM     24  C   UNL     1       5.028 -10.114  -1.304  0.00  0.00    +0.024 C 
ENDBRANCH  19  22
ENDBRANCH  16  18
ENDBRANCH  15  16
BRANCH  15  25
ATOM     25  C   UNL     1       6.172  -9.158  -7.252  0.00  0.00    +0.030 C 
BRANCH  25  27
ATOM     26  C   UNL     1       4.772 -11.308  -7.179  0.00  0.00    +0.004 C 
ATOM     27  C   UNL     1       5.139 -10.005  -6.478  0.00  0.00    -0.001 C 
ENDBRANCH  25  27
ENDBRANCH  15  25
ENDBRANCH  11  15
ENDBRANCH   1  13
BRANCH   3  28
ATOM     28  C   UNL     1       9.601  -3.667  -6.410  0.00  0.00    +0.164 C 
BRANCH  28  29
ATOM     29  N   UNL     1       8.785  -2.420  -6.351  0.00  0.00    -0.302 N 
ATOM     30  H   UNL     1       7.989  -2.428  -6.972  0.00  0.00    +0.150 HD
ATOM     31  C   UNL     1       8.868  -1.315  -5.498  0.00  0.00    +0.234 C 
ATOM     32  O   UNL     1       9.694  -1.099  -4.619  0.00  0.00    -0.274 OA
BRANCH  31  33
ATOM     33  C   UNL     1       7.825  -0.234  -5.764  0.00  0.00    +0.162 C 
BRANCH  33  34
ATOM     34  C   UNL     1       8.396   0.861  -6.696  0.00  0.00    +0.018 C 
ATOM     35  C   UNL     1       7.276   1.845  -7.068  0.00  0.00    +0.006 C 
ATOM     36  C   UNL     1       6.219   1.175  -7.947  0.00  0.00    +0.000 C 
ATOM     37  C   UNL     1       6.832   0.586  -9.215  0.00  0.00    +0.000 C 
ATOM     38  C   UNL     1       8.036  -0.312  -8.945  0.00  0.00    +0.000 C 
ATOM     39  C   UNL     1       9.041   0.338  -7.996  0.00  0.00    +0.006 C 
ENDBRANCH  33  34
BRANCH  33  40
ATOM     40  N   UNL     1       7.431   0.345  -4.465  0.00  0.00    -0.298 N 
ATOM     41  H   UNL     1       8.165   0.696  -3.851  0.00  0.00    +0.150 HD
ATOM     42  C   UNL     1       6.219   0.024  -3.893  0.00  0.00    +0.264 C 
ATOM     43  O   UNL     1       5.370  -0.646  -4.466  0.00  0.00    -0.268 OA
BRANCH  42  44
ATOM     44  C   UNL     1       5.960   0.510  -2.503  0.00  0.00    +0.143 A 
ATOM     45  C   UNL     1       4.740   0.183  -1.907  0.00  0.00    +0.143 A 
ATOM     46  N   UNL     1       4.420   0.581  -0.653  0.00  0.00    -0.259 NA
ATOM     47  C   UNL     1       5.339   1.353  -0.034  0.00  0.00    +0.130 A 
ATOM     48  C   UNL     1       6.563   1.673  -0.625  0.00  0.00    +0.131 A 
ATOM     49  N   UNL     1       6.922   1.261  -1.877  0.00  0.00    -0.247 NA
ENDBRANCH  42  44
ENDBRANCH  33  40
ENDBRANCH  31  33
ENDBRANCH  28  29
BRANCH  28  50
ATOM     50  C   UNL     1      10.788  -3.703  -5.357  0.00  0.00    -0.011 C 
ATOM     51  C   UNL     1      11.602  -5.010  -5.494  0.00  0.00    +0.013 C 
ATOM     52  C   UNL     1      10.208  -3.775  -3.913  0.00  0.00    +0.013 C 
ATOM     53  C   UNL     1      11.814  -2.543  -5.558  0.00  0.00    +0.013 C 
ENDBRANCH  28  50
ENDBRANCH   3  28
TORSDOF 14
