REMARK  Name = 
REMARK  18 active torsions:
REMARK  status: ('A' for Active; 'I' for Inactive)
REMARK    1  A    between atoms: C_1  and  C_2
REMARK    2  A    between atoms: C_2  and  C_41
REMARK    3  A    between atoms: C_7  and  C_27
REMARK    4  A    between atoms: C_11  and  C_13
REMARK    5  A    between atoms: C_13  and  C_15
REMARK    6  A    between atoms: C_13  and  N_19
REMARK    7  A    between atoms: C_15  and  C_16
REMARK    8  A    between atoms: C_15  and  C_17
REMARK    9  A    between atoms: C_15  and  C_18
REMARK   10  A    between atoms: N_22  and  C_23
REMARK   11  A    between atoms: C_23  and  C_24
REMARK   12  A    between atoms: C_23  and  C_25
REMARK   13  A    between atoms: C_23  and  C_26
REMARK   14  A    between atoms: N_29  and  C_30
REMARK   15  A    between atoms: C_30  and  C_31
REMARK   16  A    between atoms: C_30  and  C_36
REMARK   17  A    between atoms: C_31  and  C_32
REMARK   18  A    between atoms: C_36  and  C_38
REMARK                            x       y       z     vdW  Elec       q    Type
REMARK                         _______ _______ _______ _____ _____    ______ ____
ROOT
ATOM      1  C   UNL     1       0.841   0.120   0.166  0.00  0.00    +0.011 C 
ATOM      2  C   UNL     1       2.357   0.050   0.102  0.00  0.00    -0.025 C 
ATOM      3  C   UNL     1       2.881   0.052  -1.304  0.00  0.00    +0.011 C 
ATOM      4  C   UNL     1       3.106   0.778   1.207  0.00  0.00    +0.030 C 
ATOM      5  C   UNL     1       4.589   1.148   1.303  0.00  0.00    +0.166 C 
ATOM      6  N   UNL     1       5.190  -0.119   1.784  0.00  0.00    -0.288 N 
ATOM      7  C   UNL     1       6.510  -0.201   2.211  0.00  0.00    +0.237 C 
ATOM      8  O   UNL     1       7.162   0.836   2.352  0.00  0.00    -0.274 OA
ATOM      9  C   UNL     1       4.423  -1.249   1.275  0.00  0.00    +0.113 C 
ATOM     10  C   UNL     1       3.022  -0.727   1.226  0.00  0.00    +0.018 C 
ENDROOT
BRANCH   5  11
ATOM     11  C   UNL     1       4.699   2.446   2.163  0.00  0.00    +0.234 C 
ATOM     12  N   UNL     1       5.002   2.269   3.493  0.00  0.00    -0.304 N 
ATOM     13  H   UNL     1       5.519   1.426   3.719  0.00  0.00    +0.149 HD
ATOM     14  O   UNL     1       4.367   3.545   1.713  0.00  0.00    -0.274 OA
BRANCH  12  15
ATOM     15  C   UNL     1       5.137   3.400   4.410  0.00  0.00    +0.149 C 
BRANCH  15  16
ATOM     16  C   UNL     1       6.190   3.065   5.457  0.00  0.00    +0.237 C 
ATOM     17  O   UNL     1       6.491   1.925   5.812  0.00  0.00    -0.285 OA
BRANCH  16  18
ATOM     18  C   UNL     1       6.866   4.262   6.128  0.00  0.00    +0.279 C 
ATOM     19  N   UNL     1       7.726   3.943   7.143  0.00  0.00    -0.323 N 
ATOM     20  H   UNL     1       8.239   4.679   7.605  0.00  0.00    +0.145 HD
ATOM     21  H   UNL     1       7.910   2.972   7.370  0.00  0.00    +0.145 HD
ATOM     22  O   UNL     1       6.640   5.411   5.779  0.00  0.00    -0.267 OA
ENDBRANCH  16  18
ENDBRANCH  15  16
BRANCH  15  23
ATOM     23  C   UNL     1       3.803   3.789   5.072  0.00  0.00    +0.034 C 
BRANCH  23  24
ATOM     24  C   UNL     1       3.157   2.649   5.858  0.00  0.00    -0.009 C 
ATOM     25  C   UNL     1       2.403   1.591   5.020  0.00  0.00    +0.003 C 
ATOM     26  C   UNL     1       1.225   1.679   5.996  0.00  0.00    +0.001 C 
ATOM     27  C   UNL     1       1.810   2.989   6.543  0.00  0.00    +0.003 C 
ENDBRANCH  23  24
ENDBRANCH  15  23
ENDBRANCH  12  15
ENDBRANCH   5  11
BRANCH   7  28
ATOM     28  C   UNL     1       7.079  -1.594   2.672  0.00  0.00    +0.166 C 
BRANCH  28  29
ATOM     29  N   UNL     1       6.422  -2.008   3.931  0.00  0.00    -0.288 N 
ATOM     30  H   UNL     1       6.396  -1.353   4.701  0.00  0.00    +0.151 HD
ATOM     31  C   UNL     1       5.865  -3.252   4.073  0.00  0.00    +0.301 C 
ATOM     32  N   UNL     1       5.493  -3.537   5.367  0.00  0.00    -0.295 N 
ATOM     33  H   UNL     1       5.951  -2.992   6.082  0.00  0.00    +0.151 HD
ATOM     34  O   UNL     1       5.733  -4.024   3.133  0.00  0.00    -0.253 OA
BRANCH  32  35
ATOM     35  C   UNL     1       4.942  -4.849   5.779  0.00  0.00    +0.028 C 
ATOM     36  C   UNL     1       3.613  -5.133   5.057  0.00  0.00    +0.031 C 
ATOM     37  C   UNL     1       4.652  -4.829   7.294  0.00  0.00    +0.031 C 
ATOM     38  C   UNL     1       5.938  -5.993   5.512  0.00  0.00    +0.031 C 
ENDBRANCH  32  35
ENDBRANCH  28  29
BRANCH  28  39
ATOM     39  C   UNL     1       8.650  -1.686   2.819  0.00  0.00    -0.011 C 
ATOM     40  C   UNL     1       9.336  -1.400   1.467  0.00  0.00    +0.013 C 
ATOM     41  C   UNL     1       9.061  -3.122   3.237  0.00  0.00    +0.013 C 
ATOM     42  C   UNL     1       9.233  -0.729   3.879  0.00  0.00    +0.013 C 
ENDBRANCH  28  39
ENDBRANCH   7  28
TORSDOF 10
