REMARK  Name = 
REMARK  5 active torsions:
REMARK  status: ('A' for Active; 'I' for Inactive)
REMARK    1  A    between atoms: C_1  and  C_2
REMARK    2  A    between atoms: C_11  and  O_30
REMARK    3  A    between atoms: C_14  and  C_18
REMARK    4  A    between atoms: N_20  and  C_21
REMARK    5  A    between atoms: C_21  and  C_22
REMARK                            x       y       z     vdW  Elec       q    Type
REMARK                         _______ _______ _______ _____ _____    ______ ____
ROOT
ATOM      1  C   UNL     1       3.608  -1.391  -0.516  0.00  0.00    +0.028 C 
ATOM      2  C   UNL     1       4.395  -2.061   0.674  0.00  0.00    +0.078 C 
ATOM      3  N   UNL     1       5.760  -1.545   1.103  0.00  0.00    -0.266 N 
ATOM      4  C   UNL     1       6.920  -2.344   1.298  0.00  0.00    +0.269 C 
ATOM      5  C   UNL     1       8.284  -1.627   1.724  0.00  0.00    +0.151 A 
ATOM      6  N   UNL     1       8.189  -0.235   1.830  0.00  0.00    -0.335 N 
ATOM      7  C   UNL     1       6.969   0.227   2.457  0.00  0.00    +0.173 C 
ATOM      8  C   UNL     1       9.288   0.547   2.094  0.00  0.00    +0.103 A 
ATOM      9  C   UNL     1      10.517   0.154   2.456  0.00  0.00    +0.103 A 
ATOM     10  C   UNL     1      10.675  -1.335   2.445  0.00  0.00    +0.236 A 
ATOM     11  O   UNL     1      11.728  -1.881   2.773  0.00  0.00    -0.283 OA
ATOM     12  C   UNL     1       9.474  -2.223   2.014  0.00  0.00    +0.194 A 
ATOM     13  O   UNL     1       6.960  -3.580   1.153  0.00  0.00    -0.268 OA
ATOM     14  C   UNL     1       5.747  -0.205   1.687  0.00  0.00    +0.228 C 
ATOM     15  O   UNL     1       4.760  -0.137   2.717  0.00  0.00    -0.357 OA
ATOM     16  C   UNL     1       3.465  -0.409   2.255  0.00  0.00    +0.164 C 
ATOM     17  C   UNL     1       3.407  -1.878   1.841  0.00  0.00    +0.050 C 
ENDROOT
BRANCH   9  18
ATOM     18  C   UNL     1      11.348   1.326   2.909  0.00  0.00    +0.250 C 
ATOM     19  N   UNL     1      12.637   1.274   3.305  0.00  0.00    -0.307 N 
ATOM     20  H   UNL     1      12.986   2.162   3.655  0.00  0.00    +0.149 HD
ATOM     21  O   UNL     1      10.851   2.467   2.959  0.00  0.00    -0.270 OA
BRANCH  19  22
ATOM     22  C   UNL     1      13.442   0.105   3.461  0.00  0.00    +0.142 C 
BRANCH  22  23
ATOM     23  C   UNL     1      14.850   0.401   3.866  0.00  0.00    +0.005 A 
ATOM     24  C   UNL     1      15.830   0.663   2.891  0.00  0.00    +0.011 A 
ATOM     25  C   UNL     1      17.159   0.810   3.278  0.00  0.00    +0.039 A 
ATOM     26  C   UNL     1      17.503   0.722   4.621  0.00  0.00    +0.126 A 
ATOM     27  F   UNL     1      18.788   0.848   4.977  0.00  0.00    -0.205 F 
ATOM     28  C   UNL     1      16.543   0.506   5.601  0.00  0.00    +0.077 A 
ATOM     29  C   UNL     1      15.218   0.353   5.212  0.00  0.00    +0.131 A 
ATOM     30  F   UNL     1      14.290   0.131   6.153  0.00  0.00    -0.205 F 
ENDBRANCH  22  23
ENDBRANCH  19  22
ENDBRANCH   9  18
BRANCH  12  31
ATOM     31  O   UNL     1       9.714  -3.587   2.025  0.00  0.00    -0.502 OA
ATOM     32  H   UNL     1       8.879  -4.064   1.852  0.00  0.00    +0.292 HD
ENDBRANCH  12  31
TORSDOF 4
