REMARK  Name = 
REMARK  5 active torsions:
REMARK  status: ('A' for Active; 'I' for Inactive)
REMARK    1  A    between atoms: C_3  and  N_4
REMARK    2  A    between atoms: N_4  and  C_5
REMARK    3  A    between atoms: N_12  and  C_15
REMARK    4  A    between atoms: C_18  and  C_22
REMARK    5  A    between atoms: C_22  and  O_23
REMARK                            x       y       z     vdW  Elec       q    Type
REMARK                         _______ _______ _______ _____ _____    ______ ____
ROOT
ATOM      1  C   UNL     1       8.516  -4.381  -3.499  0.00  0.00    +0.152 A 
ATOM      2  N   UNL     1       8.507  -5.740  -3.401  0.00  0.00    -0.198 NA
ATOM      3  C   UNL     1       8.162  -6.322  -2.243  0.00  0.00    +0.216 A 
ATOM      4  N   UNL     1       8.178  -7.704  -2.228  0.00  0.00    -0.327 N 
ATOM      5  H   UNL     1       8.796  -8.035  -2.956  0.00  0.00    +0.145 HD
ATOM      6  H   UNL     1       8.345  -8.039  -1.290  0.00  0.00    +0.145 HD
ATOM      7  N   UNL     1       7.835  -5.707  -1.097  0.00  0.00    -0.195 NA
ATOM      8  C   UNL     1       7.843  -4.371  -1.223  0.00  0.00    +0.168 A 
ATOM      9  N   UNL     1       7.503  -3.437  -0.283  0.00  0.00    -0.308 N 
ATOM     10  C   UNL     1       7.649  -2.203  -0.864  0.00  0.00    +0.202 A 
ATOM     11  N   UNL     1       8.049  -2.290  -2.117  0.00  0.00    -0.231 NA
ATOM     12  C   UNL     1       8.169  -3.644  -2.355  0.00  0.00    +0.148 A 
ENDROOT
BRANCH   9  13
ATOM     13  C   UNL     1       7.038  -3.729   1.057  0.00  0.00    +0.113 C 
ATOM     14  C   UNL     1       5.737  -3.064   1.403  0.00  0.00    -0.006 C 
ATOM     15  C   UNL     1       5.741  -2.599   2.658  0.00  0.00    -0.023 C 
ATOM     16  C   UNL     1       7.048  -2.867   3.354  0.00  0.00    +0.039 C 
ATOM     17  C   UNL     1       7.970  -3.222   2.172  0.00  0.00    +0.039 C 
BRANCH  16  18
ATOM     18  C   UNL     1       6.951  -4.008   4.372  0.00  0.00    +0.163 C 
BRANCH  18  19
ATOM     19  O   UNL     1       6.128  -3.638   5.473  0.00  0.00    -0.394 OA
ATOM     20  H   UNL     1       5.206  -3.817   5.217  0.00  0.00    +0.209 HD
ENDBRANCH  18  19
ENDBRANCH  16  18
ENDBRANCH   9  13
BRANCH   1  21
ATOM     21  N   UNL     1       8.824  -3.745  -4.719  0.00  0.00    -0.324 N 
ATOM     22  H   UNL     1       8.560  -2.762  -4.662  0.00  0.00    +0.148 HD
BRANCH  21  24
ATOM     23  C   UNL     1       9.691  -5.074  -6.751  0.00  0.00    +0.024 C 
ATOM     24  C   UNL     1       8.566  -4.471  -5.960  0.00  0.00    +0.072 C 
ATOM     25  C   UNL     1       8.957  -3.879  -7.285  0.00  0.00    +0.024 C 
ENDBRANCH  21  24
ENDBRANCH   1  21
TORSDOF 5
