REMARK  Name = 
REMARK  5 active torsions:
REMARK  status: ('A' for Active; 'I' for Inactive)
REMARK    1  A    between atoms: C_1  and  C_2
REMARK    2  A    between atoms: N_4  and  C_10
REMARK    3  A    between atoms: C_14  and  O_21
REMARK    4  A    between atoms: C_16  and  C_19
REMARK    5  A    between atoms: C_19  and  O_20
REMARK                            x       y       z     vdW  Elec       q    Type
REMARK                         _______ _______ _______ _____ _____    ______ ____
ROOT
ATOM      1  C   UNL     1       5.398   2.589  -0.316  0.00  0.00    +0.260 C 
ATOM      2  O   UNL     1       6.504   2.637   0.611  0.00  0.00    -0.345 OA
ATOM      3  C   UNL     1       6.724   4.024   0.958  0.00  0.00    +0.178 C 
ATOM      4  C   UNL     1       5.761   4.868   0.123  0.00  0.00    +0.184 C 
ATOM      5  C   UNL     1       4.629   3.893  -0.134  0.00  0.00    +0.246 C 
ATOM      6  F   UNL     1       3.948   4.245  -1.249  0.00  0.00    -0.238 F 
ENDROOT
BRANCH   1  15
ATOM      7  C   UNL     1       3.531  -0.952   2.677  0.00  0.00    +0.051 C 
ATOM      8  C   UNL     1       3.700  -0.272   1.357  0.00  0.00    +0.030 A 
ATOM      9  C   UNL     1       2.949  -0.835   0.210  0.00  0.00    +0.257 A 
ATOM     10  O   UNL     1       2.211  -1.806   0.329  0.00  0.00    -0.267 OA
ATOM     11  N   UNL     1       3.119  -0.196  -0.982  0.00  0.00    -0.275 N 
ATOM     12  H   UNL     1       2.608  -0.556  -1.774  0.00  0.00    +0.173 HD
ATOM     13  C   UNL     1       3.890   0.911  -1.204  0.00  0.00    +0.331 A 
ATOM     14  O   UNL     1       3.933   1.418  -2.322  0.00  0.00    -0.246 OA
ATOM     15  N   UNL     1       4.593   1.388  -0.105  0.00  0.00    -0.271 N 
ATOM     16  C   UNL     1       4.475   0.798   1.140  0.00  0.00    +0.102 A 
ENDBRANCH   1  15
BRANCH   4  17
ATOM     17  O   UNL     1       5.367   6.051   0.815  0.00  0.00    -0.386 OA
ATOM     18  H   UNL     1       4.724   5.829   1.510  0.00  0.00    +0.210 HD
ENDBRANCH   4  17
BRANCH   3  19
ATOM     19  C   UNL     1       8.191   4.371   0.705  0.00  0.00    +0.190 C 
BRANCH  19  20
ATOM     20  O   UNL     1       8.538   4.108  -0.654  0.00  0.00    -0.392 OA
ATOM     21  H   UNL     1       8.414   3.150  -0.791  0.00  0.00    +0.210 HD
ENDBRANCH  19  20
ENDBRANCH   3  19
TORSDOF 4
