REMARK  Name = 
REMARK  5 active torsions:
REMARK  status: ('A' for Active; 'I' for Inactive)
REMARK    1  A    between atoms: C_1  and  C_2
REMARK    2  A    between atoms: N_4  and  C_10
REMARK    3  A    between atoms: C_14  and  O_21
REMARK    4  A    between atoms: C_16  and  C_19
REMARK    5  A    between atoms: C_19  and  O_20
REMARK                            x       y       z     vdW  Elec       q    Type
REMARK                         _______ _______ _______ _____ _____    ______ ____
ROOT
ATOM      1  C   UNL     1       5.389   2.428  -0.325  0.00  0.00    +0.260 C 
ATOM      2  O   UNL     1       6.493   2.478   0.605  0.00  0.00    -0.345 OA
ATOM      3  C   UNL     1       6.717   3.867   0.946  0.00  0.00    +0.178 C 
ATOM      4  C   UNL     1       5.755   4.709   0.108  0.00  0.00    +0.184 C 
ATOM      5  C   UNL     1       4.622   3.736  -0.148  0.00  0.00    +0.246 C 
ATOM      6  F   UNL     1       3.945   4.085  -1.266  0.00  0.00    -0.238 F 
ENDROOT
BRANCH   1  15
ATOM      7  C   UNL     1       3.524  -1.119   2.663  0.00  0.00    +0.051 C 
ATOM      8  C   UNL     1       3.691  -0.436   1.344  0.00  0.00    +0.030 A 
ATOM      9  C   UNL     1       2.937  -0.996   0.197  0.00  0.00    +0.257 A 
ATOM     10  O   UNL     1       2.203  -1.971   0.314  0.00  0.00    -0.267 OA
ATOM     11  N   UNL     1       3.104  -0.352  -0.992  0.00  0.00    -0.275 N 
ATOM     12  H   UNL     1       2.594  -0.710  -1.784  0.00  0.00    +0.173 HD
ATOM     13  C   UNL     1       3.876   0.755  -1.212  0.00  0.00    +0.331 A 
ATOM     14  O   UNL     1       3.918   1.264  -2.329  0.00  0.00    -0.246 OA
ATOM     15  N   UNL     1       4.581   1.229  -0.114  0.00  0.00    -0.271 N 
ATOM     16  C   UNL     1       4.466   0.636   1.130  0.00  0.00    +0.102 A 
ENDBRANCH   1  15
BRANCH   4  17
ATOM     17  O   UNL     1       5.361   5.895   0.796  0.00  0.00    -0.386 OA
ATOM     18  H   UNL     1       4.732   5.673   1.502  0.00  0.00    +0.210 HD
ENDBRANCH   4  17
BRANCH   3  19
ATOM     19  C   UNL     1       8.184   4.210   0.691  0.00  0.00    +0.190 C 
BRANCH  19  20
ATOM     20  O   UNL     1       8.529   3.944  -0.668  0.00  0.00    -0.392 OA
ATOM     21  H   UNL     1       8.399   2.987  -0.804  0.00  0.00    +0.210 HD
ENDBRANCH  19  20
ENDBRANCH   3  19
TORSDOF 4
