REMARK  Name = 
REMARK  5 active torsions:
REMARK  status: ('A' for Active; 'I' for Inactive)
REMARK    1  A    between atoms: C5M_1  and  C5_2
REMARK    2  A    between atoms: N1_4  and  C1*_10
REMARK    3  A    between atoms: C3*_13  and  O3*_20
REMARK    4  A    between atoms: C4*_15  and  C5*_18
REMARK    5  A    between atoms: C5*_18  and  O5*_19
REMARK                            x       y       z     vdW  Elec       q    Type
REMARK                         _______ _______ _______ _____ _____    ______ ____
ROOT
ATOM      1  C5M   T A   1       3.162  -1.098   2.408  0.00  0.00    +0.051 C 
ATOM      2  C5    T A   1       3.469  -0.425   1.111  0.00  0.00    +0.030 A 
ATOM      3  C4    T A   1       2.879  -1.002  -0.118  0.00  0.00    +0.257 A 
ATOM      4  O4    T A   1       2.151  -1.988  -0.088  0.00  0.00    -0.267 OA
ATOM      5  N3    T A   1       3.186  -0.362  -1.284  0.00  0.00    -0.275 N 
ATOM      6  H3    T A   1       2.783  -0.735  -2.129  0.00  0.00    +0.173 HD
ATOM      7  C2    T A   1       3.936   0.776  -1.409  0.00  0.00    +0.331 A 
ATOM      8  O2    T A   1       4.074   1.309  -2.508  0.00  0.00    -0.246 OA
ATOM      9  N1    T A   1       4.497   1.261  -0.235  0.00  0.00    -0.274 N 
ATOM     10  C6    T A   1       4.244   0.658   0.984  0.00  0.00    +0.101 A 
ENDROOT
BRANCH   9  11
ATOM     11  C1*   T A   1       5.333   2.449  -0.345  0.00  0.00    +0.226 C 
ATOM     12  O4*   T A   1       6.228   2.561   0.775  0.00  0.00    -0.348 OA
ATOM     13  C4*   T A   1       6.546   3.967   0.938  0.00  0.00    +0.175 C 
ATOM     14  C3*   T A   1       5.629   4.750  -0.011  0.00  0.00    +0.150 C 
ATOM     15  C2*   T A   1       4.547   3.753  -0.360  0.00  0.00    +0.088 C 
BRANCH  14  16
ATOM     16  O3*   T A   1       6.351   5.086  -1.199  0.00  0.00    -0.389 OA
ATOM     17  H3*   T A   1       5.760   5.614  -1.765  0.00  0.00    +0.210 HD
ENDBRANCH  14  16
BRANCH  13  18
ATOM     18  C5*   T A   1       6.336   4.324   2.410  0.00  0.00    +0.190 C 
BRANCH  18  19
ATOM     19  O5*   T A   1       4.971   4.157   2.789  0.00  0.00    -0.392 OA
ATOM     20  H5*   T A   1       4.764   3.219   2.631  0.00  0.00    +0.210 HD
ENDBRANCH  18  19
ENDBRANCH  13  18
ENDBRANCH   9  11
TORSDOF 4
