REMARK  Name = 
REMARK  5 active torsions:
REMARK  status: ('A' for Active; 'I' for Inactive)
REMARK    1  A    between atoms: C5M_1  and  C5_2
REMARK    2  A    between atoms: N1_4  and  C1*_10
REMARK    3  A    between atoms: C3*_13  and  O3*_20
REMARK    4  A    between atoms: C4*_15  and  C5*_18
REMARK    5  A    between atoms: C5*_18  and  O5*_19
REMARK                            x       y       z     vdW  Elec       q    Type
REMARK                         _______ _______ _______ _____ _____    ______ ____
ROOT
ATOM      1  C5M   T A   1       3.649  -0.977   2.671  0.00  0.00    +0.051 C 
ATOM      2  C5    T A   1       3.787  -0.312   1.340  0.00  0.00    +0.030 A 
ATOM      3  C4    T A   1       3.007  -0.877   0.215  0.00  0.00    +0.257 A 
ATOM      4  O4    T A   1       2.251  -1.832   0.361  0.00  0.00    -0.267 OA
ATOM      5  N3    T A   1       3.167  -0.258  -0.990  0.00  0.00    -0.275 N 
ATOM      6  H3    T A   1       2.622  -0.612  -1.760  0.00  0.00    +0.173 HD
ATOM      7  C2    T A   1       3.900   0.873  -1.224  0.00  0.00    +0.331 A 
ATOM      8  O2    T A   1       3.859   1.420  -2.325  0.00  0.00    -0.246 OA
ATOM      9  N1    T A   1       4.643   1.344  -0.150  0.00  0.00    -0.274 N 
ATOM     10  C6    T A   1       4.560   0.754   1.098  0.00  0.00    +0.101 A 
ENDROOT
BRANCH   9  11
ATOM     11  C1*   T A   1       5.441   2.543  -0.378  0.00  0.00    +0.226 C 
ATOM     12  O4*   T A   1       6.537   2.627   0.551  0.00  0.00    -0.348 OA
ATOM     13  C4*   T A   1       6.804   4.036   0.782  0.00  0.00    +0.175 C 
ATOM     14  C3*   T A   1       5.741   4.838   0.031  0.00  0.00    +0.150 C 
ATOM     15  C2*   T A   1       4.644   3.828  -0.202  0.00  0.00    +0.088 C 
BRANCH  14  16
ATOM     16  O3*   T A   1       6.263   5.261  -1.229  0.00  0.00    -0.389 OA
ATOM     17  H3*   T A   1       5.589   5.811  -1.667  0.00  0.00    +0.210 HD
ENDBRANCH  14  16
BRANCH  13  18
ATOM     18  C5*   T A   1       6.757   4.256   2.294  0.00  0.00    +0.190 C 
BRANCH  18  19
ATOM     19  O5*   T A   1       7.785   3.493   2.927  0.00  0.00    -0.392 OA
ATOM     20  H5*   T A   1       7.863   2.663   2.416  0.00  0.00    +0.210 HD
ENDBRANCH  18  19
ENDBRANCH  13  18
ENDBRANCH   9  11
TORSDOF 4
