REMARK  Name = 
REMARK  19 active torsions:
REMARK  status: ('A' for Active; 'I' for Inactive)
REMARK    1  A    between atoms: C_1  and  C_2
REMARK    2  A    between atoms: C_2  and  C_3
REMARK    3  A    between atoms: C_2  and  C_4
REMARK    4  A    between atoms: C_4  and  C_6
REMARK    5  A    between atoms: C_4  and  N_53
REMARK    6  A    between atoms: C_12  and  C_14
REMARK    7  A    between atoms: C_17  and  C_19
REMARK    8  A    between atoms: C_22  and  C_25
REMARK    9  A    between atoms: C_28  and  C_31
REMARK   10  A    between atoms: C_34  and  C_36
REMARK   11  A    between atoms: C_41  and  C_43
REMARK   12  A    between atoms: C_43  and  C_45
REMARK   13  A    between atoms: C_43  and  N_48
REMARK   14  A    between atoms: C_45  and  C_46
REMARK   15  A    between atoms: C_45  and  C_47
REMARK   16  A    between atoms: C_49  and  O_51
REMARK   17  A    between atoms: O_51  and  C_52
REMARK   18  A    between atoms: C_54  and  O_56
REMARK   19  A    between atoms: O_56  and  C_57
REMARK                            x       y       z     vdW  Elec       q    Type
REMARK                         _______ _______ _______ _____ _____    ______ ____
ROOT
ATOM      1  C   UNL     1     -18.512  -4.978  14.434  0.00  0.00    -0.000 A 
ATOM      2  C   UNL     1     -18.740  -3.641  14.785  0.00  0.00    +0.010 A 
ATOM      3  C   UNL     1     -17.847  -2.625  14.393  0.00  0.00    +0.009 A 
ATOM      4  C   UNL     1     -16.689  -2.906  13.651  0.00  0.00    -0.018 A 
ATOM      5  C   UNL     1     -16.562  -4.223  13.176  0.00  0.00    +0.009 A 
ATOM      6  C   UNL     1     -17.456  -5.237  13.556  0.00  0.00    +0.010 A 
ENDROOT
BRANCH   1  10
ATOM      7  C   UNL     1     -20.580  -7.214  16.466  0.00  0.00    +0.128 A 
ATOM      8  N   UNL     1     -20.192  -5.963  16.046  0.00  0.00    -0.340 N 
ATOM      9  H   UNL     1     -20.522  -5.095  16.439  0.00  0.00    +0.167 HD
ATOM     10  C   UNL     1     -19.260  -6.090  15.038  0.00  0.00    +0.066 A 
ATOM     11  C   UNL     1     -19.150  -7.464  14.893  0.00  0.00    +0.139 A 
ATOM     12  N   UNL     1     -19.974  -8.141  15.756  0.00  0.00    -0.238 NA
BRANCH   7  15
ATOM     13  C   UNL     1     -20.346  -7.272  19.790  0.00  0.00    +0.237 C 
ATOM     14  N   UNL     1     -21.213  -6.826  18.809  0.00  0.00    -0.290 N 
ATOM     15  C   UNL     1     -21.596  -7.455  17.542  0.00  0.00    +0.142 C 
ATOM     16  C   UNL     1     -22.956  -6.828  17.172  0.00  0.00    +0.032 C 
ATOM     17  C   UNL     1     -23.331  -5.934  18.350  0.00  0.00    +0.021 C 
ATOM     18  C   UNL     1     -22.013  -5.635  19.032  0.00  0.00    +0.108 C 
ATOM     19  O   UNL     1     -20.299  -6.679  20.879  0.00  0.00    -0.274 OA
BRANCH  13  20
ATOM     20  C   UNL     1     -19.375  -8.464  19.547  0.00  0.00    +0.165 C 
BRANCH  20  21
ATOM     21  N   UNL     1     -18.154  -8.050  20.259  0.00  0.00    -0.270 N 
ATOM     22  H   UNL     1     -18.271  -7.539  21.127  0.00  0.00    +0.153 HD
ATOM     23  C   UNL     1     -16.889  -8.374  19.921  0.00  0.00    +0.401 C 
ATOM     24  O   UNL     1     -16.554  -9.006  18.931  0.00  0.00    -0.226 OA
BRANCH  23  25
ATOM     25  O   UNL     1     -16.039  -7.890  20.855  0.00  0.00    -0.454 OA
ATOM     26  C   UNL     1     -14.656  -8.134  20.594  0.00  0.00    +0.282 C 
ENDBRANCH  23  25
ENDBRANCH  20  21
BRANCH  20  28
ATOM     27  C   UNL     1     -20.040  -9.925  21.595  0.00  0.00    +0.009 C 
ATOM     28  C   UNL     1     -19.809  -9.858  20.079  0.00  0.00    +0.012 C 
ATOM     29  C   UNL     1     -21.022 -10.446  19.365  0.00  0.00    +0.009 C 
ENDBRANCH  20  28
ENDBRANCH  13  20
ENDBRANCH   7  15
ENDBRANCH   1  10
BRANCH   4  30
ATOM     30  C   UNL     1     -15.558  -1.940  13.527  0.00  0.00    -0.018 A 
ATOM     31  C   UNL     1     -15.254  -1.041  14.570  0.00  0.00    +0.009 A 
ATOM     32  C   UNL     1     -14.035  -0.341  14.621  0.00  0.00    +0.010 A 
ATOM     33  C   UNL     1     -13.076  -0.506  13.619  0.00  0.00    -0.000 A 
ATOM     34  C   UNL     1     -13.416  -1.297  12.516  0.00  0.00    +0.010 A 
ATOM     35  C   UNL     1     -14.637  -1.994  12.468  0.00  0.00    +0.009 A 
BRANCH  33  36
ATOM     36  C   UNL     1     -11.720   0.036  13.748  0.00  0.00    +0.066 A 
ATOM     37  N   UNL     1     -10.933  -0.126  14.872  0.00  0.00    -0.340 N 
ATOM     38  H   UNL     1     -11.227  -0.588  15.720  0.00  0.00    +0.167 HD
ATOM     39  C   UNL     1      -9.627   0.193  14.547  0.00  0.00    +0.128 A 
ATOM     40  N   UNL     1      -9.595   0.783  13.367  0.00  0.00    -0.238 NA
ATOM     41  C   UNL     1     -10.864   0.638  12.847  0.00  0.00    +0.139 A 
BRANCH  39  42
ATOM     42  C   UNL     1      -8.469  -0.332  15.338  0.00  0.00    +0.142 C 
ATOM     43  N   UNL     1      -7.316   0.544  15.616  0.00  0.00    -0.290 N 
ATOM     44  C   UNL     1      -7.169   1.748  16.277  0.00  0.00    +0.237 C 
ATOM     45  O   UNL     1      -6.055   2.029  16.757  0.00  0.00    -0.274 OA
ATOM     46  C   UNL     1      -6.076  -0.234  15.496  0.00  0.00    +0.108 C 
ATOM     47  C   UNL     1      -6.471  -1.655  15.145  0.00  0.00    +0.021 C 
ATOM     48  C   UNL     1      -7.829  -1.473  14.509  0.00  0.00    +0.032 C 
BRANCH  44  49
ATOM     49  C   UNL     1      -8.290   2.784  16.516  0.00  0.00    +0.165 C 
BRANCH  49  50
ATOM     50  N   UNL     1      -9.110   3.084  15.356  0.00  0.00    -0.270 N 
ATOM     51  H   UNL     1      -9.066   2.481  14.539  0.00  0.00    +0.153 HD
ATOM     52  C   UNL     1      -9.352   4.384  15.024  0.00  0.00    +0.401 C 
ATOM     53  O   UNL     1      -9.247   5.337  15.781  0.00  0.00    -0.226 OA
BRANCH  52  54
ATOM     54  O   UNL     1      -9.672   4.470  13.713  0.00  0.00    -0.454 OA
ATOM     55  C   UNL     1      -9.768   5.809  13.226  0.00  0.00    +0.282 C 
ENDBRANCH  52  54
ENDBRANCH  49  50
BRANCH  49  56
ATOM     56  C   UNL     1      -9.058   2.708  17.860  0.00  0.00    +0.012 C 
ATOM     57  C   UNL     1      -8.108   2.538  19.054  0.00  0.00    +0.009 C 
ATOM     58  C   UNL     1     -10.169   1.668  17.924  0.00  0.00    +0.009 C 
ENDBRANCH  49  56
ENDBRANCH  44  49
ENDBRANCH  39  42
ENDBRANCH  33  36
ENDBRANCH   4  30
TORSDOF 13
