REMARK  Name = 
REMARK  19 active torsions:
REMARK  status: ('A' for Active; 'I' for Inactive)
REMARK    1  A    between atoms: C_1  and  C_2
REMARK    2  A    between atoms: C_2  and  C_3
REMARK    3  A    between atoms: C_2  and  C_4
REMARK    4  A    between atoms: C_4  and  C_6
REMARK    5  A    between atoms: C_4  and  N_53
REMARK    6  A    between atoms: C_12  and  C_14
REMARK    7  A    between atoms: C_17  and  C_19
REMARK    8  A    between atoms: C_22  and  C_25
REMARK    9  A    between atoms: C_28  and  C_31
REMARK   10  A    between atoms: C_34  and  C_36
REMARK   11  A    between atoms: C_41  and  C_43
REMARK   12  A    between atoms: C_43  and  C_45
REMARK   13  A    between atoms: C_43  and  N_48
REMARK   14  A    between atoms: C_45  and  C_46
REMARK   15  A    between atoms: C_45  and  C_47
REMARK   16  A    between atoms: C_49  and  O_51
REMARK   17  A    between atoms: O_51  and  C_52
REMARK   18  A    between atoms: C_54  and  O_56
REMARK   19  A    between atoms: O_56  and  C_57
REMARK                            x       y       z     vdW  Elec       q    Type
REMARK                         _______ _______ _______ _____ _____    ______ ____
ROOT
ATOM      1  C   UNL     1     -17.885  -4.994  15.243  0.00  0.00    -0.000 A 
ATOM      2  C   UNL     1     -17.877  -3.903  16.120  0.00  0.00    +0.010 A 
ATOM      3  C   UNL     1     -16.750  -3.061  16.215  0.00  0.00    +0.009 A 
ATOM      4  C   UNL     1     -15.591  -3.297  15.454  0.00  0.00    -0.018 A 
ATOM      5  C   UNL     1     -15.676  -4.315  14.486  0.00  0.00    +0.009 A 
ATOM      6  C   UNL     1     -16.798  -5.146  14.382  0.00  0.00    +0.010 A 
ENDROOT
BRANCH   1  10
ATOM      7  C   UNL     1     -20.926  -6.992  15.565  0.00  0.00    +0.128 A 
ATOM      8  N   UNL     1     -20.230  -5.808  15.681  0.00  0.00    -0.340 N 
ATOM      9  H   UNL     1     -20.619  -4.931  15.993  0.00  0.00    +0.167 HD
ATOM     10  C   UNL     1     -18.936  -6.010  15.265  0.00  0.00    +0.066 A 
ATOM     11  C   UNL     1     -18.906  -7.361  14.964  0.00  0.00    +0.139 A 
ATOM     12  N   UNL     1     -20.136  -7.948  15.120  0.00  0.00    -0.238 NA
BRANCH   7  15
ATOM     13  C   UNL     1     -22.582  -7.539  18.424  0.00  0.00    +0.237 C 
ATOM     14  N   UNL     1     -22.656  -6.754  17.278  0.00  0.00    -0.290 N 
ATOM     15  C   UNL     1     -22.389  -7.122  15.885  0.00  0.00    +0.142 C 
ATOM     16  C   UNL     1     -23.217  -6.130  15.040  0.00  0.00    +0.032 C 
ATOM     17  C   UNL     1     -24.006  -5.292  16.042  0.00  0.00    +0.021 C 
ATOM     18  C   UNL     1     -23.247  -5.433  17.347  0.00  0.00    +0.108 C 
ATOM     19  O   UNL     1     -22.994  -7.082  19.494  0.00  0.00    -0.274 OA
BRANCH  13  20
ATOM     20  C   UNL     1     -22.079  -9.016  18.318  0.00  0.00    +0.165 C 
BRANCH  20  21
ATOM     21  N   UNL     1     -20.701  -9.036  17.839  0.00  0.00    -0.270 N 
ATOM     22  H   UNL     1     -20.448  -9.590  17.031  0.00  0.00    +0.153 HD
ATOM     23  C   UNL     1     -19.653  -8.539  18.551  0.00  0.00    +0.401 C 
ATOM     24  O   UNL     1     -19.737  -7.816  19.532  0.00  0.00    -0.226 OA
BRANCH  23  25
ATOM     25  O   UNL     1     -18.495  -9.012  18.031  0.00  0.00    -0.454 OA
ATOM     26  C   UNL     1     -17.338  -8.620  18.768  0.00  0.00    +0.282 C 
ENDBRANCH  23  25
ENDBRANCH  20  21
BRANCH  20  28
ATOM     27  C   UNL     1     -23.620  -9.960  20.197  0.00  0.00    +0.009 C 
ATOM     28  C   UNL     1     -22.192  -9.844  19.650  0.00  0.00    +0.012 C 
ATOM     29  C   UNL     1     -21.653 -11.275  19.464  0.00  0.00    +0.009 C 
ENDBRANCH  20  28
ENDBRANCH  13  20
ENDBRANCH   7  15
ENDBRANCH   1  10
BRANCH   4  30
ATOM     30  C   UNL     1     -14.270  -2.674  15.764  0.00  0.00    -0.018 A 
ATOM     31  C   UNL     1     -13.903  -2.361  17.086  0.00  0.00    +0.009 A 
ATOM     32  C   UNL     1     -12.564  -2.104  17.448  0.00  0.00    +0.010 A 
ATOM     33  C   UNL     1     -11.540  -2.137  16.496  0.00  0.00    -0.000 A 
ATOM     34  C   UNL     1     -11.917  -2.314  15.157  0.00  0.00    +0.010 A 
ATOM     35  C   UNL     1     -13.257  -2.559  14.798  0.00  0.00    +0.009 A 
BRANCH  33  36
ATOM     36  C   UNL     1     -10.116  -2.063  16.874  0.00  0.00    +0.066 A 
ATOM     37  N   UNL     1      -9.553  -2.703  17.970  0.00  0.00    -0.340 N 
ATOM     38  H   UNL     1     -10.068  -3.299  18.601  0.00  0.00    +0.167 HD
ATOM     39  C   UNL     1      -8.165  -2.677  17.851  0.00  0.00    +0.128 A 
ATOM     40  N   UNL     1      -7.834  -1.846  16.879  0.00  0.00    -0.238 NA
ATOM     41  C   UNL     1      -9.014  -1.524  16.236  0.00  0.00    +0.139 A 
BRANCH  39  42
ATOM     42  C   UNL     1      -7.324  -3.801  18.415  0.00  0.00    +0.142 C 
ATOM     43  N   UNL     1      -5.937  -3.581  18.916  0.00  0.00    -0.290 N 
ATOM     44  C   UNL     1      -5.318  -2.867  19.926  0.00  0.00    +0.237 C 
ATOM     45  O   UNL     1      -4.139  -3.171  20.205  0.00  0.00    -0.274 OA
ATOM     46  C   UNL     1      -5.073  -4.656  18.399  0.00  0.00    +0.108 C 
ATOM     47  C   UNL     1      -5.941  -5.630  17.637  0.00  0.00    +0.021 C 
ATOM     48  C   UNL     1      -7.095  -4.765  17.210  0.00  0.00    +0.032 C 
BRANCH  44  49
ATOM     49  C   UNL     1      -5.919  -1.781  20.851  0.00  0.00    +0.165 C 
BRANCH  49  50
ATOM     50  N   UNL     1      -6.662  -0.696  20.236  0.00  0.00    -0.270 N 
ATOM     51  H   UNL     1      -6.905  -0.755  19.261  0.00  0.00    +0.153 HD
ATOM     52  C   UNL     1      -6.438   0.583  20.689  0.00  0.00    +0.401 C 
ATOM     53  O   UNL     1      -5.885   0.873  21.743  0.00  0.00    -0.226 OA
BRANCH  52  54
ATOM     54  O   UNL     1      -6.864   1.472  19.763  0.00  0.00    -0.454 OA
ATOM     55  C   UNL     1      -6.518   2.830  20.039  0.00  0.00    +0.282 C 
ENDBRANCH  52  54
ENDBRANCH  49  50
BRANCH  49  56
ATOM     56  C   UNL     1      -6.535  -2.279  22.184  0.00  0.00    +0.012 C 
ATOM     57  C   UNL     1      -5.669  -3.335  22.882  0.00  0.00    +0.009 C 
ATOM     58  C   UNL     1      -7.975  -2.751  22.037  0.00  0.00    +0.009 C 
ENDBRANCH  49  56
ENDBRANCH  44  49
ENDBRANCH  39  42
ENDBRANCH  33  36
ENDBRANCH   4  30
TORSDOF 13
