REMARK  Name = 
REMARK  4 active torsions:
REMARK  status: ('A' for Active; 'I' for Inactive)
REMARK    1  A    between atoms: C3*_2  and  O3*_20
REMARK    2  A    between atoms: C4*_4  and  C5*_18
REMARK    3  A    between atoms: C1*_7  and  N_9
REMARK    4  A    between atoms: C5*_18  and  O5*_19
REMARK                            x       y       z     vdW  Elec       q    Type
REMARK                         _______ _______ _______ _____ _____    ______ ____
ROOT
ATOM      1  C2* UNL     1      -0.835  -1.020  -0.025  0.00  0.00    +0.086 C 
ATOM      2  C1* UNL     1       0.676  -1.009   0.132  0.00  0.00    +0.212 C 
ATOM      3  O4* UNL     1       1.125   0.350   0.082  0.00  0.00    -0.350 OA
ATOM      4  C4* UNL     1      -0.023   1.195  -0.140  0.00  0.00    +0.174 C 
ATOM      5  C3* UNL     1      -1.238   0.395   0.319  0.00  0.00    +0.150 C 
ENDROOT
BRANCH   2   6
ATOM      6  N   UNL     1       1.203  -1.660   1.323  0.00  0.00    -0.258 N 
ATOM      7  C   UNL     1       1.266  -1.037   2.552  0.00  0.00    +0.310 C 
ATOM      8  O   UNL     1       0.869   0.098   2.791  0.00  0.00    -0.252 OA
ATOM      9  N   UNL     1       1.878  -1.765   3.543  0.00  0.00    -0.239 N 
ATOM     10  H   UNL     1       1.991  -1.276   4.421  0.00  0.00    +0.159 HD
ATOM     11  C   UNL     1       2.688  -2.863   3.370  0.00  0.00    +0.235 C 
ATOM     12  O   UNL     1       3.448  -3.212   4.275  0.00  0.00    -0.274 OA
ATOM     13  C   UNL     1       2.656  -3.500   1.994  0.00  0.00    +0.155 C 
ATOM     14  I   UNL     1       2.792  -5.618   2.158  0.00  0.00    -0.070 I 
ATOM     15  C   UNL     1       1.355  -3.107   1.307  0.00  0.00    +0.135 C 
ENDBRANCH   2   6
BRANCH   5  16
ATOM     16  O3* UNL     1      -2.441   0.764  -0.343  0.00  0.00    -0.389 OA
ATOM     17  H3* UNL     1      -2.291   0.767  -1.304  0.00  0.00    +0.210 HD
ENDBRANCH   5  16
BRANCH   4  18
ATOM     18  C5* UNL     1       0.147   2.549   0.557  0.00  0.00    +0.190 C 
BRANCH  18  19
ATOM     19  O5* UNL     1       0.097   2.470   1.976  0.00  0.00    -0.392 OA
ATOM     20  H5* UNL     1       0.560   1.645   2.248  0.00  0.00    +0.210 HD
ENDBRANCH  18  19
ENDBRANCH   4  18
TORSDOF 4
