REMARK  Name = 
REMARK  7 active torsions:
REMARK  status: ('A' for Active; 'I' for Inactive)
REMARK    1  A    between atoms: C_1  and  N_2
REMARK    2  A    between atoms: C_3  and  C_8
REMARK    3  A    between atoms: C_8  and  N_9
REMARK    4  A    between atoms: C_12  and  C_26
REMARK    5  A    between atoms: C_13  and  O_16
REMARK    6  A    between atoms: O_16  and  C_17
REMARK    7  A    between atoms: C_21  and  C_23
REMARK                            x       y       z     vdW  Elec       q    Type
REMARK                         _______ _______ _______ _____ _____    ______ ____
ROOT
ATOM      1  N   UNL     1       3.626   3.400   0.054  0.00  0.00    -0.305 N 
ATOM      2  C   UNL     1       4.790   2.873   0.608  0.00  0.00    +0.295 A 
ATOM      3  O   UNL     1       4.804   1.825   1.251  0.00  0.00    -0.264 OA
ATOM      4  C   UNL     1       6.056   3.659   0.361  0.00  0.00    +0.204 A 
ATOM      5  C   UNL     1       5.915   4.985   0.139  0.00  0.00    +0.104 A 
ATOM      6  C   UNL     1       4.599   5.543  -0.139  0.00  0.00    +0.034 A 
ATOM      7  C   UNL     1       3.535   4.742  -0.257  0.00  0.00    +0.090 A 
ENDROOT
BRANCH   5   8
ATOM      8  C   UNL     1       7.087   5.922   0.110  0.00  0.00    +0.421 C 
ATOM      9  F   UNL     1       7.993   5.592  -0.845  0.00  0.00    -0.166 F 
ATOM     10  F   UNL     1       7.747   5.943   1.297  0.00  0.00    -0.166 F 
ATOM     11  F   UNL     1       6.724   7.211  -0.138  0.00  0.00    -0.166 F 
ENDBRANCH   5   8
BRANCH   1  12
ATOM     12  C   UNL     1       2.434   2.547  -0.035  0.00  0.00    +0.201 C 
BRANCH  12  20
ATOM     13  C   UNL     1       1.841  -0.440  -0.895  0.00  0.00    +0.155 C 
ATOM     14  N   UNL     1       1.995   0.722  -1.739  0.00  0.00    -0.281 N 
ATOM     15  C   UNL     1       1.755   0.668  -3.093  0.00  0.00    +0.344 A 
ATOM     16  O   UNL     1       1.466  -0.301  -3.771  0.00  0.00    -0.245 OA
ATOM     17  N   UNL     1       1.857   1.979  -3.532  0.00  0.00    -0.227 N 
ATOM     18  H   UNL     1       1.654   2.300  -4.470  0.00  0.00    +0.194 HD
ATOM     19  N   UNL     1       2.115   2.821  -2.486  0.00  0.00    -0.155 NA
ATOM     20  C   UNL     1       2.198   2.026  -1.448  0.00  0.00    +0.154 A 
ENDBRANCH  12  20
ENDBRANCH   1  12
BRANCH   4  21
ATOM     21  O   UNL     1       7.324   3.097   0.496  0.00  0.00    -0.450 OA
BRANCH  21  22
ATOM     22  C   UNL     1       7.659   1.821   0.087  0.00  0.00    +0.131 A 
ATOM     23  C   UNL     1       6.818   0.851  -0.463  0.00  0.00    +0.065 A 
ATOM     24  C   UNL     1       7.276  -0.455  -0.701  0.00  0.00    +0.057 A 
ATOM     25  C   UNL     1       8.619  -0.769  -0.497  0.00  0.00    +0.039 A 
ATOM     26  C   UNL     1       9.485   0.221  -0.042  0.00  0.00    +0.046 A 
ATOM     27 CL   UNL     1      11.154  -0.143   0.161  0.00  0.00    -0.083 Cl
ATOM     28  C   UNL     1       9.010   1.501   0.263  0.00  0.00    +0.066 A 
BRANCH  24  29
ATOM     29  C   UNL     1       6.346  -1.472  -1.112  0.00  0.00    +0.099 C 
ATOM     30  N   UNL     1       5.582  -2.285  -1.420  0.00  0.00    -0.191 NA
ENDBRANCH  24  29
ENDBRANCH  21  22
ENDBRANCH   4  21
TORSDOF 6
