REMARK  Name = 
REMARK  18 active torsions:
REMARK  status: ('A' for Active; 'I' for Inactive)
REMARK    1  A    between atoms: C_1  and  C_2
REMARK    2  A    between atoms: C_2  and  C_3
REMARK    3  A    between atoms: C_3  and  C_4
REMARK    4  A    between atoms: C_4  and  C_6
REMARK    5  A    between atoms: C_4  and  N_14
REMARK    6  A    between atoms: C_6  and  C_8
REMARK    7  A    between atoms: N_10  and  C_11
REMARK    8  A    between atoms: C_15  and  C_17
REMARK    9  A    between atoms: C_28  and  C_30
REMARK   10  A    between atoms: C_30  and  C_31
REMARK   11  A    between atoms: C_30  and  N_35
REMARK   12  A    between atoms: C_31  and  C_32
REMARK   13  A    between atoms: C_31  and  C_33
REMARK   14  A    between atoms: C_31  and  C_34
REMARK   15  A    between atoms: C_36  and  C_38
REMARK   16  A    between atoms: C_38  and  C_40
REMARK   17  A    between atoms: C_38  and  N_46
REMARK   18  A    between atoms: C_47  and  C_49
REMARK                            x       y       z     vdW  Elec       q    Type
REMARK                         _______ _______ _______ _____ _____    ______ ____
ROOT
ATOM      1  C   UNL     1       3.242  -7.276  -4.572  0.00  0.00    +0.165 C 
ATOM      2  N   UNL     1       3.733  -7.263  -3.196  0.00  0.00    -0.288 N 
ATOM      3  C   UNL     1       3.453  -6.406  -2.144  0.00  0.00    +0.237 C 
ATOM      4  O   UNL     1       4.380  -6.171  -1.357  0.00  0.00    -0.274 OA
ATOM      5  C   UNL     1       5.031  -7.973  -3.185  0.00  0.00    +0.112 C 
ATOM      6  C   UNL     1       5.084  -8.805  -4.471  0.00  0.00    +0.012 C 
ATOM      7  C   UNL     1       5.910  -8.252  -5.650  0.00  0.00    +0.005 C 
ATOM      8  C   UNL     1       5.005  -8.321  -6.893  0.00  0.00    +0.001 C 
ATOM      9  C   UNL     1       3.753  -9.053  -6.447  0.00  0.00    +0.006 C 
ATOM     10  C   UNL     1       3.651  -8.724  -4.973  0.00  0.00    +0.023 C 
ENDROOT
BRANCH   1  13
ATOM     11  N   UNL     1       1.535  -6.161  -5.908  0.00  0.00    -0.304 N 
ATOM     12  H   UNL     1       2.231  -5.454  -6.140  0.00  0.00    +0.149 HD
ATOM     13  C   UNL     1       1.786  -7.151  -4.959  0.00  0.00    +0.234 C 
ATOM     14  O   UNL     1       0.928  -7.919  -4.536  0.00  0.00    -0.274 OA
BRANCH  11  15
ATOM     15  C   UNL     1       0.188  -6.056  -6.450  0.00  0.00    +0.149 C 
BRANCH  15  16
ATOM     16  C   UNL     1      -0.091  -5.233  -7.704  0.00  0.00    +0.237 C 
ATOM     17  O   UNL     1      -1.217  -5.149  -8.206  0.00  0.00    -0.285 OA
BRANCH  16  18
ATOM     18  C   UNL     1       1.021  -4.500  -8.458  0.00  0.00    +0.282 C 
ATOM     19  N   UNL     1       0.532  -4.057  -9.676  0.00  0.00    -0.306 N 
ATOM     20  H   UNL     1      -0.467  -4.253  -9.812  0.00  0.00    +0.149 HD
ATOM     21  O   UNL     1       2.137  -4.359  -7.990  0.00  0.00    -0.267 OA
BRANCH  19  22
ATOM     22  C   UNL     1       1.220  -3.391 -10.721  0.00  0.00    +0.073 C 
ATOM     23  C   UNL     1       0.510  -2.318 -11.524  0.00  0.00    +0.024 C 
ATOM     24  C   UNL     1       0.764  -3.659 -12.143  0.00  0.00    +0.024 C 
ENDBRANCH  19  22
ENDBRANCH  16  18
ENDBRANCH  15  16
BRANCH  15  25
ATOM     25  C   UNL     1      -0.750  -5.573  -5.336  0.00  0.00    +0.030 C 
BRANCH  25  27
ATOM     26  C   UNL     1      -2.458  -7.404  -5.679  0.00  0.00    +0.004 C 
ATOM     27  C   UNL     1      -2.226  -5.922  -5.456  0.00  0.00    -0.001 C 
ENDBRANCH  25  27
ENDBRANCH  15  25
ENDBRANCH  11  15
ENDBRANCH   1  13
BRANCH   3  28
ATOM     28  C   UNL     1       2.016  -5.735  -1.913  0.00  0.00    +0.164 C 
BRANCH  28  29
ATOM     29  N   UNL     1       1.903  -4.446  -2.687  0.00  0.00    -0.302 N 
ATOM     30  H   UNL     1       2.792  -4.022  -2.886  0.00  0.00    +0.150 HD
ATOM     31  C   UNL     1       0.720  -3.766  -3.002  0.00  0.00    +0.234 C 
ATOM     32  O   UNL     1      -0.374  -4.235  -2.680  0.00  0.00    -0.274 OA
BRANCH  31  33
ATOM     33  C   UNL     1       0.770  -2.489  -3.974  0.00  0.00    +0.162 C 
BRANCH  33  34
ATOM     34  C   UNL     1       1.692  -1.271  -3.645  0.00  0.00    +0.018 C 
ATOM     35  C   UNL     1       1.839  -0.310  -4.859  0.00  0.00    +0.006 C 
ATOM     36  C   UNL     1       2.640  -0.924  -6.011  0.00  0.00    +0.000 C 
ATOM     37  C   UNL     1       4.013  -1.421  -5.566  0.00  0.00    +0.000 C 
ATOM     38  C   UNL     1       3.965  -2.248  -4.285  0.00  0.00    +0.000 C 
ATOM     39  C   UNL     1       3.122  -1.595  -3.188  0.00  0.00    +0.006 C 
ENDBRANCH  33  34
BRANCH  33  40
ATOM     40  N   UNL     1      -0.614  -2.029  -4.387  0.00  0.00    -0.298 N 
ATOM     41  H   UNL     1      -1.059  -2.493  -5.172  0.00  0.00    +0.150 HD
ATOM     42  C   UNL     1      -1.462  -1.153  -3.721  0.00  0.00    +0.264 C 
ATOM     43  O   UNL     1      -1.176  -0.590  -2.670  0.00  0.00    -0.268 OA
BRANCH  42  44
ATOM     44  C   UNL     1      -2.795  -0.865  -4.390  0.00  0.00    +0.143 A 
ATOM     45  C   UNL     1      -3.676   0.064  -3.837  0.00  0.00    +0.143 A 
ATOM     46  N   UNL     1      -4.867   0.405  -4.415  0.00  0.00    -0.259 NA
ATOM     47  C   UNL     1      -5.152  -0.228  -5.572  0.00  0.00    +0.130 A 
ATOM     48  C   UNL     1      -4.283  -1.158  -6.126  0.00  0.00    +0.131 A 
ATOM     49  N   UNL     1      -3.085  -1.499  -5.566  0.00  0.00    -0.247 NA
ENDBRANCH  42  44
ENDBRANCH  33  40
ENDBRANCH  31  33
ENDBRANCH  28  29
BRANCH  28  50
ATOM     50  C   UNL     1       1.727  -5.571  -0.331  0.00  0.00    -0.011 C 
ATOM     51  C   UNL     1       1.636  -6.952   0.372  0.00  0.00    +0.013 C 
ATOM     52  C   UNL     1       0.374  -4.885  -0.052  0.00  0.00    +0.013 C 
ATOM     53  C   UNL     1       2.793  -4.741   0.422  0.00  0.00    +0.013 C 
ENDBRANCH  28  50
ENDBRANCH   3  28
TORSDOF 14
