REMARK  Name = 
REMARK  4 active torsions:
REMARK  status: ('A' for Active; 'I' for Inactive)
REMARK    1  A    between atoms: C3*_2  and  O3*_20
REMARK    2  A    between atoms: C4*_4  and  C5*_18
REMARK    3  A    between atoms: C1*_7  and  N_9
REMARK    4  A    between atoms: C5*_18  and  O5*_19
REMARK                            x       y       z     vdW  Elec       q    Type
REMARK                         _______ _______ _______ _____ _____    ______ ____
ROOT
ATOM      1  C2* UNL     1      -0.898  -1.026  -0.179  0.00  0.00    +0.088 C 
ATOM      2  C1* UNL     1       0.607  -1.103   0.085  0.00  0.00    +0.226 C 
ATOM      3  O4* UNL     1       1.115   0.245  -0.039  0.00  0.00    -0.348 OA
ATOM      4  C4* UNL     1       0.004   1.133  -0.241  0.00  0.00    +0.175 C 
ATOM      5  C3* UNL     1      -1.224   0.381   0.250  0.00  0.00    +0.150 C 
ENDROOT
BRANCH   2   6
ATOM      6  N   UNL     1       0.955  -1.669   1.393  0.00  0.00    -0.273 N 
ATOM      7  C   UNL     1       0.616  -3.000   1.610  0.00  0.00    +0.331 A 
ATOM      8  O   UNL     1       0.039  -3.705   0.786  0.00  0.00    -0.246 OA
ATOM      9  N   UNL     1       0.966  -3.513   2.829  0.00  0.00    -0.274 N 
ATOM     10  H   UNL     1       0.720  -4.476   3.003  0.00  0.00    +0.173 HD
ATOM     11  C   UNL     1       1.711  -2.888   3.791  0.00  0.00    +0.267 A 
ATOM     12  O   UNL     1       2.032  -3.476   4.818  0.00  0.00    -0.267 OA
ATOM     13  C   UNL     1       2.103  -1.485   3.490  0.00  0.00    +0.094 A 
ATOM     14  I   UNL     1       3.234  -0.432   4.829  0.00  0.00    -0.037 I 
ATOM     15  C   UNL     1       1.705  -0.962   2.322  0.00  0.00    +0.113 A 
ENDBRANCH   2   6
BRANCH   5  16
ATOM     16  O3* UNL     1      -2.433   0.876  -0.297  0.00  0.00    -0.389 OA
ATOM     17  H3* UNL     1      -2.445   0.693  -1.255  0.00  0.00    +0.210 HD
ENDBRANCH   5  16
BRANCH   4  18
ATOM     18  C5* UNL     1       0.195   2.461   0.489  0.00  0.00    +0.190 C 
BRANCH  18  19
ATOM     19  O5* UNL     1      -0.880   3.361   0.236  0.00  0.00    -0.392 OA
ATOM     20  H5* UNL     1      -1.721   2.873   0.350  0.00  0.00    +0.210 HD
ENDBRANCH  18  19
ENDBRANCH   4  18
TORSDOF 4
