REMARK  Name = 
REMARK  4 active torsions:
REMARK  status: ('A' for Active; 'I' for Inactive)
REMARK    1  A    between atoms: C3*_2  and  O3*_20
REMARK    2  A    between atoms: C4*_4  and  C5*_18
REMARK    3  A    between atoms: C1*_7  and  N_9
REMARK    4  A    between atoms: C5*_18  and  O5*_19
REMARK                            x       y       z     vdW  Elec       q    Type
REMARK                         _______ _______ _______ _____ _____    ______ ____
ROOT
ATOM      1  C2* UNL     1      -0.741  -1.112  -0.239  0.00  0.00    +0.088 C 
ATOM      2  C1* UNL     1       0.744  -1.057   0.116  0.00  0.00    +0.226 C 
ATOM      3  O4* UNL     1       1.133   0.331   0.136  0.00  0.00    -0.348 OA
ATOM      4  C4* UNL     1      -0.017   1.125  -0.193  0.00  0.00    +0.175 C 
ATOM      5  C3* UNL     1      -1.223   0.262   0.164  0.00  0.00    +0.150 C 
ENDROOT
BRANCH   2   6
ATOM      6  N   UNL     1       1.063  -1.682   1.400  0.00  0.00    -0.273 N 
ATOM      7  C   UNL     1       1.345  -3.042   1.386  0.00  0.00    +0.331 A 
ATOM      8  O   UNL     1       1.310  -3.741   0.376  0.00  0.00    -0.246 OA
ATOM      9  N   UNL     1       1.678  -3.590   2.595  0.00  0.00    -0.274 N 
ATOM     10  H   UNL     1       1.924  -4.568   2.598  0.00  0.00    +0.173 HD
ATOM     11  C   UNL     1       1.752  -2.936   3.796  0.00  0.00    +0.267 A 
ATOM     12  O   UNL     1       2.108  -3.522   4.813  0.00  0.00    -0.267 OA
ATOM     13  C   UNL     1       1.370  -1.498   3.768  0.00  0.00    +0.094 A 
ATOM     14  I   UNL     1       1.349  -0.410   5.498  0.00  0.00    -0.037 I 
ATOM     15  C   UNL     1       1.057  -0.961   2.582  0.00  0.00    +0.113 A 
ENDBRANCH   2   6
BRANCH   5  16
ATOM     16  O3* UNL     1      -2.416   0.651  -0.492  0.00  0.00    -0.389 OA
ATOM     17  H3* UNL     1      -2.242   0.731  -1.448  0.00  0.00    +0.210 HD
ENDBRANCH   5  16
BRANCH   4  18
ATOM     18  C5* UNL     1       0.018   2.459   0.549  0.00  0.00    +0.190 C 
BRANCH  18  19
ATOM     19  O5* UNL     1      -1.091   3.283   0.219  0.00  0.00    -0.392 OA
ATOM     20  H5* UNL     1      -1.907   2.811   0.474  0.00  0.00    +0.210 HD
ENDBRANCH  18  19
ENDBRANCH   4  18
TORSDOF 4
