REMARK  Name = 
REMARK  19 active torsions:
REMARK  status: ('A' for Active; 'I' for Inactive)
REMARK    1  A    between atoms: C_1  and  C_2
REMARK    2  A    between atoms: C_2  and  C_3
REMARK    3  A    between atoms: C_2  and  C_4
REMARK    4  A    between atoms: C_4  and  N_5
REMARK    5  A    between atoms: N_5  and  C_6
REMARK    6  A    between atoms: N_5  and  S_32
REMARK    7  A    between atoms: C_6  and  C_7
REMARK    8  A    between atoms: C_7  and  C_8
REMARK    9  A    between atoms: C_7  and  O_27
REMARK   10  A    between atoms: C_8  and  C_10
REMARK   11  A    between atoms: C_8  and  N_17
REMARK   12  A    between atoms: C_10  and  C_11
REMARK   13  A    between atoms: C_18  and  O_20
REMARK   14  A    between atoms: O_20  and  C_21
REMARK   15  A    between atoms: O_27  and  P_28
REMARK   16  A    between atoms: P_28  and  O_30
REMARK   17  A    between atoms: P_28  and  O_31
REMARK   18  A    between atoms: S_32  and  C_35
REMARK   19  A    between atoms: C_38  and  N_41
REMARK                            x       y       z     vdW  Elec       q    Type
REMARK                         _______ _______ _______ _____ _____    ______ ____
ROOT
ATOM      1  C   UNL     1       2.407  -0.308   2.422  0.00  0.00    +0.166 C 
ENDROOT
BRANCH   1   2
ATOM      2  C   UNL     1       1.658   0.492   3.549  0.00  0.00    +0.143 C 
BRANCH   2   3
ATOM      3  N   UNL     1       0.803  -0.245   4.582  0.00  0.00    -0.174 NA
BRANCH   3   4
ATOM      4  S   UNL     1      -0.671  -0.947   4.026  0.00  0.00    +0.061 S 
ATOM      5  O   UNL     1      -0.390  -2.338   3.731  0.00  0.00    -0.153 OA
ATOM      6  O   UNL     1      -1.257  -0.053   3.054  0.00  0.00    -0.153 OA
BRANCH   4   7
ATOM      7  C   UNL     1      -1.770  -0.896   5.459  0.00  0.00    +0.106 A 
ATOM      8  C   UNL     1      -2.286  -2.069   6.026  0.00  0.00    +0.030 A 
ATOM      9  C   UNL     1      -3.198  -1.987   7.096  0.00  0.00    +0.024 A 
ATOM     10  C   UNL     1      -3.574  -0.751   7.633  0.00  0.00    +0.025 A 
ATOM     11  C   UNL     1      -3.110   0.409   7.005  0.00  0.00    +0.024 A 
ATOM     12  C   UNL     1      -2.202   0.345   5.935  0.00  0.00    +0.030 A 
BRANCH  10  13
ATOM     13  N   UNL     1      -4.575  -0.669   8.604  0.00  0.00    -0.358 N 
ATOM     14  H   UNL     1      -4.644  -1.481   9.212  0.00  0.00    +0.142 HD
ATOM     15  H   UNL     1      -4.578   0.201   9.131  0.00  0.00    +0.142 HD
ENDBRANCH  10  13
ENDBRANCH   4   7
ENDBRANCH   3   4
BRANCH   3  16
ATOM     16  C   UNL     1       1.486  -1.067   5.611  0.00  0.00    +0.112 C 
BRANCH  16  18
ATOM     17  C   UNL     1       1.731   0.764   7.403  0.00  0.00    +0.008 C 
ATOM     18  C   UNL     1       2.428  -0.319   6.565  0.00  0.00    -0.001 C 
ATOM     19  C   UNL     1       3.057  -1.375   7.488  0.00  0.00    +0.008 C 
ENDBRANCH  16  18
ENDBRANCH   3  16
ENDBRANCH   2   3
ENDBRANCH   1   2
BRANCH   1  20
ATOM     20  C   UNL     1       2.815   0.638   1.162  0.00  0.00    +0.111 C 
BRANCH  20  21
ATOM     21  N   UNL     1       2.109   0.621  -0.155  0.00  0.00    -0.275 N 
ATOM     22  H   UNL     1       2.701   0.815  -0.961  0.00  0.00    +0.152 HD
ATOM     23  C   UNL     1       0.911   0.110  -0.542  0.00  0.00    +0.401 C 
ATOM     24  O   UNL     1       0.043  -0.293   0.209  0.00  0.00    -0.226 OA
BRANCH  23  25
ATOM     25  O   UNL     1       0.828   0.095  -1.914  0.00  0.00    -0.445 OA
BRANCH  25  26
ATOM     26  C   UNL     1      -0.416  -0.334  -2.542  0.00  0.00    +0.206 C 
ATOM     27  C   UNL     1      -0.777  -1.800  -2.296  0.00  0.00    +0.204 C 
ATOM     28  O   UNL     1      -0.878  -2.469  -3.568  0.00  0.00    -0.376 OA
ATOM     29  C   UNL     1      -1.070  -1.470  -4.567  0.00  0.00    +0.163 C 
ATOM     30  C   UNL     1      -0.317  -0.254  -4.069  0.00  0.00    +0.075 C 
ENDBRANCH  25  26
ENDBRANCH  23  25
ENDBRANCH  20  21
BRANCH  20  31
ATOM     31  C   UNL     1       3.588   1.954   1.518  0.00  0.00    +0.060 C 
BRANCH  31  32
ATOM     32  C   UNL     1       2.944   3.305   1.740  0.00  0.00    -0.046 A 
ATOM     33  C   UNL     1       1.853   3.759   1.002  0.00  0.00    +0.004 A 
ATOM     34  C   UNL     1       1.415   5.096   1.104  0.00  0.00    +0.000 A 
ATOM     35  C   UNL     1       2.062   5.990   1.958  0.00  0.00    +0.000 A 
ATOM     36  C   UNL     1       3.161   5.564   2.692  0.00  0.00    +0.000 A 
ATOM     37  C   UNL     1       3.596   4.236   2.580  0.00  0.00    +0.004 A 
ENDBRANCH  31  32
ENDBRANCH  20  31
ENDBRANCH   1  20
BRANCH   1  38
ATOM     38  O   UNL     1       3.647  -0.941   2.999  0.00  0.00    -0.280 OA
BRANCH  38  39
ATOM     39  P   UNL     1       4.632  -1.706   1.800  0.00  0.00    +0.473 P 
ATOM     40  O   UNL     1       5.662  -0.578   1.835  0.00  0.00    -0.228 OA
BRANCH  39  41
ATOM     41  O   UNL     1       5.618  -2.471   0.601  0.00  0.00    -0.303 OA
ATOM     42  H   UNL     1       6.521  -2.229   0.896  0.00  0.00    +0.222 HD
ENDBRANCH  39  41
BRANCH  39  43
ATOM     43  O   UNL     1       5.158  -2.833   2.846  0.00  0.00    -0.303 OA
ATOM     44  H   UNL     1       4.773  -3.709   2.669  0.00  0.00    +0.222 HD
ENDBRANCH  39  43
ENDBRANCH  38  39
ENDBRANCH   1  38
TORSDOF 17
