REMARK  Name = 
REMARK  19 active torsions:
REMARK  status: ('A' for Active; 'I' for Inactive)
REMARK    1  A    between atoms: C_1  and  C_2
REMARK    2  A    between atoms: C_2  and  C_3
REMARK    3  A    between atoms: C_3  and  C_4
REMARK    4  A    between atoms: C_4  and  C_6
REMARK    5  A    between atoms: C_4  and  N_15
REMARK    6  A    between atoms: C_6  and  C_8
REMARK    7  A    between atoms: C_6  and  O_14
REMARK    8  A    between atoms: N_10  and  C_11
REMARK    9  A    between atoms: C_16  and  C_18
REMARK   10  A    between atoms: C_29  and  C_31
REMARK   11  A    between atoms: C_31  and  C_33
REMARK   12  A    between atoms: C_31  and  N_37
REMARK   13  A    between atoms: C_33  and  C_34
REMARK   14  A    between atoms: C_33  and  C_35
REMARK   15  A    between atoms: C_33  and  C_36
REMARK   16  A    between atoms: C_38  and  C_40
REMARK   17  A    between atoms: C_40  and  C_42
REMARK   18  A    between atoms: C_40  and  N_48
REMARK   19  A    between atoms: C_49  and  C_51
REMARK                            x       y       z     vdW  Elec       q    Type
REMARK                         _______ _______ _______ _____ _____    ______ ____
ROOT
ATOM      1  C   UNL     1      -0.881  -4.899  -1.812  0.00  0.00    +0.165 C 
ATOM      2  N   UNL     1       0.186  -4.704  -2.831  0.00  0.00    -0.288 N 
ATOM      3  C   UNL     1       1.580  -4.641  -2.723  0.00  0.00    +0.237 C 
ATOM      4  O   UNL     1       2.239  -4.352  -3.737  0.00  0.00    -0.274 OA
ATOM      5  C   UNL     1      -0.386  -4.039  -4.017  0.00  0.00    +0.112 C 
ATOM      6  C   UNL     1      -1.887  -3.894  -3.801  0.00  0.00    +0.012 C 
ATOM      7  C   UNL     1      -2.404  -2.531  -3.315  0.00  0.00    +0.005 C 
ATOM      8  C   UNL     1      -3.273  -2.801  -2.084  0.00  0.00    +0.001 C 
ATOM      9  C   UNL     1      -3.436  -4.310  -2.016  0.00  0.00    +0.006 C 
ATOM     10  C   UNL     1      -2.184  -4.868  -2.674  0.00  0.00    +0.023 C 
ENDROOT
BRANCH   1  13
ATOM     11  N   UNL     1      -0.807  -7.380  -1.685  0.00  0.00    -0.308 N 
ATOM     12  H   UNL     1      -0.249  -7.281  -2.523  0.00  0.00    +0.149 HD
ATOM     13  C   UNL     1      -0.995  -6.205  -0.985  0.00  0.00    +0.234 C 
ATOM     14  O   UNL     1      -1.435  -6.172   0.161  0.00  0.00    -0.274 OA
BRANCH  11  15
ATOM     15  C   UNL     1      -0.980  -8.742  -1.098  0.00  0.00    +0.110 C 
BRANCH  15  16
ATOM     16  C   UNL     1      -2.407  -8.971  -0.503  0.00  0.00    +0.025 C 
BRANCH  16  18
ATOM     17  C   UNL     1      -4.024 -10.483   0.767  0.00  0.00    +0.004 C 
ATOM     18  C   UNL     1      -2.670 -10.373   0.074  0.00  0.00    -0.001 C 
ENDBRANCH  16  18
ENDBRANCH  15  16
BRANCH  15  19
ATOM     19  C   UNL     1      -0.528  -9.838  -2.111  0.00  0.00    +0.220 C 
BRANCH  19  20
ATOM     20  C   UNL     1      -1.525 -10.026  -3.269  0.00  0.00    +0.244 C 
ATOM     21  N   UNL     1      -1.438  -9.069  -4.263  0.00  0.00    -0.310 N 
ATOM     22  H   UNL     1      -0.594  -8.516  -4.328  0.00  0.00    +0.149 HD
ATOM     23  O   UNL     1      -2.291 -10.981  -3.317  0.00  0.00    -0.273 OA
BRANCH  21  24
ATOM     24  C   UNL     1      -2.338  -9.038  -5.367  0.00  0.00    +0.073 C 
ATOM     25  C   UNL     1      -2.402  -7.830  -6.271  0.00  0.00    +0.024 C 
ATOM     26  C   UNL     1      -3.532  -8.134  -5.324  0.00  0.00    +0.024 C 
ENDBRANCH  21  24
ENDBRANCH  19  20
BRANCH  19  27
ATOM     27  O   UNL     1      -0.238 -11.071  -1.457  0.00  0.00    -0.381 OA
ATOM     28  H   UNL     1      -0.824 -11.746  -1.857  0.00  0.00    +0.211 HD
ENDBRANCH  19  27
ENDBRANCH  15  19
ENDBRANCH  11  15
ENDBRANCH   1  13
BRANCH   3  29
ATOM     29  C   UNL     1       2.384  -4.990  -1.414  0.00  0.00    +0.164 C 
BRANCH  29  30
ATOM     30  N   UNL     1       3.395  -6.026  -1.824  0.00  0.00    -0.302 N 
ATOM     31  H   UNL     1       3.594  -6.090  -2.816  0.00  0.00    +0.150 HD
ATOM     32  C   UNL     1       4.030  -6.894  -0.955  0.00  0.00    +0.234 C 
ATOM     33  O   UNL     1       3.913  -6.766   0.266  0.00  0.00    -0.274 OA
BRANCH  32  34
ATOM     34  C   UNL     1       4.913  -8.060  -1.529  0.00  0.00    +0.162 C 
BRANCH  34  35
ATOM     35  C   UNL     1       6.454  -7.935  -1.749  0.00  0.00    +0.018 C 
ATOM     36  C   UNL     1       7.282  -7.605  -0.491  0.00  0.00    +0.006 C 
ATOM     37  C   UNL     1       7.338  -6.119  -0.154  0.00  0.00    +0.000 C 
ATOM     38  C   UNL     1       7.745  -5.274  -1.357  0.00  0.00    +0.000 C 
ATOM     39  C   UNL     1       6.888  -5.576  -2.581  0.00  0.00    +0.000 C 
ATOM     40  C   UNL     1       6.899  -7.054  -2.924  0.00  0.00    +0.006 C 
ENDBRANCH  34  35
BRANCH  34  41
ATOM     41  N   UNL     1       4.281  -8.648  -2.717  0.00  0.00    -0.298 N 
ATOM     42  H   UNL     1       4.097  -8.091  -3.545  0.00  0.00    +0.150 HD
ATOM     43  C   UNL     1       4.098 -10.014  -2.839  0.00  0.00    +0.264 C 
ATOM     44  O   UNL     1       4.428 -10.833  -1.990  0.00  0.00    -0.268 OA
BRANCH  43  45
ATOM     45  C   UNL     1       3.470 -10.454  -4.113  0.00  0.00    +0.143 A 
ATOM     46  C   UNL     1       3.322 -11.807  -4.381  0.00  0.00    +0.143 A 
ATOM     47  N   UNL     1       2.753 -12.255  -5.530  0.00  0.00    -0.259 NA
ATOM     48  C   UNL     1       2.347 -11.294  -6.391  0.00  0.00    +0.130 A 
ATOM     49  C   UNL     1       2.496  -9.942  -6.120  0.00  0.00    +0.131 A 
ATOM     50  N   UNL     1       3.052  -9.477  -4.975  0.00  0.00    -0.247 NA
ENDBRANCH  43  45
ENDBRANCH  34  41
ENDBRANCH  32  34
ENDBRANCH  29  30
BRANCH  29  51
ATOM     51  C   UNL     1       3.023  -3.690  -0.743  0.00  0.00    -0.011 C 
ATOM     52  C   UNL     1       3.400  -3.939   0.737  0.00  0.00    +0.013 C 
ATOM     53  C   UNL     1       2.001  -2.533  -0.731  0.00  0.00    +0.013 C 
ATOM     54  C   UNL     1       4.301  -3.168  -1.438  0.00  0.00    +0.013 C 
ENDBRANCH  29  51
ENDBRANCH   3  29
TORSDOF 15
