REMARK  Name = 
REMARK  9 active torsions:
REMARK  status: ('A' for Active; 'I' for Inactive)
REMARK    1  A    between atoms: N_3  and  C_9
REMARK    2  A    between atoms: C_9  and  C_10
REMARK    3  A    between atoms: C_10  and  C_12
REMARK    4  A    between atoms: C_10  and  O_14
REMARK    5  A    between atoms: C_12  and  O_13
REMARK    6  A    between atoms: O_14  and  C_15
REMARK    7  A    between atoms: C_15  and  P_16
REMARK    8  A    between atoms: P_16  and  O_18
REMARK    9  A    between atoms: P_16  and  O_19
REMARK                            x       y       z     vdW  Elec       q    Type
REMARK                         _______ _______ _______ _____ _____    ______ ____
ROOT
ATOM      1  C   UNL     1       1.441  -3.196   0.587  0.00  0.00    +0.164 C 
ENDROOT
BRANCH   1   2
ATOM      2  C   UNL     1       0.077  -2.594   0.153  0.00  0.00    +0.160 C 
BRANCH   2  11
ATOM      3  C   UNL     1      -0.894   0.910   0.583  0.00  0.00    +0.061 A 
ATOM      4  C   UNL     1       0.131   1.500  -0.298  0.00  0.00    +0.123 A 
ATOM      5  N   UNL     1       0.264   2.857  -0.354  0.00  0.00    -0.343 N 
ATOM      6  H   UNL     1      -0.553   3.427  -0.179  0.00  0.00    +0.144 HD
ATOM      7  H   UNL     1       0.842   3.169  -1.127  0.00  0.00    +0.144 HD
ATOM      8  N   UNL     1       0.936   0.802  -1.039  0.00  0.00    -0.178 NA
ATOM      9  C   UNL     1       0.891  -0.573  -0.978  0.00  0.00    +0.350 A 
ATOM     10  O   UNL     1       1.605  -1.262  -1.709  0.00  0.00    -0.244 OA
ATOM     11  N   UNL     1       0.044  -1.155  -0.027  0.00  0.00    -0.296 N 
ATOM     12  C   UNL     1      -0.862  -0.414   0.692  0.00  0.00    +0.094 A 
ENDBRANCH   2  11
ENDBRANCH   1   2
BRANCH   1  13
ATOM     13  O   UNL     1       1.328  -4.635   0.724  0.00  0.00    -0.360 OA
BRANCH  13  14
ATOM     14  C   UNL     1       1.097  -5.232  -0.551  0.00  0.00    +0.286 C 
BRANCH  14  15
ATOM     15  P   UNL     1       0.974  -7.056  -0.468  0.00  0.00    +0.353 P 
ATOM     16  O   UNL     1      -0.509  -6.990  -0.081  0.00  0.00    -0.256 OA
BRANCH  15  17
ATOM     17  O   UNL     1       0.857  -8.780  -0.389  0.00  0.00    -0.323 OA
ATOM     18  H   UNL     1      -0.104  -8.961  -0.353  0.00  0.00    +0.220 HD
ENDBRANCH  15  17
BRANCH  15  19
ATOM     19  O   UNL     1       0.942  -7.166  -2.104  0.00  0.00    -0.323 OA
ATOM     20  H   UNL     1       0.025  -7.258  -2.425  0.00  0.00    +0.220 HD
ENDBRANCH  15  19
ENDBRANCH  14  15
ENDBRANCH  13  14
ENDBRANCH   1  13
BRANCH   1  21
ATOM     21  C   UNL     1       1.950  -2.643   1.928  0.00  0.00    +0.189 C 
BRANCH  21  22
ATOM     22  O   UNL     1       2.181  -1.240   1.926  0.00  0.00    -0.392 OA
ATOM     23  H   UNL     1       2.809  -1.034   1.209  0.00  0.00    +0.210 HD
ENDBRANCH  21  22
ENDBRANCH   1  21
TORSDOF 9
