REMARK  Name = 
REMARK  9 active torsions:
REMARK  status: ('A' for Active; 'I' for Inactive)
REMARK    1  A    between atoms: N_3  and  C_9
REMARK    2  A    between atoms: C_9  and  C_10
REMARK    3  A    between atoms: C_10  and  C_12
REMARK    4  A    between atoms: C_10  and  O_14
REMARK    5  A    between atoms: C_12  and  O_13
REMARK    6  A    between atoms: O_14  and  C_15
REMARK    7  A    between atoms: C_15  and  P_16
REMARK    8  A    between atoms: P_16  and  O_18
REMARK    9  A    between atoms: P_16  and  O_19
REMARK                            x       y       z     vdW  Elec       q    Type
REMARK                         _______ _______ _______ _____ _____    ______ ____
ROOT
ATOM      1  C   UNL     1       1.455  -3.165   0.443  0.00  0.00    +0.164 C 
ENDROOT
BRANCH   1   2
ATOM      2  C   UNL     1       0.067  -2.612   0.081  0.00  0.00    +0.160 C 
BRANCH   2  11
ATOM      3  C   UNL     1      -0.005   0.635  -1.641  0.00  0.00    +0.061 A 
ATOM      4  C   UNL     1      -0.641   1.406  -0.554  0.00  0.00    +0.123 A 
ATOM      5  N   UNL     1      -1.057   2.687  -0.787  0.00  0.00    -0.343 N 
ATOM      6  H   UNL     1      -0.545   3.241  -1.463  0.00  0.00    +0.144 HD
ATOM      7  H   UNL     1      -1.286   3.186   0.067  0.00  0.00    +0.144 HD
ATOM      8  N   UNL     1      -0.844   0.931   0.633  0.00  0.00    -0.178 NA
ATOM      9  C   UNL     1      -0.519  -0.372   0.912  0.00  0.00    +0.350 A 
ATOM     10  O   UNL     1      -0.678  -0.841   2.037  0.00  0.00    -0.244 OA
ATOM     11  N   UNL     1      -0.022  -1.170  -0.127  0.00  0.00    -0.296 N 
ATOM     12  C   UNL     1       0.255  -0.639  -1.366  0.00  0.00    +0.094 A 
ENDBRANCH   2  11
ENDBRANCH   1   2
BRANCH   1  13
ATOM     13  O   UNL     1       1.388  -4.600   0.588  0.00  0.00    -0.360 OA
BRANCH  13  14
ATOM     14  C   UNL     1       1.229  -5.339  -0.636  0.00  0.00    +0.286 C 
BRANCH  14  15
ATOM     15  P   UNL     1       1.480  -7.057  -0.159  0.00  0.00    +0.353 P 
ATOM     16  O   UNL     1       2.843  -7.444   0.306  0.00  0.00    -0.256 OA
BRANCH  15  17
ATOM     17  O   UNL     1       0.926  -7.992  -1.334  0.00  0.00    -0.323 OA
ATOM     18  H   UNL     1       1.071  -8.933  -1.106  0.00  0.00    +0.220 HD
ENDBRANCH  15  17
BRANCH  15  19
ATOM     19  O   UNL     1       0.364  -7.308   0.971  0.00  0.00    -0.323 OA
ATOM     20  H   UNL     1       0.489  -6.696   1.725  0.00  0.00    +0.220 HD
ENDBRANCH  15  19
ENDBRANCH  14  15
ENDBRANCH  13  14
ENDBRANCH   1  13
BRANCH   1  21
ATOM     21  C   UNL     1       1.938  -2.634   1.804  0.00  0.00    +0.189 C 
BRANCH  21  22
ATOM     22  O   UNL     1       3.234  -3.157   2.109  0.00  0.00    -0.392 OA
ATOM     23  H   UNL     1       3.125  -4.120   2.213  0.00  0.00    +0.210 HD
ENDBRANCH  21  22
ENDBRANCH   1  21
TORSDOF 9
