REMARK  Name = 
REMARK  17 active torsions:
REMARK  status: ('A' for Active; 'I' for Inactive)
REMARK    1  A    between atoms: C_1  and  C_2
REMARK    2  A    between atoms: C_2  and  C_3
REMARK    3  A    between atoms: C_2  and  C_4
REMARK    4  A    between atoms: C_2  and  N_5
REMARK    5  A    between atoms: C_6  and  C_8
REMARK    6  A    between atoms: N_18  and  C_19
REMARK    7  A    between atoms: C_19  and  C_20
REMARK    8  A    between atoms: C_20  and  C_22
REMARK    9  A    between atoms: C_20  and  O_53
REMARK   10  A    between atoms: C_22  and  C_24
REMARK   11  A    between atoms: C_22  and  N_31
REMARK   12  A    between atoms: C_24  and  C_25
REMARK   13  A    between atoms: C_32  and  C_34
REMARK   14  A    between atoms: C_34  and  C_36
REMARK   15  A    between atoms: C_34  and  N_40
REMARK   16  A    between atoms: C_36  and  C_37
REMARK   17  A    between atoms: C_41  and  C_43
REMARK                            x       y       z     vdW  Elec       q    Type
REMARK                         _______ _______ _______ _____ _____    ______ ____
ROOT
ATOM      1  C   UNL     1       4.910   3.892  -1.490  0.00  0.00    +0.107 C 
ENDROOT
BRANCH   1   2
ATOM      2  N   UNL     1       3.979   3.603  -0.370  0.00  0.00    -0.308 N 
ATOM      3  H   UNL     1       4.036   4.190   0.456  0.00  0.00    +0.149 HD
ATOM      4  C   UNL     1       2.869   2.779  -0.447  0.00  0.00    +0.234 C 
ATOM      5  O   UNL     1       2.652   2.078  -1.434  0.00  0.00    -0.274 OA
BRANCH   4   6
ATOM      6  C   UNL     1       2.060   2.677   0.890  0.00  0.00    +0.168 C 
BRANCH   6   7
ATOM      7  N   UNL     1       2.163   3.935   1.648  0.00  0.00    -0.298 N 
ATOM      8  H   UNL     1       2.419   3.907   2.633  0.00  0.00    +0.150 HD
ATOM      9  C   UNL     1       1.483   5.078   1.255  0.00  0.00    +0.263 C 
ATOM     10  O   UNL     1       0.924   5.197   0.172  0.00  0.00    -0.269 OA
BRANCH   9  11
ATOM     11  C   UNL     1       1.437   6.152   2.292  0.00  0.00    +0.126 A 
ATOM     12  C   UNL     1       0.679   7.294   2.077  0.00  0.00    +0.033 A 
ATOM     13  C   UNL     1       0.623   8.231   3.101  0.00  0.00    +0.012 A 
ATOM     14  C   UNL     1       1.313   7.998   4.299  0.00  0.00    +0.000 A 
ATOM     15  C   UNL     1       2.052   6.803   4.419  0.00  0.00    +0.072 A 
ATOM     16  C   UNL     1       2.734   6.566   5.607  0.00  0.00    +0.028 A 
ATOM     17  C   UNL     1       2.683   7.470   6.669  0.00  0.00    +0.002 A 
ATOM     18  C   UNL     1       1.949   8.644   6.550  0.00  0.00    +0.001 A 
ATOM     19  C   UNL     1       1.266   8.914   5.364  0.00  0.00    +0.010 A 
ATOM     20  N   UNL     1       2.115   5.888   3.441  0.00  0.00    -0.242 NA
ENDBRANCH   9  11
ENDBRANCH   6   7
BRANCH   6  21
ATOM     21  C   UNL     1       0.599   2.230   0.798  0.00  0.00    +0.127 C 
BRANCH  21  22
ATOM     22  C   UNL     1       0.368   0.952   0.039  0.00  0.00    +0.213 C 
ATOM     23  N   UNL     1       0.021   1.124  -1.271  0.00  0.00    -0.329 N 
ATOM     24  H   UNL     1      -0.018   0.276  -1.820  0.00  0.00    +0.145 HD
ATOM     25  H   UNL     1       0.413   1.927  -1.756  0.00  0.00    +0.145 HD
ATOM     26  O   UNL     1       0.431  -0.157   0.552  0.00  0.00    -0.276 OA
ENDBRANCH  21  22
ENDBRANCH   6  21
ENDBRANCH   4   6
ENDBRANCH   1   2
BRANCH   1  27
ATOM     27  C   UNL     1       6.093   2.873  -1.537  0.00  0.00    +0.149 C 
BRANCH  27  28
ATOM     28  O   UNL     1       6.933   2.999  -0.373  0.00  0.00    -0.389 OA
ATOM     29  H   UNL     1       7.706   2.439  -0.571  0.00  0.00    +0.210 HD
ENDBRANCH  27  28
BRANCH  27  30
ATOM     30  C   UNL     1       7.031   2.975  -2.801  0.00  0.00    +0.118 C 
BRANCH  30  32
ATOM     31  C   UNL     1       9.129   2.069  -3.903  0.00  0.00    +0.143 C 
ATOM     32  N   UNL     1       8.124   1.949  -2.786  0.00  0.00    -0.289 NA
ATOM     33  C   UNL     1       7.586   0.568  -2.787  0.00  0.00    +0.089 C 
ATOM     34  C   UNL     1       6.967   0.139  -4.129  0.00  0.00    +0.006 C 
ATOM     35  C   UNL     1       8.079   0.119  -5.186  0.00  0.00    -0.005 C 
ATOM     36  C   UNL     1       7.585  -0.439  -6.530  0.00  0.00    +0.004 C 
ATOM     37  C   UNL     1       6.891  -1.794  -6.358  0.00  0.00    +0.000 C 
ATOM     38  C   UNL     1       5.754  -1.716  -5.345  0.00  0.00    +0.000 C 
ATOM     39  C   UNL     1       6.258  -1.212  -3.997  0.00  0.00    +0.005 C 
ATOM     40  C   UNL     1       8.666   1.540  -5.287  0.00  0.00    +0.032 C 
BRANCH  31  43
ATOM     41  N   UNL     1      10.612   3.802  -2.963  0.00  0.00    -0.309 N 
ATOM     42  H   UNL     1      10.474   3.247  -2.126  0.00  0.00    +0.149 HD
ATOM     43  C   UNL     1       9.751   3.492  -4.006  0.00  0.00    +0.231 C 
ATOM     44  O   UNL     1       9.518   4.251  -4.942  0.00  0.00    -0.274 OA
BRANCH  41  46
ATOM     45  C   UNL     1      10.411   6.233  -2.517  0.00  0.00    +0.031 C 
ATOM     46  C   UNL     1      11.364   5.068  -2.818  0.00  0.00    +0.026 C 
ATOM     47  C   UNL     1      12.342   4.925  -1.635  0.00  0.00    +0.031 C 
ATOM     48  C   UNL     1      12.203   5.391  -4.068  0.00  0.00    +0.031 C 
ENDBRANCH  41  46
ENDBRANCH  31  43
ENDBRANCH  30  32
ENDBRANCH  27  30
ENDBRANCH   1  27
BRANCH   1  49
ATOM     49  C   UNL     1       5.388   5.358  -1.383  0.00  0.00    +0.060 C 
BRANCH  49  50
ATOM     50  C   UNL     1       4.328   6.435  -1.549  0.00  0.00    -0.046 A 
ATOM     51  C   UNL     1       3.233   6.292  -2.413  0.00  0.00    +0.004 A 
ATOM     52  C   UNL     1       2.340   7.347  -2.621  0.00  0.00    +0.000 A 
ATOM     53  C   UNL     1       2.530   8.564  -1.974  0.00  0.00    +0.000 A 
ATOM     54  C   UNL     1       3.606   8.722  -1.105  0.00  0.00    +0.000 A 
ATOM     55  C   UNL     1       4.499   7.667  -0.896  0.00  0.00    +0.004 A 
ENDBRANCH  49  50
ENDBRANCH   1  49
TORSDOF 14
