REMARK  Name = 
REMARK  3 active torsions:
REMARK  status: ('A' for Active; 'I' for Inactive)
REMARK    1  A    between atoms: C_2  and  N_10
REMARK    2  A    between atoms: C_5  and  C_8
REMARK    3  A    between atoms: C_8  and  O_9
REMARK                            x       y       z     vdW  Elec       q    Type
REMARK                         _______ _______ _______ _____ _____    ______ ____
ROOT
ATOM      1  N   UNL     1      -1.309   0.379   1.817  0.00  0.00    -0.272 N 
ATOM      2  C   UNL     1      -1.583   1.628   2.402  0.00  0.00    +0.352 A 
ATOM      3  O   UNL     1      -1.769   2.630   1.716  0.00  0.00    -0.244 OA
ATOM      4  N   UNL     1      -1.614   1.714   3.774  0.00  0.00    -0.178 NA
ATOM      5  C   UNL     1      -1.483   0.648   4.496  0.00  0.00    +0.123 A 
ATOM      6  N   UNL     1      -1.476   0.805   5.852  0.00  0.00    -0.343 N 
ATOM      7  H   UNL     1      -1.787   1.728   6.146  0.00  0.00    +0.144 HD
ATOM      8  H   UNL     1      -1.819   0.049   6.427  0.00  0.00    +0.144 HD
ATOM      9  C   UNL     1      -1.346  -0.700   3.920  0.00  0.00    +0.061 A 
ATOM     10  C   UNL     1      -1.252  -0.760   2.594  0.00  0.00    +0.096 A 
ENDROOT
BRANCH   1  15
ATOM     11  C   UNL     1      -0.916  -0.969  -0.358  0.00  0.00    +0.126 C 
ATOM     12  S   UNL     1       0.835  -1.349  -0.110  0.00  0.00    -0.123 S 
ATOM     13  C   UNL     1       1.238   0.402   0.122  0.00  0.00    +0.203 C 
ATOM     14  O   UNL     1       0.032   1.179   0.037  0.00  0.00    -0.340 OA
ATOM     15  C   UNL     1      -1.118   0.371   0.362  0.00  0.00    +0.235 C 
BRANCH  13  16
ATOM     16  C   UNL     1       1.942   0.690   1.458  0.00  0.00    +0.198 C 
BRANCH  16  17
ATOM     17  O   UNL     1       2.250   2.084   1.567  0.00  0.00    -0.392 OA
ATOM     18  H   UNL     1       1.403   2.561   1.452  0.00  0.00    +0.210 HD
ENDBRANCH  16  17
ENDBRANCH  13  16
ENDBRANCH   1  15
TORSDOF 3
