REMARK  Name = 
REMARK  11 active torsions:
REMARK  status: ('A' for Active; 'I' for Inactive)
REMARK    1  A    between atoms: C_1  and  C_2
REMARK    2  A    between atoms: N_4  and  C_5
REMARK    3  A    between atoms: C_7  and  N_25
REMARK    4  A    between atoms: C_10  and  C_22
REMARK    5  A    between atoms: C_12  and  C_14
REMARK    6  A    between atoms: C_14  and  C_16
REMARK    7  A    between atoms: C_14  and  O_21
REMARK    8  A    between atoms: C_16  and  C_18
REMARK    9  A    between atoms: C_16  and  O_20
REMARK   10  A    between atoms: C_18  and  O_19
REMARK   11  A    between atoms: C_22  and  O_24
REMARK                            x       y       z     vdW  Elec       q    Type
REMARK                         _______ _______ _______ _____ _____    ______ ____
ROOT
ATOM      1  C   UNL     1       4.860  -0.788  -1.200  0.00  0.00    +0.160 C 
ATOM      2  C   UNL     1       5.118  -2.119  -0.441  0.00  0.00    +0.229 C 
ATOM      3  O   UNL     1       6.123  -2.048   0.580  0.00  0.00    -0.477 OA
ATOM      4  C   UNL     1       6.192  -0.881   1.312  0.00  0.00    +0.204 C 
ATOM      5  C   UNL     1       5.594   0.269   0.977  0.00  0.00    +0.071 C 
ATOM      6  C   UNL     1       4.825   0.460  -0.283  0.00  0.00    +0.238 C 
ENDROOT
BRANCH   6   7
ATOM      7  N   UNL     1       3.437   0.790   0.054  0.00  0.00    -0.104 NA
ATOM      8  C   UNL     1       3.097   1.996   0.299  0.00  0.00    +0.377 C 
ATOM      9  N   UNL     1       1.836   2.276   0.698  0.00  0.00    -0.289 N 
ATOM     10  H   UNL     1       1.821   2.965   1.441  0.00  0.00    +0.255 HD
ATOM     11  H   UNL     1       1.381   1.422   1.007  0.00  0.00    +0.255 HD
ATOM     12  N   UNL     1       3.818   3.139   0.275  0.00  0.00    -0.289 N 
ATOM     13  H   UNL     1       3.294   3.927  -0.086  0.00  0.00    +0.255 HD
ATOM     14  H   UNL     1       4.733   3.081  -0.148  0.00  0.00    +0.255 HD
ENDBRANCH   6   7
BRANCH   1  17
ATOM     15  C   UNL     1       7.856  -0.322  -3.570  0.00  0.00    +0.109 C 
ATOM     16  C   UNL     1       7.159  -0.501  -2.248  0.00  0.00    +0.210 C 
ATOM     17  N   UNL     1       5.789  -0.614  -2.352  0.00  0.00    -0.305 N 
ATOM     18  H   UNL     1       5.366  -0.417  -3.246  0.00  0.00    +0.149 HD
ATOM     19  O   UNL     1       7.786  -0.580  -1.201  0.00  0.00    -0.276 OA
ENDBRANCH   1  17
BRANCH   4  20
ATOM     20  C   UNL     1       7.091  -0.873   2.505  0.00  0.00    +0.372 C 
ATOM     21  O   UNL     1       7.084  -0.043   3.399  0.00  0.00    -0.242 OA
BRANCH  20  22
ATOM     22  O   UNL     1       7.954  -1.914   2.453  0.00  0.00    -0.475 OA
ATOM     23  H   UNL     1       7.841  -2.384   1.599  0.00  0.00    +0.296 HD
ENDBRANCH  20  22
ENDBRANCH   4  20
BRANCH   2  24
ATOM     24  C   UNL     1       3.812  -2.784   0.077  0.00  0.00    +0.187 C 
BRANCH  24  25
ATOM     25  O   UNL     1       3.191  -2.032   1.119  0.00  0.00    -0.385 OA
ATOM     26  H   UNL     1       2.497  -2.599   1.508  0.00  0.00    +0.210 HD
ENDBRANCH  24  25
BRANCH  24  27
ATOM     27  C   UNL     1       3.970  -4.244   0.552  0.00  0.00    +0.172 C 
BRANCH  27  28
ATOM     28  O   UNL     1       2.641  -4.763   0.817  0.00  0.00    -0.387 OA
ATOM     29  H   UNL     1       2.149  -4.755  -0.024  0.00  0.00    +0.210 HD
ENDBRANCH  27  28
BRANCH  27  30
ATOM     30  C   UNL     1       4.761  -4.427   1.852  0.00  0.00    +0.189 C 
BRANCH  30  31
ATOM     31  O   UNL     1       4.781  -5.817   2.191  0.00  0.00    -0.392 OA
ATOM     32  H   UNL     1       3.842  -6.086   2.212  0.00  0.00    +0.210 HD
ENDBRANCH  30  31
ENDBRANCH  27  30
ENDBRANCH  24  27
ENDBRANCH   2  24
TORSDOF 10
