REMARK  Name = 
REMARK  22 active torsions:
REMARK  status: ('A' for Active; 'I' for Inactive)
REMARK    1  A    between atoms: C_1  and  C_2
REMARK    2  A    between atoms: C_2  and  C_3
REMARK    3  A    between atoms: C_2  and  C_4
REMARK    4  A    between atoms: C_2  and  C_5
REMARK    5  A    between atoms: C_5  and  O_7
REMARK    6  A    between atoms: O_7  and  C_8
REMARK    7  A    between atoms: C_8  and  O_9
REMARK    8  A    between atoms: O_9  and  P_10
REMARK    9  A    between atoms: P_10  and  C_12
REMARK   10  A    between atoms: P_10  and  O_26
REMARK   11  A    between atoms: C_12  and  O_13
REMARK   12  A    between atoms: O_13  and  C_14
REMARK   13  A    between atoms: C_14  and  C_15
REMARK   14  A    between atoms: C_15  and  N_16
REMARK   15  A    between atoms: C_20  and  N_25
REMARK   16  A    between atoms: O_26  and  C_27
REMARK   17  A    between atoms: C_27  and  O_28
REMARK   18  A    between atoms: O_28  and  C_29
REMARK   19  A    between atoms: C_29  and  C_31
REMARK   20  A    between atoms: C_31  and  C_32
REMARK   21  A    between atoms: C_31  and  C_33
REMARK   22  A    between atoms: C_31  and  C_34
REMARK                            x       y       z     vdW  Elec       q    Type
REMARK                         _______ _______ _______ _____ _____    ______ ____
ROOT
ATOM      1  P   UNL     1       6.836   4.560   0.552  0.00  0.00    +0.363 P 
ATOM      2  O   UNL     1       8.108   4.206  -0.236  0.00  0.00    -0.256 OA
ENDROOT
BRANCH   1   3
ATOM      3  O   UNL     1       6.260   2.939   0.372  0.00  0.00    -0.268 OA
BRANCH   3   4
ATOM      4  C   UNL     1       7.088   1.932   0.924  0.00  0.00    +0.407 C 
BRANCH   4   5
ATOM      5  O   UNL     1       6.502   0.632   0.755  0.00  0.00    -0.437 OA
BRANCH   5   6
ATOM      6  C   UNL     1       5.548   0.312   1.665  0.00  0.00    +0.314 C 
ATOM      7  O   UNL     1       5.207   1.046   2.588  0.00  0.00    -0.250 OA
BRANCH   6   9
ATOM      8  C   UNL     1       3.578  -1.184   1.985  0.00  0.00    +0.022 C 
ATOM      9  C   UNL     1       5.026  -1.118   1.473  0.00  0.00    +0.059 C 
ATOM     10  C   UNL     1       5.041  -1.565   0.004  0.00  0.00    +0.022 C 
ATOM     11  C   UNL     1       5.910  -2.055   2.307  0.00  0.00    +0.022 C 
ENDBRANCH   6   9
ENDBRANCH   5   6
ENDBRANCH   4   5
ENDBRANCH   3   4
ENDBRANCH   1   3
BRANCH   1  12
ATOM     12  O   UNL     1       7.413   6.181   0.732  0.00  0.00    -0.268 OA
BRANCH  12  13
ATOM     13  C   UNL     1       8.243   6.335   1.865  0.00  0.00    +0.407 C 
BRANCH  13  14
ATOM     14  O   UNL     1       8.712   7.678   1.973  0.00  0.00    -0.437 OA
BRANCH  14  15
ATOM     15  C   UNL     1       9.818   7.944   1.226  0.00  0.00    +0.314 C 
ATOM     16  O   UNL     1      10.414   7.118   0.547  0.00  0.00    -0.250 OA
BRANCH  15  17
ATOM     17  C   UNL     1      10.261   9.400   1.389  0.00  0.00    +0.059 C 
ATOM     18  C   UNL     1       9.117  10.352   1.018  0.00  0.00    +0.022 C 
ATOM     19  C   UNL     1      11.455   9.666   0.456  0.00  0.00    +0.022 C 
ATOM     20  C   UNL     1      10.696   9.631   2.842  0.00  0.00    +0.022 C 
ENDBRANCH  15  17
ENDBRANCH  14  15
ENDBRANCH  13  14
ENDBRANCH  12  13
ENDBRANCH   1  12
BRANCH   1  21
ATOM     21  C   UNL     1       5.567   5.181  -0.738  0.00  0.00    +0.286 C 
BRANCH  21  22
ATOM     22  O   UNL     1       4.370   5.583  -0.043  0.00  0.00    -0.366 OA
BRANCH  22  23
ATOM     23  C   UNL     1       3.481   6.253  -0.953  0.00  0.00    +0.182 C 
BRANCH  23  24
ATOM     24  C   UNL     1       2.175   6.642  -0.266  0.00  0.00    +0.153 C 
BRANCH  24  25
ATOM     25  N   UNL     1       2.344   7.678   0.731  0.00  0.00    -0.313 N 
ATOM     26  C   UNL     1       2.282   9.028   0.524  0.00  0.00    +0.165 A 
ATOM     27  C   UNL     1       2.428   9.585   1.786  0.00  0.00    +0.147 A 
ATOM     28  C   UNL     1       2.390  10.987   1.867  0.00  0.00    +0.147 A 
ATOM     29  N   UNL     1       2.201  11.695   0.731  0.00  0.00    -0.219 NA
ATOM     30  C   UNL     1       2.082  11.017  -0.433  0.00  0.00    +0.225 A 
ATOM     31  N   UNL     1       2.566   8.600   2.745  0.00  0.00    -0.231 NA
ATOM     32  N   UNL     1       2.108   9.682  -0.637  0.00  0.00    -0.216 NA
ATOM     33  C   UNL     1       2.517   7.470   2.074  0.00  0.00    +0.201 A 
BRANCH  28  34
ATOM     34  N   UNL     1       2.507  11.684   3.064  0.00  0.00    -0.341 N 
ATOM     35  H   UNL     1       2.088  12.603   3.008  0.00  0.00    +0.144 HD
ATOM     36  H   UNL     1       2.288  11.116   3.876  0.00  0.00    +0.144 HD
ENDBRANCH  28  34
ENDBRANCH  24  25
ENDBRANCH  23  24
ENDBRANCH  22  23
ENDBRANCH  21  22
ENDBRANCH   1  21
TORSDOF 16
