REMARK  Name = 
REMARK  22 active torsions:
REMARK  status: ('A' for Active; 'I' for Inactive)
REMARK    1  A    between atoms: C_1  and  C_2
REMARK    2  A    between atoms: C_2  and  C_3
REMARK    3  A    between atoms: C_2  and  C_4
REMARK    4  A    between atoms: C_2  and  C_5
REMARK    5  A    between atoms: C_5  and  O_7
REMARK    6  A    between atoms: O_7  and  C_8
REMARK    7  A    between atoms: C_8  and  O_9
REMARK    8  A    between atoms: O_9  and  P_10
REMARK    9  A    between atoms: P_10  and  C_12
REMARK   10  A    between atoms: P_10  and  O_26
REMARK   11  A    between atoms: C_12  and  O_13
REMARK   12  A    between atoms: O_13  and  C_14
REMARK   13  A    between atoms: C_14  and  C_15
REMARK   14  A    between atoms: C_15  and  N_16
REMARK   15  A    between atoms: C_20  and  N_25
REMARK   16  A    between atoms: O_26  and  C_27
REMARK   17  A    between atoms: C_27  and  O_28
REMARK   18  A    between atoms: O_28  and  C_29
REMARK   19  A    between atoms: C_29  and  C_31
REMARK   20  A    between atoms: C_31  and  C_32
REMARK   21  A    between atoms: C_31  and  C_33
REMARK   22  A    between atoms: C_31  and  C_34
REMARK                            x       y       z     vdW  Elec       q    Type
REMARK                         _______ _______ _______ _____ _____    ______ ____
ROOT
ATOM      1  P   UNL     1       6.973  -1.341   4.493  0.00  0.00    +0.363 P 
ATOM      2  O   UNL     1       6.655  -2.813   4.178  0.00  0.00    -0.256 OA
ENDROOT
BRANCH   1   3
ATOM      3  O   UNL     1       7.550  -1.789   6.061  0.00  0.00    -0.268 OA
BRANCH   3   4
ATOM      4  C   UNL     1       6.570  -2.417   6.870  0.00  0.00    +0.407 C 
BRANCH   4   5
ATOM      5  O   UNL     1       7.116  -2.785   8.137  0.00  0.00    -0.437 OA
BRANCH   5   6
ATOM      6  C   UNL     1       7.800  -3.965   8.125  0.00  0.00    +0.314 C 
ATOM      7  O   UNL     1       7.964  -4.673   7.139  0.00  0.00    -0.250 OA
BRANCH   6   8
ATOM      8  C   UNL     1       8.299  -4.318   9.527  0.00  0.00    +0.059 C 
ATOM      9  C   UNL     1       9.176  -3.182  10.072  0.00  0.00    +0.022 C 
ATOM     10  C   UNL     1       9.136  -5.605   9.457  0.00  0.00    +0.022 C 
ATOM     11  C   UNL     1       7.094  -4.551  10.447  0.00  0.00    +0.022 C 
ENDBRANCH   6   8
ENDBRANCH   5   6
ENDBRANCH   4   5
ENDBRANCH   3   4
ENDBRANCH   1   3
BRANCH   1  12
ATOM     12  O   UNL     1       6.396  -0.892   2.924  0.00  0.00    -0.268 OA
BRANCH  12  13
ATOM     13  C   UNL     1       6.876  -1.570   1.780  0.00  0.00    +0.407 C 
BRANCH  13  14
ATOM     14  O   UNL     1       6.350  -0.987   0.584  0.00  0.00    -0.437 OA
BRANCH  14  15
ATOM     15  C   UNL     1       7.050   0.089   0.133  0.00  0.00    +0.314 C 
ATOM     16  O   UNL     1       8.006   0.600   0.706  0.00  0.00    -0.250 OA
BRANCH  15  18
ATOM     17  C   UNL     1       7.165   1.850  -1.642  0.00  0.00    +0.022 C 
ATOM     18  C   UNL     1       6.551   0.498  -1.252  0.00  0.00    +0.059 C 
ATOM     19  C   UNL     1       7.005  -0.574  -2.254  0.00  0.00    +0.022 C 
ATOM     20  C   UNL     1       5.022   0.620  -1.247  0.00  0.00    +0.022 C 
ENDBRANCH  15  18
ENDBRANCH  14  15
ENDBRANCH  13  14
ENDBRANCH  12  13
ENDBRANCH   1  12
BRANCH   1  21
ATOM     21  C   UNL     1       8.847  -1.089   4.067  0.00  0.00    +0.286 C 
BRANCH  21  22
ATOM     22  O   UNL     1       9.109   0.310   4.139  0.00  0.00    -0.366 OA
BRANCH  22  23
ATOM     23  C   UNL     1      10.486   0.580   3.871  0.00  0.00    +0.182 C 
BRANCH  23  24
ATOM     24  C   UNL     1      10.802   2.037   4.156  0.00  0.00    +0.153 C 
BRANCH  24  25
ATOM     25  N   UNL     1      10.669   2.368   5.563  0.00  0.00    -0.313 N 
ATOM     26  C   UNL     1       9.559   2.897   6.161  0.00  0.00    +0.165 A 
ATOM     27  C   UNL     1       9.928   3.092   7.481  0.00  0.00    +0.147 A 
ATOM     28  C   UNL     1       8.957   3.660   8.324  0.00  0.00    +0.147 A 
ATOM     29  N   UNL     1       7.734   3.932   7.814  0.00  0.00    -0.219 NA
ATOM     30  C   UNL     1       7.518   3.684   6.503  0.00  0.00    +0.225 A 
ATOM     31  N   UNL     1      11.225   2.666   7.698  0.00  0.00    -0.231 NA
ATOM     32  N   UNL     1       8.373   3.176   5.597  0.00  0.00    -0.216 NA
ATOM     33  C   UNL     1      11.637   2.238   6.522  0.00  0.00    +0.201 A 
BRANCH  28  34
ATOM     34  N   UNL     1       9.185   3.946   9.664  0.00  0.00    -0.341 N 
ATOM     35  H   UNL     1       8.325   3.999  10.193  0.00  0.00    +0.144 HD
ATOM     36  H   UNL     1       9.960   3.427  10.060  0.00  0.00    +0.144 HD
ENDBRANCH  28  34
ENDBRANCH  24  25
ENDBRANCH  23  24
ENDBRANCH  22  23
ENDBRANCH  21  22
ENDBRANCH   1  21
TORSDOF 16
