REMARK  Name = 
REMARK  3 active torsions:
REMARK  status: ('A' for Active; 'I' for Inactive)
REMARK    1  A    between atoms: C_2  and  N_10
REMARK    2  A    between atoms: C_5  and  C_8
REMARK    3  A    between atoms: C_8  and  O_9
REMARK                            x       y       z     vdW  Elec       q    Type
REMARK                         _______ _______ _______ _____ _____    ______ ____
ROOT
ATOM      1  N   UNL     1      -1.348   0.343   1.781  0.00  0.00    -0.269 N 
ATOM      2  C   UNL     1      -1.707   1.576   2.367  0.00  0.00    +0.352 A 
ATOM      3  O   UNL     1      -1.832   2.591   1.687  0.00  0.00    -0.244 OA
ATOM      4  N   UNL     1      -1.914   1.629   3.729  0.00  0.00    -0.175 NA
ATOM      5  C   UNL     1      -1.852   0.547   4.445  0.00  0.00    +0.159 A 
ATOM      6  N   UNL     1      -2.075   0.667   5.791  0.00  0.00    -0.341 N 
ATOM      7  H   UNL     1      -1.981   1.617   6.135  0.00  0.00    +0.144 HD
ATOM      8  H   UNL     1      -1.672  -0.041   6.394  0.00  0.00    +0.144 HD
ATOM      9  C   UNL     1      -1.542  -0.767   3.850  0.00  0.00    +0.179 A 
ATOM     10  F   UNL     1      -1.499  -1.841   4.656  0.00  0.00    -0.200 F 
ATOM     11  C   UNL     1      -1.298  -0.808   2.545  0.00  0.00    +0.135 A 
ENDROOT
BRANCH   1  16
ATOM     12  C   UNL     1      -0.887  -0.975  -0.398  0.00  0.00    +0.126 C 
ATOM     13  S   UNL     1       0.864  -1.336  -0.143  0.00  0.00    -0.123 S 
ATOM     14  C   UNL     1       1.247   0.415   0.092  0.00  0.00    +0.203 C 
ATOM     15  O   UNL     1       0.034   1.183   0.044  0.00  0.00    -0.340 OA
ATOM     16  C   UNL     1      -1.110   0.355   0.331  0.00  0.00    +0.235 C 
BRANCH  14  17
ATOM     17  C   UNL     1       1.963   0.704   1.420  0.00  0.00    +0.198 C 
BRANCH  17  18
ATOM     18  O   UNL     1       2.272   2.098   1.520  0.00  0.00    -0.392 OA
ATOM     19  H   UNL     1       1.443   2.578   1.316  0.00  0.00    +0.210 HD
ENDBRANCH  17  18
ENDBRANCH  14  17
ENDBRANCH   1  16
TORSDOF 3
