REMARK  Name = 
REMARK  4 active torsions:
REMARK  status: ('A' for Active; 'I' for Inactive)
REMARK    1  A    between atoms: C3*_2  and  O3*_20
REMARK    2  A    between atoms: C4*_4  and  C5*_18
REMARK    3  A    between atoms: C1*_7  and  N_9
REMARK    4  A    between atoms: C5*_18  and  O5*_19
REMARK                            x       y       z     vdW  Elec       q    Type
REMARK                         _______ _______ _______ _____ _____    ______ ____
ROOT
ATOM      1  C2* UNL     1      -0.856  -1.075  -0.065  0.00  0.00    +0.088 C 
ATOM      2  C1* UNL     1       0.657  -1.037   0.131  0.00  0.00    +0.226 C 
ATOM      3  O4* UNL     1       1.099   0.329   0.041  0.00  0.00    -0.348 OA
ATOM      4  C4* UNL     1      -0.051   1.173  -0.191  0.00  0.00    +0.175 C 
ATOM      5  C3* UNL     1      -1.278   0.350   0.198  0.00  0.00    +0.150 C 
ENDROOT
BRANCH   2   6
ATOM      6  N   UNL     1       1.087  -1.639   1.392  0.00  0.00    -0.273 N 
ATOM      7  C   UNL     1       1.261  -3.015   1.402  0.00  0.00    +0.331 A 
ATOM      8  O   UNL     1       1.083  -3.738   0.426  0.00  0.00    -0.246 OA
ATOM      9  N   UNL     1       1.639  -3.555   2.600  0.00  0.00    -0.274 N 
ATOM     10  H   UNL     1       1.774  -4.554   2.624  0.00  0.00    +0.173 HD
ATOM     11  C   UNL     1       1.783  -2.889   3.786  0.00  0.00    +0.267 A 
ATOM     12  O   UNL     1       2.084  -3.490   4.812  0.00  0.00    -0.267 OA
ATOM     13  C   UNL     1       1.537  -1.421   3.733  0.00  0.00    +0.094 A 
ATOM     14  I   UNL     1       1.683  -0.301   5.436  0.00  0.00    -0.037 I 
ATOM     15  C   UNL     1       1.208  -0.887   2.549  0.00  0.00    +0.113 A 
ENDBRANCH   2   6
BRANCH   5  16
ATOM     16  O3* UNL     1      -1.539   0.510   1.596  0.00  0.00    -0.389 OA
ATOM     17  H3* UNL     1      -2.308  -0.045   1.818  0.00  0.00    +0.210 HD
ENDBRANCH   5  16
BRANCH   4  18
ATOM     18  C5* UNL     1      -0.047   1.612  -1.660  0.00  0.00    +0.190 C 
BRANCH  18  19
ATOM     19  O5* UNL     1      -0.078   0.497  -2.548  0.00  0.00    -0.392 OA
ATOM     20  H5* UNL     1       0.800   0.077  -2.487  0.00  0.00    +0.210 HD
ENDBRANCH  18  19
ENDBRANCH   4  18
TORSDOF 4
