REMARK  Name = 
REMARK  9 active torsions:
REMARK  status: ('A' for Active; 'I' for Inactive)
REMARK    1  A    between atoms: N_3  and  C_9
REMARK    2  A    between atoms: C_9  and  C_10
REMARK    3  A    between atoms: C_10  and  C_12
REMARK    4  A    between atoms: C_10  and  O_14
REMARK    5  A    between atoms: C_12  and  O_13
REMARK    6  A    between atoms: O_14  and  C_15
REMARK    7  A    between atoms: C_15  and  P_16
REMARK    8  A    between atoms: P_16  and  O_18
REMARK    9  A    between atoms: P_16  and  O_19
REMARK                            x       y       z     vdW  Elec       q    Type
REMARK                         _______ _______ _______ _____ _____    ______ ____
ROOT
ATOM      1  C   UNL     1       1.359  -3.242   0.441  0.00  0.00    +0.164 C 
ENDROOT
BRANCH   1   2
ATOM      2  C   UNL     1      -0.009  -2.747  -0.104  0.00  0.00    +0.160 C 
BRANCH   2  11
ATOM      3  C   UNL     1      -1.588   0.521  -0.581  0.00  0.00    +0.061 A 
ATOM      4  C   UNL     1      -0.378   1.262  -0.992  0.00  0.00    +0.123 A 
ATOM      5  N   UNL     1      -0.413   2.629  -1.029  0.00  0.00    -0.343 N 
ATOM      6  H   UNL     1      -0.982   3.049  -0.300  0.00  0.00    +0.144 HD
ATOM      7  H   UNL     1       0.520   3.028  -1.039  0.00  0.00    +0.144 HD
ATOM      8  N   UNL     1       0.746   0.686  -1.291  0.00  0.00    -0.178 NA
ATOM      9  C   UNL     1       0.837  -0.684  -1.181  0.00  0.00    +0.350 A 
ATOM     10  O   UNL     1       1.826  -1.272  -1.623  0.00  0.00    -0.244 OA
ATOM     11  N   UNL     1      -0.163  -1.348  -0.469  0.00  0.00    -0.296 N 
ATOM     12  C   UNL     1      -1.395  -0.760  -0.288  0.00  0.00    +0.094 A 
ENDBRANCH   2  11
ENDBRANCH   1   2
BRANCH   1  13
ATOM     13  O   UNL     1       1.261  -4.639   0.808  0.00  0.00    -0.360 OA
BRANCH  13  14
ATOM     14  C   UNL     1       0.992  -5.474  -0.324  0.00  0.00    +0.286 C 
BRANCH  14  15
ATOM     15  P   UNL     1       0.929  -7.241   0.145  0.00  0.00    +0.353 P 
ATOM     16  O   UNL     1       2.411  -7.246   0.529  0.00  0.00    -0.256 OA
BRANCH  15  17
ATOM     17  O   UNL     1       0.869  -8.913   0.588  0.00  0.00    -0.323 OA
ATOM     18  H   UNL     1       1.667  -9.042   1.139  0.00  0.00    +0.220 HD
ENDBRANCH  15  17
BRANCH  15  19
ATOM     19  O   UNL     1       0.126  -6.885   1.529  0.00  0.00    -0.323 OA
ATOM     20  H   UNL     1       0.755  -6.480   2.161  0.00  0.00    +0.220 HD
ENDBRANCH  15  19
ENDBRANCH  14  15
ENDBRANCH  13  14
ENDBRANCH   1  13
BRANCH   1  21
ATOM     21  C   UNL     1       1.836  -2.516   1.710  0.00  0.00    +0.189 C 
BRANCH  21  22
ATOM     22  O   UNL     1       1.856  -1.100   1.610  0.00  0.00    -0.392 OA
ATOM     23  H   UNL     1       2.667  -0.833   1.120  0.00  0.00    +0.210 HD
ENDBRANCH  21  22
ENDBRANCH   1  21
TORSDOF 9
REMARK  Name = 
REMARK  9 active torsions:
REMARK  status: ('A' for Active; 'I' for Inactive)
REMARK    1  A    between atoms: N_3  and  C_9
REMARK    2  A    between atoms: C_9  and  C_10
REMARK    3  A    between atoms: C_10  and  C_12
REMARK    4  A    between atoms: C_10  and  O_14
REMARK    5  A    between atoms: C_12  and  O_13
REMARK    6  A    between atoms: O_14  and  C_15
REMARK    7  A    between atoms: C_15  and  P_16
REMARK    8  A    between atoms: P_16  and  O_18
REMARK    9  A    between atoms: P_16  and  O_19
REMARK                            x       y       z     vdW  Elec       q    Type
REMARK                         _______ _______ _______ _____ _____    ______ ____
ROOT
ATOM      1  O   HOH     1       3.261   0.790   0.194  0.00  0.00    -0.410 OA
ATOM      2  H   HOH     0       2.374   1.055  -0.127  0.00  0.00    +0.205 HD
ATOM      3  H   HOH     0       3.661   0.495  -0.644  0.00  0.00    +0.205 HD
ENDROOT
TORSDOF 0
REMARK  Name = 
REMARK  9 active torsions:
REMARK  status: ('A' for Active; 'I' for Inactive)
REMARK    1  A    between atoms: N_3  and  C_9
REMARK    2  A    between atoms: C_9  and  C_10
REMARK    3  A    between atoms: C_10  and  C_12
REMARK    4  A    between atoms: C_10  and  O_14
REMARK    5  A    between atoms: C_12  and  O_13
REMARK    6  A    between atoms: O_14  and  C_15
REMARK    7  A    between atoms: C_15  and  P_16
REMARK    8  A    between atoms: P_16  and  O_18
REMARK    9  A    between atoms: P_16  and  O_19
REMARK                            x       y       z     vdW  Elec       q    Type
REMARK                         _______ _______ _______ _____ _____    ______ ____
ROOT
ATOM      1  O   HOH     1       0.203   0.899   2.132  0.00  0.00    -0.410 OA
ATOM      2  H   HOH     0       0.451  -0.028   1.920  0.00  0.00    +0.205 HD
ATOM      3  H   HOH     0       1.098   1.270   2.211  0.00  0.00    +0.205 HD
ENDROOT
TORSDOF 0
