REMARK  Name = 
REMARK  9 active torsions:
REMARK  status: ('A' for Active; 'I' for Inactive)
REMARK    1  A    between atoms: N_3  and  C_9
REMARK    2  A    between atoms: C_9  and  C_10
REMARK    3  A    between atoms: C_10  and  C_12
REMARK    4  A    between atoms: C_10  and  O_14
REMARK    5  A    between atoms: C_12  and  O_13
REMARK    6  A    between atoms: O_14  and  C_15
REMARK    7  A    between atoms: C_15  and  P_16
REMARK    8  A    between atoms: P_16  and  O_18
REMARK    9  A    between atoms: P_16  and  O_19
REMARK                            x       y       z     vdW  Elec       q    Type
REMARK                         _______ _______ _______ _____ _____    ______ ____
ROOT
ATOM      1  C   UNL     1       1.496  -3.207   0.691  0.00  0.00    +0.164 C 
ENDROOT
BRANCH   1   2
ATOM      2  C   UNL     1       0.168  -2.528   0.261  0.00  0.00    +0.160 C 
BRANCH   2  11
ATOM      3  C   UNL     1      -1.269   0.839   0.318  0.00  0.00    +0.061 A 
ATOM      4  C   UNL     1      -0.040   1.595  -0.004  0.00  0.00    +0.123 A 
ATOM      5  N   UNL     1      -0.049   2.952   0.015  0.00  0.00    -0.343 N 
ATOM      6  H   UNL     1      -0.917   3.458  -0.086  0.00  0.00    +0.144 HD
ATOM      7  H   UNL     1       0.769   3.397  -0.382  0.00  0.00    +0.144 HD
ATOM      8  N   UNL     1       1.076   1.027  -0.336  0.00  0.00    -0.178 NA
ATOM      9  C   UNL     1       1.176  -0.342  -0.318  0.00  0.00    +0.350 A 
ATOM     10  O   UNL     1       2.198  -0.880  -0.720  0.00  0.00    -0.244 OA
ATOM     11  N   UNL     1       0.095  -1.080   0.179  0.00  0.00    -0.296 N 
ATOM     12  C   UNL     1      -1.124  -0.480   0.408  0.00  0.00    +0.094 A 
ENDBRANCH   2  11
ENDBRANCH   1   2
BRANCH   1  13
ATOM     13  O   UNL     1       1.307  -4.637   0.744  0.00  0.00    -0.360 OA
BRANCH  13  14
ATOM     14  C   UNL     1       1.090  -5.153  -0.574  0.00  0.00    +0.286 C 
BRANCH  14  15
ATOM     15  P   UNL     1       0.948  -6.977  -0.595  0.00  0.00    +0.353 P 
ATOM     16  O   UNL     1       2.410  -7.146  -0.170  0.00  0.00    -0.256 OA
BRANCH  15  17
ATOM     17  O   UNL     1       0.815  -8.702  -0.616  0.00  0.00    -0.323 OA
ATOM     18  H   UNL     1       1.609  -9.008  -0.132  0.00  0.00    +0.220 HD
ENDBRANCH  15  17
BRANCH  15  19
ATOM     19  O   UNL     1       0.094  -6.964   0.803  0.00  0.00    -0.323 OA
ATOM     20  H   UNL     1       0.707  -6.787   1.546  0.00  0.00    +0.220 HD
ENDBRANCH  15  19
ENDBRANCH  14  15
ENDBRANCH  13  14
ENDBRANCH   1  13
BRANCH   1  21
ATOM     21  C   UNL     1       2.004  -2.756   2.068  0.00  0.00    +0.189 C 
BRANCH  21  22
ATOM     22  O   UNL     1       2.302  -1.367   2.127  0.00  0.00    -0.392 OA
ATOM     23  H   UNL     1       2.943  -1.189   1.409  0.00  0.00    +0.210 HD
ENDBRANCH  21  22
ENDBRANCH   1  21
TORSDOF 9
REMARK  Name = 
REMARK  9 active torsions:
REMARK  status: ('A' for Active; 'I' for Inactive)
REMARK    1  A    between atoms: N_3  and  C_9
REMARK    2  A    between atoms: C_9  and  C_10
REMARK    3  A    between atoms: C_10  and  C_12
REMARK    4  A    between atoms: C_10  and  O_14
REMARK    5  A    between atoms: C_12  and  O_13
REMARK    6  A    between atoms: O_14  and  C_15
REMARK    7  A    between atoms: C_15  and  P_16
REMARK    8  A    between atoms: P_16  and  O_18
REMARK    9  A    between atoms: P_16  and  O_19
REMARK                            x       y       z     vdW  Elec       q    Type
REMARK                         _______ _______ _______ _____ _____    ______ ____
ROOT
ATOM      1  O   HOH     1       0.762   0.988  -3.239  0.00  0.00    -0.410 OA
ATOM      2  H   HOH     0       0.033   0.646  -2.697  0.00  0.00    +0.205 HD
ATOM      3  H   HOH     0       1.471   1.094  -2.581  0.00  0.00    +0.205 HD
ENDROOT
TORSDOF 0
REMARK  Name = 
REMARK  9 active torsions:
REMARK  status: ('A' for Active; 'I' for Inactive)
REMARK    1  A    between atoms: N_3  and  C_9
REMARK    2  A    between atoms: C_9  and  C_10
REMARK    3  A    between atoms: C_10  and  C_12
REMARK    4  A    between atoms: C_10  and  O_14
REMARK    5  A    between atoms: C_12  and  O_13
REMARK    6  A    between atoms: O_14  and  C_15
REMARK    7  A    between atoms: C_15  and  P_16
REMARK    8  A    between atoms: P_16  and  O_18
REMARK    9  A    between atoms: P_16  and  O_19
REMARK                            x       y       z     vdW  Elec       q    Type
REMARK                         _______ _______ _______ _____ _____    ______ ____
ROOT
ATOM      1  O   HOH     1       1.026   0.883   2.953  0.00  0.00    -0.410 OA
ATOM      2  H   HOH     0       1.198  -0.075   2.852  0.00  0.00    +0.205 HD
ATOM      3  H   HOH     0       1.683   1.240   2.332  0.00  0.00    +0.205 HD
ENDROOT
TORSDOF 0
