REMARK  Name = 
REMARK  4 active torsions:
REMARK  status: ('A' for Active; 'I' for Inactive)
REMARK    1  A    between atoms: C3*_2  and  O3*_20
REMARK    2  A    between atoms: C4*_4  and  C5*_18
REMARK    3  A    between atoms: C1*_7  and  N_9
REMARK    4  A    between atoms: C5*_18  and  O5*_19
REMARK                            x       y       z     vdW  Elec       q    Type
REMARK                         _______ _______ _______ _____ _____    ______ ____
ROOT
ATOM      1  C2* UNL     1      -0.854  -1.073  -0.064  0.00  0.00    +0.088 C 
ATOM      2  C1* UNL     1       0.659  -1.037   0.132  0.00  0.00    +0.226 C 
ATOM      3  O4* UNL     1       1.102   0.330   0.039  0.00  0.00    -0.348 OA
ATOM      4  C4* UNL     1      -0.050   1.173  -0.191  0.00  0.00    +0.175 C 
ATOM      5  C3* UNL     1      -1.276   0.350   0.200  0.00  0.00    +0.150 C 
ENDROOT
BRANCH   2   6
ATOM      6  N   UNL     1       1.090  -1.638   1.393  0.00  0.00    -0.273 N 
ATOM      7  C   UNL     1       1.262  -3.015   1.403  0.00  0.00    +0.331 A 
ATOM      8  O   UNL     1       1.082  -3.740   0.428  0.00  0.00    -0.246 OA
ATOM      9  N   UNL     1       1.639  -3.555   2.603  0.00  0.00    -0.274 N 
ATOM     10  H   UNL     1       1.776  -4.553   2.625  0.00  0.00    +0.173 HD
ATOM     11  C   UNL     1       1.791  -2.884   3.786  0.00  0.00    +0.267 A 
ATOM     12  O   UNL     1       2.102  -3.482   4.811  0.00  0.00    -0.267 OA
ATOM     13  C   UNL     1       1.542  -1.417   3.733  0.00  0.00    +0.094 A 
ATOM     14  I   UNL     1       1.689  -0.296   5.435  0.00  0.00    -0.037 I 
ATOM     15  C   UNL     1       1.211  -0.885   2.549  0.00  0.00    +0.113 A 
ENDBRANCH   2   6
BRANCH   5  16
ATOM     16  O3* UNL     1      -1.534   0.510   1.599  0.00  0.00    -0.389 OA
ATOM     17  H3* UNL     1      -2.302  -0.046   1.822  0.00  0.00    +0.210 HD
ENDBRANCH   5  16
BRANCH   4  18
ATOM     18  C5* UNL     1      -0.048   1.611  -1.662  0.00  0.00    +0.190 C 
BRANCH  18  19
ATOM     19  O5* UNL     1      -0.082   0.494  -2.547  0.00  0.00    -0.392 OA
ATOM     20  H5* UNL     1       0.793   0.068  -2.481  0.00  0.00    +0.210 HD
ENDBRANCH  18  19
ENDBRANCH   4  18
TORSDOF 4
