REMARK  Name = 
REMARK  17 active torsions:
REMARK  status: ('A' for Active; 'I' for Inactive)
REMARK    1  A    between atoms: C_1  and  C_2
REMARK    2  A    between atoms: C_2  and  C_3
REMARK    3  A    between atoms: C_2  and  C_4
REMARK    4  A    between atoms: C_2  and  N_5
REMARK    5  A    between atoms: C_6  and  C_8
REMARK    6  A    between atoms: N_20  and  C_21
REMARK    7  A    between atoms: C_21  and  C_22
REMARK    8  A    between atoms: C_22  and  C_24
REMARK    9  A    between atoms: C_22  and  O_54
REMARK   10  A    between atoms: C_24  and  C_26
REMARK   11  A    between atoms: C_24  and  N_33
REMARK   12  A    between atoms: C_26  and  C_27
REMARK   13  A    between atoms: C_34  and  C_36
REMARK   14  A    between atoms: C_36  and  C_37
REMARK   15  A    between atoms: C_36  and  N_41
REMARK   16  A    between atoms: C_37  and  C_38
REMARK   17  A    between atoms: C_42  and  C_44
REMARK                            x       y       z     vdW  Elec       q    Type
REMARK                         _______ _______ _______ _____ _____    ______ ____
ROOT
ATOM      1  C   UNL     1       5.128   2.278   4.642  0.00  0.00    +0.107 C 
ENDROOT
BRANCH   1   2
ATOM      2  N   UNL     1       5.123   3.736   4.457  0.00  0.00    -0.308 N 
ATOM      3  H   UNL     1       4.897   4.246   5.300  0.00  0.00    +0.149 HD
ATOM      4  C   UNL     1       4.725   4.265   3.241  0.00  0.00    +0.234 C 
ATOM      5  O   UNL     1       4.689   3.573   2.220  0.00  0.00    -0.274 OA
BRANCH   4   6
ATOM      6  C   UNL     1       4.534   5.795   3.186  0.00  0.00    +0.168 C 
BRANCH   6   7
ATOM      7  N   UNL     1       5.791   6.400   2.741  0.00  0.00    -0.298 N 
ATOM      8  H   UNL     1       6.672   5.897   2.821  0.00  0.00    +0.150 HD
ATOM      9  C   UNL     1       5.793   7.621   2.107  0.00  0.00    +0.263 C 
ATOM     10  O   UNL     1       4.770   8.257   1.920  0.00  0.00    -0.269 OA
BRANCH   9  11
ATOM     11  C   UNL     1       7.114   8.175   1.679  0.00  0.00    +0.126 A 
ATOM     12  C   UNL     1       7.112   9.384   0.998  0.00  0.00    +0.033 A 
ATOM     13  C   UNL     1       8.328   9.963   0.677  0.00  0.00    +0.012 A 
ATOM     14  C   UNL     1       9.512   9.321   1.043  0.00  0.00    +0.000 A 
ATOM     15  C   UNL     1       9.430   8.076   1.713  0.00  0.00    +0.072 A 
ATOM     16  C   UNL     1      10.631   7.462   2.055  0.00  0.00    +0.028 A 
ATOM     17  C   UNL     1      11.873   8.046   1.774  0.00  0.00    +0.002 A 
ATOM     18  C   UNL     1      11.935   9.276   1.128  0.00  0.00    +0.001 A 
ATOM     19  C   UNL     1      10.755   9.910   0.757  0.00  0.00    +0.010 A 
ATOM     20  N   UNL     1       8.246   7.500   2.033  0.00  0.00    -0.242 NA
ENDBRANCH   9  11
ENDBRANCH   6   7
BRANCH   6  21
ATOM     21  C   UNL     1       4.033   6.449   4.476  0.00  0.00    +0.127 C 
BRANCH  21  22
ATOM     22  C   UNL     1       2.696   5.905   4.919  0.00  0.00    +0.213 C 
ATOM     23  N   UNL     1       2.264   6.400   6.116  0.00  0.00    -0.329 N 
ATOM     24  H   UNL     1       1.357   6.095   6.446  0.00  0.00    +0.145 HD
ATOM     25  H   UNL     1       2.695   7.193   6.569  0.00  0.00    +0.145 HD
ATOM     26  O   UNL     1       2.038   5.083   4.298  0.00  0.00    -0.276 OA
ENDBRANCH  21  22
ENDBRANCH   6  21
ENDBRANCH   4   6
ENDBRANCH   1   2
BRANCH   1  27
ATOM     27  C   UNL     1       3.653   1.753   4.731  0.00  0.00    +0.149 C 
BRANCH  27  28
ATOM     28  O   UNL     1       3.130   2.049   6.025  0.00  0.00    -0.389 OA
ATOM     29  H   UNL     1       2.785   1.236   6.420  0.00  0.00    +0.210 HD
ENDBRANCH  27  28
BRANCH  27  30
ATOM     30  C   UNL     1       3.470   0.254   4.315  0.00  0.00    +0.118 C 
BRANCH  30  32
ATOM     31  C   UNL     1       1.123  -0.433   4.966  0.00  0.00    +0.143 C 
ATOM     32  N   UNL     1       2.115  -0.209   3.887  0.00  0.00    -0.289 NA
ATOM     33  C   UNL     1       1.612   0.500   2.705  0.00  0.00    +0.089 C 
ATOM     34  C   UNL     1       0.173   0.151   2.298  0.00  0.00    +0.006 C 
ATOM     35  C   UNL     1      -0.783   0.556   3.425  0.00  0.00    -0.005 C 
ATOM     36  C   UNL     1      -2.225   0.076   3.181  0.00  0.00    +0.004 C 
ATOM     37  C   UNL     1      -2.313  -1.388   2.767  0.00  0.00    +0.000 C 
ATOM     38  C   UNL     1      -1.446  -1.661   1.547  0.00  0.00    +0.000 C 
ATOM     39  C   UNL     1       0.012  -1.297   1.814  0.00  0.00    +0.005 C 
ATOM     40  C   UNL     1      -0.265   0.236   4.838  0.00  0.00    +0.032 C 
BRANCH  31  43
ATOM     41  N   UNL     1       1.941  -2.760   4.764  0.00  0.00    -0.309 N 
ATOM     42  H   UNL     1       2.494  -2.308   4.037  0.00  0.00    +0.149 HD
ATOM     43  C   UNL     1       0.934  -1.951   5.241  0.00  0.00    +0.231 C 
ATOM     44  O   UNL     1      -0.006  -2.376   5.910  0.00  0.00    -0.274 OA
BRANCH  41  46
ATOM     45  C   UNL     1       0.685  -4.736   3.986  0.00  0.00    +0.031 C 
ATOM     46  C   UNL     1       1.884  -4.226   4.805  0.00  0.00    +0.026 C 
ATOM     47  C   UNL     1       3.174  -4.788   4.183  0.00  0.00    +0.031 C 
ATOM     48  C   UNL     1       1.795  -4.737   6.255  0.00  0.00    +0.031 C 
ENDBRANCH  41  46
ENDBRANCH  31  43
ENDBRANCH  30  32
ENDBRANCH  27  30
ENDBRANCH   1  27
BRANCH   1  49
ATOM     49  C   UNL     1       6.119   1.892   5.766  0.00  0.00    +0.060 C 
BRANCH  49  50
ATOM     50  C   UNL     1       6.061   2.503   7.159  0.00  0.00    -0.046 A 
ATOM     51  C   UNL     1       6.844   3.623   7.495  0.00  0.00    +0.004 A 
ATOM     52  C   UNL     1       7.013   4.007   8.832  0.00  0.00    +0.000 A 
ATOM     53  C   UNL     1       6.390   3.289   9.848  0.00  0.00    +0.000 A 
ATOM     54  C   UNL     1       5.554   2.223   9.527  0.00  0.00    +0.000 A 
ATOM     55  C   UNL     1       5.389   1.835   8.192  0.00  0.00    +0.004 A 
ENDBRANCH  49  50
ENDBRANCH   1  49
TORSDOF 14
