REMARK  Name = 
REMARK  17 active torsions:
REMARK  status: ('A' for Active; 'I' for Inactive)
REMARK    1  A    between atoms: C_1  and  C_2
REMARK    2  A    between atoms: C_2  and  C_3
REMARK    3  A    between atoms: C_2  and  C_4
REMARK    4  A    between atoms: C_2  and  N_5
REMARK    5  A    between atoms: C_6  and  C_8
REMARK    6  A    between atoms: N_11  and  C_44
REMARK    7  A    between atoms: N_14  and  C_15
REMARK    8  A    between atoms: C_15  and  C_16
REMARK    9  A    between atoms: C_16  and  C_18
REMARK   10  A    between atoms: C_16  and  O_43
REMARK   11  A    between atoms: C_18  and  C_19
REMARK   12  A    between atoms: C_19  and  C_21
REMARK   13  A    between atoms: C_19  and  C_28
REMARK   14  A    between atoms: C_21  and  C_22
REMARK   15  A    between atoms: N_30  and  C_31
REMARK   16  A    between atoms: C_33  and  O_42
REMARK   17  A    between atoms: C_44  and  C_45
REMARK                            x       y       z     vdW  Elec       q    Type
REMARK                         _______ _______ _______ _____ _____    ______ ____
ROOT
ATOM      1  C   UNL     1       0.214  -4.875   5.993  0.00  0.00    +0.129 C 
ENDROOT
BRANCH   1   2
ATOM      2  O   UNL     1      -1.123  -5.202   6.410  0.00  0.00    -0.391 OA
ATOM      3  H   UNL     1      -1.563  -5.631   5.652  0.00  0.00    +0.210 HD
ENDBRANCH   1   2
BRANCH   1   4
ATOM      4  C   UNL     1       1.044  -4.581   7.318  0.00  0.00    +0.116 C 
BRANCH   4   6
ATOM      5  C   UNL     1       3.426  -5.465   7.073  0.00  0.00    +0.157 C 
ATOM      6  N   UNL     1       2.518  -4.321   7.423  0.00  0.00    -0.287 NA
ATOM      7  C   UNL     1       2.906  -4.036   8.842  0.00  0.00    +0.100 C 
ATOM      8  C   UNL     1       2.926  -5.254   9.825  0.00  0.00    +0.100 C 
ATOM      9  N   UNL     1       3.542  -6.524   9.349  0.00  0.00    -0.295 NA
ATOM     10  C   UNL     1       3.252  -6.760   7.911  0.00  0.00    +0.113 C 
BRANCH   5  13
ATOM     11  N   UNL     1       4.126  -4.574   4.951  0.00  0.00    -0.309 N 
ATOM     12  H   UNL     1       4.228  -3.749   5.509  0.00  0.00    +0.149 HD
ATOM     13  C   UNL     1       3.487  -5.654   5.563  0.00  0.00    +0.232 C 
ATOM     14  O   UNL     1       3.050  -6.642   4.996  0.00  0.00    -0.274 OA
BRANCH  11  16
ATOM     15  C   UNL     1       3.118  -4.429   2.710  0.00  0.00    +0.031 C 
ATOM     16  C   UNL     1       4.416  -4.506   3.519  0.00  0.00    +0.026 C 
ATOM     17  C   UNL     1       5.221  -3.218   3.251  0.00  0.00    +0.031 C 
ATOM     18  C   UNL     1       5.274  -5.704   3.088  0.00  0.00    +0.031 C 
ENDBRANCH  11  16
ENDBRANCH   5  13
BRANCH   9  19
ATOM     19  C   UNL     1       3.080  -7.624  10.229  0.00  0.00    +0.121 C 
BRANCH  19  20
ATOM     20  C   UNL     1       3.586  -9.025   9.974  0.00  0.00    -0.015 A 
ATOM     21  C   UNL     1       4.921  -9.401  10.141  0.00  0.00    +0.008 A 
ATOM     22  C   UNL     1       5.281 -10.748  10.053  0.00  0.00    +0.020 A 
ATOM     23  C   UNL     1       4.291 -11.684   9.797  0.00  0.00    +0.111 A 
ATOM     24  N   UNL     1       2.994 -11.364   9.616  0.00  0.00    -0.263 NA
ATOM     25  C   UNL     1       2.676 -10.051   9.709  0.00  0.00    +0.115 A 
ENDBRANCH  19  20
ENDBRANCH   9  19
ENDBRANCH   4   6
ENDBRANCH   1   4
BRANCH   1  26
ATOM     26  C   UNL     1       0.094  -3.918   4.771  0.00  0.00    +0.045 C 
BRANCH  26  27
ATOM     27  C   UNL     1      -0.661  -2.549   4.735  0.00  0.00    +0.082 C 
BRANCH  27  28
ATOM     28  C   UNL     1      -0.448  -1.887   3.338  0.00  0.00    +0.217 C 
ATOM     29  N   UNL     1      -0.572  -0.520   3.321  0.00  0.00    -0.306 N 
ATOM     30  H   UNL     1      -0.927  -0.071   4.155  0.00  0.00    +0.149 HD
ATOM     31  O   UNL     1      -0.171  -2.520   2.324  0.00  0.00    -0.275 OA
BRANCH  29  32
ATOM     32  C   UNL     1      -0.645   0.307   2.092  0.00  0.00    +0.132 C 
ATOM     33  C   UNL     1      -1.548   1.458   2.443  0.00  0.00    -0.022 A 
ATOM     34  C   UNL     1      -0.815   2.613   2.719  0.00  0.00    -0.040 A 
ATOM     35  C   UNL     1      -1.377   3.644   3.453  0.00  0.00    +0.004 A 
ATOM     36  C   UNL     1      -2.682   3.485   3.926  0.00  0.00    +0.000 A 
ATOM     37  C   UNL     1      -3.439   2.355   3.582  0.00  0.00    +0.000 A 
ATOM     38  C   UNL     1       0.605   2.495   2.271  0.00  0.00    +0.069 C 
ATOM     39  C   UNL     1      -2.884   1.343   2.804  0.00  0.00    +0.006 A 
ATOM     40  C   UNL     1       0.700   1.039   1.756  0.00  0.00    +0.143 C 
BRANCH  40  41
ATOM     41  O   UNL     1       1.834   0.409   2.357  0.00  0.00    -0.389 OA
ATOM     42  H   UNL     1       1.473  -0.254   2.974  0.00  0.00    +0.210 HD
ENDBRANCH  40  41
ENDBRANCH  29  32
ENDBRANCH  27  28
BRANCH  27  43
ATOM     43  C   UNL     1      -2.156  -2.475   5.183  0.00  0.00    +0.048 C 
BRANCH  43  44
ATOM     44  C   UNL     1      -3.368  -2.630   4.268  0.00  0.00    -0.047 A 
ATOM     45  C   UNL     1      -4.617  -2.176   4.750  0.00  0.00    +0.003 A 
ATOM     46  C   UNL     1      -5.752  -2.132   3.928  0.00  0.00    +0.000 A 
ATOM     47  C   UNL     1      -5.673  -2.557   2.612  0.00  0.00    +0.000 A 
ATOM     48  C   UNL     1      -4.469  -3.076   2.139  0.00  0.00    +0.000 A 
ATOM     49  C   UNL     1      -3.335  -3.135   2.965  0.00  0.00    +0.003 A 
ENDBRANCH  43  44
ENDBRANCH  27  43
ENDBRANCH  26  27
ENDBRANCH   1  26
TORSDOF 14
