REMARK  Name = 
REMARK  17 active torsions:
REMARK  status: ('A' for Active; 'I' for Inactive)
REMARK    1  A    between atoms: C_1  and  C_2
REMARK    2  A    between atoms: C_2  and  C_3
REMARK    3  A    between atoms: C_2  and  C_4
REMARK    4  A    between atoms: C_2  and  N_5
REMARK    5  A    between atoms: C_6  and  C_8
REMARK    6  A    between atoms: N_11  and  C_44
REMARK    7  A    between atoms: N_14  and  C_15
REMARK    8  A    between atoms: C_15  and  C_16
REMARK    9  A    between atoms: C_16  and  C_18
REMARK   10  A    between atoms: C_16  and  O_43
REMARK   11  A    between atoms: C_18  and  C_19
REMARK   12  A    between atoms: C_19  and  C_21
REMARK   13  A    between atoms: C_19  and  C_28
REMARK   14  A    between atoms: C_21  and  C_22
REMARK   15  A    between atoms: N_30  and  C_31
REMARK   16  A    between atoms: C_33  and  O_42
REMARK   17  A    between atoms: C_44  and  C_45
REMARK                            x       y       z     vdW  Elec       q    Type
REMARK                         _______ _______ _______ _____ _____    ______ ____
ROOT
ATOM      1  C   UNL     1      -0.229  -4.795   5.695  0.00  0.00    +0.129 C 
ENDROOT
BRANCH   1   2
ATOM      2  O   UNL     1      -1.206  -5.846   5.654  0.00  0.00    -0.391 OA
ATOM      3  H   UNL     1      -1.077  -6.329   4.817  0.00  0.00    +0.210 HD
ENDBRANCH   1   2
BRANCH   1   4
ATOM      4  C   UNL     1       0.009  -4.443   7.201  0.00  0.00    +0.116 C 
BRANCH   4   6
ATOM      5  C   UNL     1       2.383  -3.555   7.521  0.00  0.00    +0.157 C 
ATOM      6  N   UNL     1       0.900  -3.336   7.638  0.00  0.00    -0.287 NA
ATOM      7  C   UNL     1       0.675  -3.066   9.097  0.00  0.00    +0.100 C 
ATOM      8  C   UNL     1       1.351  -4.046  10.113  0.00  0.00    +0.100 C 
ATOM      9  N   UNL     1       2.802  -4.255   9.892  0.00  0.00    -0.295 NA
ATOM     10  C   UNL     1       3.008  -4.611   8.473  0.00  0.00    +0.113 C 
BRANCH   5  13
ATOM     11  N   UNL     1       3.286  -2.753   5.397  0.00  0.00    -0.309 N 
ATOM     12  H   UNL     1       3.115  -1.839   5.807  0.00  0.00    +0.149 HD
ATOM     13  C   UNL     1       2.856  -3.857   6.106  0.00  0.00    +0.232 C 
ATOM     14  O   UNL     1       2.882  -5.006   5.664  0.00  0.00    -0.274 OA
BRANCH  11  16
ATOM     15  C   UNL     1       2.537  -3.065   3.079  0.00  0.00    +0.031 C 
ATOM     16  C   UNL     1       3.734  -2.798   4.000  0.00  0.00    +0.026 C 
ATOM     17  C   UNL     1       4.335  -1.431   3.630  0.00  0.00    +0.031 C 
ATOM     18  C   UNL     1       4.822  -3.866   3.792  0.00  0.00    +0.031 C 
ENDBRANCH  11  16
ENDBRANCH   5  13
BRANCH   9  19
ATOM     19  C   UNL     1       3.321  -5.291  10.812  0.00  0.00    +0.121 C 
BRANCH  19  20
ATOM     20  C   UNL     1       4.784  -5.642  10.657  0.00  0.00    -0.015 A 
ATOM     21  C   UNL     1       5.182  -6.926  10.261  0.00  0.00    +0.008 A 
ATOM     22  C   UNL     1       6.536  -7.232  10.133  0.00  0.00    +0.020 A 
ATOM     23  C   UNL     1       7.462  -6.242  10.413  0.00  0.00    +0.111 A 
ATOM     24  N   UNL     1       7.123  -4.996  10.815  0.00  0.00    -0.263 NA
ATOM     25  C   UNL     1       5.798  -4.728  10.927  0.00  0.00    +0.115 A 
ENDBRANCH  19  20
ENDBRANCH   9  19
ENDBRANCH   4   6
ENDBRANCH   1   4
BRANCH   1  26
ATOM     26  C   UNL     1      -0.606  -3.677   4.684  0.00  0.00    +0.045 C 
BRANCH  26  27
ATOM     27  C   UNL     1      -1.954  -2.910   4.792  0.00  0.00    +0.082 C 
BRANCH  27  28
ATOM     28  C   UNL     1      -2.019  -1.792   3.706  0.00  0.00    +0.217 C 
ATOM     29  N   UNL     1      -1.451  -0.597   4.081  0.00  0.00    -0.306 N 
ATOM     30  H   UNL     1      -0.746  -0.646   4.810  0.00  0.00    +0.149 HD
ATOM     31  O   UNL     1      -2.508  -1.961   2.592  0.00  0.00    -0.275 OA
BRANCH  29  32
ATOM     32  C   UNL     1      -1.339   0.582   3.211  0.00  0.00    +0.132 C 
ATOM     33  C   UNL     1      -2.166   1.785   3.638  0.00  0.00    -0.022 A 
ATOM     34  C   UNL     1      -1.381   2.951   3.692  0.00  0.00    -0.040 A 
ATOM     35  C   UNL     1      -1.919   4.188   4.041  0.00  0.00    +0.004 A 
ATOM     36  C   UNL     1      -3.288   4.270   4.286  0.00  0.00    +0.000 A 
ATOM     37  C   UNL     1      -4.092   3.130   4.158  0.00  0.00    +0.000 A 
ATOM     38  C   UNL     1       0.014   2.699   3.223  0.00  0.00    +0.069 C 
ATOM     39  C   UNL     1      -3.537   1.880   3.836  0.00  0.00    +0.006 A 
ATOM     40  C   UNL     1       0.103   1.171   3.347  0.00  0.00    +0.143 C 
BRANCH  40  41
ATOM     41  O   UNL     1       0.644   0.846   4.654  0.00  0.00    -0.389 OA
ATOM     42  H   UNL     1       0.044   1.265   5.302  0.00  0.00    +0.210 HD
ENDBRANCH  40  41
ENDBRANCH  29  32
ENDBRANCH  27  28
BRANCH  27  43
ATOM     43  C   UNL     1      -3.185  -3.809   4.603  0.00  0.00    +0.048 C 
BRANCH  43  44
ATOM     44  C   UNL     1      -4.500  -3.156   4.975  0.00  0.00    -0.047 A 
ATOM     45  C   UNL     1      -4.739  -2.759   6.297  0.00  0.00    +0.003 A 
ATOM     46  C   UNL     1      -5.983  -2.254   6.672  0.00  0.00    +0.000 A 
ATOM     47  C   UNL     1      -7.004  -2.145   5.731  0.00  0.00    +0.000 A 
ATOM     48  C   UNL     1      -6.771  -2.511   4.407  0.00  0.00    +0.000 A 
ATOM     49  C   UNL     1      -5.522  -3.007   4.027  0.00  0.00    +0.003 A 
ENDBRANCH  43  44
ENDBRANCH  27  43
ENDBRANCH  26  27
ENDBRANCH   1  26
TORSDOF 14
