REMARK  Name = 
REMARK  19 active torsions:
REMARK  status: ('A' for Active; 'I' for Inactive)
REMARK    1  A    between atoms: C_1  and  C_2
REMARK    2  A    between atoms: C_2  and  C_3
REMARK    3  A    between atoms: C_2  and  C_4
REMARK    4  A    between atoms: C_2  and  N_5
REMARK    5  A    between atoms: C_6  and  C_8
REMARK    6  A    between atoms: N_11  and  C_43
REMARK    7  A    between atoms: N_14  and  C_15
REMARK    8  A    between atoms: C_15  and  C_16
REMARK    9  A    between atoms: C_16  and  C_18
REMARK   10  A    between atoms: C_16  and  O_42
REMARK   11  A    between atoms: C_18  and  C_19
REMARK   12  A    between atoms: C_19  and  C_20
REMARK   13  A    between atoms: C_19  and  C_27
REMARK   14  A    between atoms: C_20  and  C_21
REMARK   15  A    between atoms: N_29  and  C_30
REMARK   16  A    between atoms: C_32  and  O_41
REMARK   17  A    between atoms: C_43  and  C_44
REMARK   18  A    between atoms: O_50  and  S_51
REMARK   19  A    between atoms: S_51  and  O_54
REMARK                            x       y       z     vdW  Elec       q    Type
REMARK                         _______ _______ _______ _____ _____    ______ ____
ROOT
ATOM      1  C   UNL     1       3.959   3.363   6.161  0.00  0.00    +0.129 C 
ENDROOT
BRANCH   1   2
ATOM      2  O   UNL     1       3.767   4.324   7.209  0.00  0.00    -0.391 OA
ATOM      3  H   UNL     1       4.653   4.624   7.480  0.00  0.00    +0.210 HD
ENDBRANCH   1   2
BRANCH   1   4
ATOM      4  C   UNL     1       2.722   3.398   5.199  0.00  0.00    +0.116 C 
BRANCH   4   6
ATOM      5  C   UNL     1       0.405   3.139   4.326  0.00  0.00    +0.157 C 
ATOM      6  N   UNL     1       1.331   2.960   5.512  0.00  0.00    -0.287 NA
ATOM      7  C   UNL     1       0.650   3.727   6.591  0.00  0.00    +0.100 C 
ATOM      8  C   UNL     1       0.239   5.202   6.253  0.00  0.00    +0.100 C 
ATOM      9  N   UNL     1      -0.528   5.382   4.987  0.00  0.00    -0.295 NA
ATOM     10  C   UNL     1       0.137   4.621   3.912  0.00  0.00    +0.113 C 
BRANCH   5  13
ATOM     11  N   UNL     1      -0.269   2.284   2.159  0.00  0.00    -0.309 N 
ATOM     12  H   UNL     1      -1.193   2.576   2.460  0.00  0.00    +0.149 HD
ATOM     13  C   UNL     1       0.767   2.310   3.088  0.00  0.00    +0.232 C 
ATOM     14  O   UNL     1       1.833   1.724   2.905  0.00  0.00    -0.274 OA
BRANCH  11  16
ATOM     15  C   UNL     1      -0.062   0.062   1.218  0.00  0.00    +0.031 C 
ATOM     16  C   UNL     1      -0.173   1.558   0.900  0.00  0.00    +0.026 C 
ATOM     17  C   UNL     1      -1.448   1.768   0.069  0.00  0.00    +0.031 C 
ATOM     18  C   UNL     1       0.994   2.135   0.084  0.00  0.00    +0.031 C 
ENDBRANCH  11  16
ENDBRANCH   5  13
BRANCH   9  19
ATOM     19  C   UNL     1      -0.670   6.823   4.650  0.00  0.00    +0.121 C 
BRANCH  19  20
ATOM     20  C   UNL     1      -1.445   7.149   3.384  0.00  0.00    -0.015 A 
ATOM     21  C   UNL     1      -0.896   7.961   2.379  0.00  0.00    +0.008 A 
ATOM     22  C   UNL     1      -1.624   8.249   1.224  0.00  0.00    +0.020 A 
ATOM     23  C   UNL     1      -2.899   7.727   1.105  0.00  0.00    +0.111 A 
ATOM     24  N   UNL     1      -3.483   6.973   2.062  0.00  0.00    -0.263 NA
ATOM     25  C   UNL     1      -2.752   6.715   3.178  0.00  0.00    +0.115 A 
ENDBRANCH  19  20
ENDBRANCH   9  19
ENDBRANCH   4   6
ENDBRANCH   1   4
BRANCH   1  26
ATOM     26  C   UNL     1       4.487   2.041   6.771  0.00  0.00    +0.045 C 
BRANCH  26  27
ATOM     27  C   UNL     1       4.766   0.837   5.840  0.00  0.00    +0.082 C 
BRANCH  27  28
ATOM     28  C   UNL     1       5.090  -0.422   6.661  0.00  0.00    +0.217 C 
ATOM     29  N   UNL     1       3.997  -1.073   7.202  0.00  0.00    -0.306 N 
ATOM     30  H   UNL     1       3.064  -0.695   7.088  0.00  0.00    +0.149 HD
ATOM     31  O   UNL     1       6.226  -0.817   6.895  0.00  0.00    -0.275 OA
BRANCH  29  32
ATOM     32  C   UNL     1       4.204  -2.194   8.110  0.00  0.00    +0.132 C 
ATOM     33  C   UNL     1       3.067  -2.370   9.071  0.00  0.00    -0.022 A 
ATOM     34  C   UNL     1       2.519  -3.650   9.005  0.00  0.00    -0.040 A 
ATOM     35  C   UNL     1       1.509  -4.039   9.872  0.00  0.00    +0.004 A 
ATOM     36  C   UNL     1       1.065  -3.129  10.833  0.00  0.00    +0.000 A 
ATOM     37  C   UNL     1       1.621  -1.845  10.907  0.00  0.00    +0.000 A 
ATOM     38  C   UNL     1       3.180  -4.495   7.966  0.00  0.00    +0.069 C 
ATOM     39  C   UNL     1       2.625  -1.456  10.019  0.00  0.00    +0.006 A 
ATOM     40  C   UNL     1       4.305  -3.595   7.415  0.00  0.00    +0.143 C 
BRANCH  40  41
ATOM     41  O   UNL     1       4.188  -3.544   5.987  0.00  0.00    -0.389 OA
ATOM     42  H   UNL     1       3.756  -2.699   5.774  0.00  0.00    +0.210 HD
ENDBRANCH  40  41
ENDBRANCH  29  32
ENDBRANCH  27  28
BRANCH  27  43
ATOM     43  C   UNL     1       5.726   1.030   4.629  0.00  0.00    +0.048 C 
BRANCH  43  44
ATOM     44  C   UNL     1       7.245   1.177   4.545  0.00  0.00    -0.047 A 
ATOM     45  C   UNL     1       7.763   1.471   3.264  0.00  0.00    +0.003 A 
ATOM     46  C   UNL     1       9.135   1.532   3.004  0.00  0.00    +0.000 A 
ATOM     47  C   UNL     1      10.039   1.291   4.028  0.00  0.00    +0.000 A 
ATOM     48  C   UNL     1       9.556   0.978   5.299  0.00  0.00    +0.000 A 
ATOM     49  C   UNL     1       8.173   0.942   5.559  0.00  0.00    +0.003 A 
ENDBRANCH  43  44
ENDBRANCH  27  43
ENDBRANCH  26  27
ENDBRANCH   1  26
TORSDOF 14
REMARK  Name = 
REMARK  19 active torsions:
REMARK  status: ('A' for Active; 'I' for Inactive)
REMARK    1  A    between atoms: C_1  and  C_2
REMARK    2  A    between atoms: C_2  and  C_3
REMARK    3  A    between atoms: C_2  and  C_4
REMARK    4  A    between atoms: C_2  and  N_5
REMARK    5  A    between atoms: C_6  and  C_8
REMARK    6  A    between atoms: N_11  and  C_43
REMARK    7  A    between atoms: N_14  and  C_15
REMARK    8  A    between atoms: C_15  and  C_16
REMARK    9  A    between atoms: C_16  and  C_18
REMARK   10  A    between atoms: C_16  and  O_42
REMARK   11  A    between atoms: C_18  and  C_19
REMARK   12  A    between atoms: C_19  and  C_20
REMARK   13  A    between atoms: C_19  and  C_27
REMARK   14  A    between atoms: C_20  and  C_21
REMARK   15  A    between atoms: N_29  and  C_30
REMARK   16  A    between atoms: C_32  and  O_41
REMARK   17  A    between atoms: C_43  and  C_44
REMARK   18  A    between atoms: O_50  and  S_51
REMARK   19  A    between atoms: S_51  and  O_54
REMARK                            x       y       z     vdW  Elec       q    Type
REMARK                         _______ _______ _______ _____ _____    ______ ____
ROOT
ATOM      1  S   UNL     1       3.547  -0.390  -0.712  0.00  0.00    +0.205 S 
ATOM      2  O   UNL     1       3.521   0.901  -1.359  0.00  0.00    -0.118 OA
ATOM      3  O   UNL     1       4.225  -1.521  -1.271  0.00  0.00    -0.118 OA
ENDROOT
BRANCH   1   4
ATOM      4  O   UNL     1       2.006  -0.859  -0.577  0.00  0.00    -0.231 OA
ATOM      5  H   UNL     1       1.821  -1.531  -1.264  0.00  0.00    +0.247 HD
ENDBRANCH   1   4
BRANCH   1   6
ATOM      6  O   UNL     1       3.960  -0.186   0.815  0.00  0.00    -0.231 OA
ATOM      7  H   UNL     1       3.313   0.393   1.269  0.00  0.00    +0.247 HD
ENDBRANCH   1   6
TORSDOF 2
