REMARK  Name = 
REMARK  19 active torsions:
REMARK  status: ('A' for Active; 'I' for Inactive)
REMARK    1  A    between atoms: C_1  and  C_2
REMARK    2  A    between atoms: C_2  and  C_3
REMARK    3  A    between atoms: C_2  and  C_4
REMARK    4  A    between atoms: C_2  and  N_5
REMARK    5  A    between atoms: C_6  and  C_8
REMARK    6  A    between atoms: N_11  and  C_43
REMARK    7  A    between atoms: N_14  and  C_15
REMARK    8  A    between atoms: C_15  and  C_16
REMARK    9  A    between atoms: C_16  and  C_18
REMARK   10  A    between atoms: C_16  and  O_42
REMARK   11  A    between atoms: C_18  and  C_19
REMARK   12  A    between atoms: C_19  and  C_20
REMARK   13  A    between atoms: C_19  and  C_27
REMARK   14  A    between atoms: C_20  and  C_21
REMARK   15  A    between atoms: N_29  and  C_30
REMARK   16  A    between atoms: C_32  and  O_41
REMARK   17  A    between atoms: C_43  and  C_44
REMARK   18  A    between atoms: O_50  and  S_51
REMARK   19  A    between atoms: S_51  and  O_54
REMARK                            x       y       z     vdW  Elec       q    Type
REMARK                         _______ _______ _______ _____ _____    ______ ____
ROOT
ATOM      1  C   UNL     1      -5.239  -1.226   2.606  0.00  0.00    +0.129 C 
ENDROOT
BRANCH   1   2
ATOM      2  O   UNL     1      -6.472  -1.500   1.933  0.00  0.00    -0.391 OA
ATOM      3  H   UNL     1      -6.503  -2.461   1.782  0.00  0.00    +0.210 HD
ENDBRANCH   1   2
BRANCH   1   4
ATOM      4  C   UNL     1      -5.478  -0.053   3.645  0.00  0.00    +0.116 C 
BRANCH   4   6
ATOM      5  C   UNL     1      -6.776   0.656   5.750  0.00  0.00    +0.157 C 
ATOM      6  N   UNL     1      -6.471  -0.415   4.723  0.00  0.00    -0.287 NA
ATOM      7  C   UNL     1      -6.026  -1.572   5.535  0.00  0.00    +0.100 C 
ATOM      8  C   UNL     1      -4.799  -1.258   6.417  0.00  0.00    +0.100 C 
ATOM      9  N   UNL     1      -5.109  -0.224   7.420  0.00  0.00    -0.295 NA
ATOM     10  C   UNL     1      -5.641   0.999   6.756  0.00  0.00    +0.113 C 
BRANCH   5  13
ATOM     11  N   UNL     1      -8.523   1.502   4.301  0.00  0.00    -0.309 N 
ATOM     12  H   UNL     1      -8.489   0.524   4.018  0.00  0.00    +0.149 HD
ATOM     13  C   UNL     1      -7.526   1.872   5.187  0.00  0.00    +0.232 C 
ATOM     14  O   UNL     1      -7.358   3.015   5.601  0.00  0.00    -0.274 OA
BRANCH  11  16
ATOM     15  C   UNL     1      -9.129   3.598   3.128  0.00  0.00    +0.031 C 
ATOM     16  C   UNL     1      -9.638   2.342   3.848  0.00  0.00    +0.026 C 
ATOM     17  C   UNL     1     -10.484   1.521   2.857  0.00  0.00    +0.031 C 
ATOM     18  C   UNL     1     -10.540   2.739   5.031  0.00  0.00    +0.031 C 
ENDBRANCH  11  16
ENDBRANCH   5  13
BRANCH   9  19
ATOM     19  C   UNL     1      -3.934   0.042   8.260  0.00  0.00    +0.121 C 
BRANCH  19  20
ATOM     20  C   UNL     1      -4.238   0.749   9.555  0.00  0.00    -0.015 A 
ATOM     21  C   UNL     1      -5.129   0.223  10.498  0.00  0.00    +0.008 A 
ATOM     22  C   UNL     1      -5.298   0.862  11.724  0.00  0.00    +0.020 A 
ATOM     23  C   UNL     1      -4.568   2.012  11.970  0.00  0.00    +0.111 A 
ATOM     24  N   UNL     1      -3.704   2.556  11.087  0.00  0.00    -0.263 NA
ATOM     25  C   UNL     1      -3.562   1.914   9.905  0.00  0.00    +0.115 A 
ENDBRANCH  19  20
ENDBRANCH   9  19
ENDBRANCH   4   6
ENDBRANCH   1   4
BRANCH   1  26
ATOM     26  C   UNL     1      -4.104  -1.180   1.534  0.00  0.00    +0.045 C 
BRANCH  26  27
ATOM     27  C   UNL     1      -4.240  -0.208   0.329  0.00  0.00    +0.082 C 
BRANCH  27  28
ATOM     28  C   UNL     1      -3.489  -0.636  -0.984  0.00  0.00    +0.217 C 
ATOM     29  N   UNL     1      -3.212   0.359  -1.901  0.00  0.00    -0.306 N 
ATOM     30  H   UNL     1      -3.172   1.316  -1.591  0.00  0.00    +0.149 HD
ATOM     31  O   UNL     1      -3.304  -1.818  -1.276  0.00  0.00    -0.275 OA
BRANCH  29  32
ATOM     32  C   UNL     1      -2.985   0.182  -3.347  0.00  0.00    +0.132 C 
ATOM     33  C   UNL     1      -2.826   1.543  -3.994  0.00  0.00    -0.022 A 
ATOM     34  C   UNL     1      -1.472   1.830  -4.241  0.00  0.00    -0.040 A 
ATOM     35  C   UNL     1      -1.072   3.072  -4.709  0.00  0.00    +0.004 A 
ATOM     36  C   UNL     1      -2.049   4.036  -4.956  0.00  0.00    +0.000 A 
ATOM     37  C   UNL     1      -3.405   3.742  -4.753  0.00  0.00    +0.000 A 
ATOM     38  C   UNL     1      -0.606   0.665  -3.889  0.00  0.00    +0.069 C 
ATOM     39  C   UNL     1      -3.803   2.489  -4.270  0.00  0.00    +0.006 A 
ATOM     40  C   UNL     1      -1.635  -0.477  -3.781  0.00  0.00    +0.143 C 
BRANCH  40  41
ATOM     41  O   UNL     1      -1.156  -1.502  -2.925  0.00  0.00    -0.389 OA
ATOM     42  H   UNL     1      -1.933  -1.884  -2.463  0.00  0.00    +0.210 HD
ENDBRANCH  40  41
ENDBRANCH  29  32
ENDBRANCH  27  28
BRANCH  27  43
ATOM     43  C   UNL     1      -4.135   1.266   0.732  0.00  0.00    +0.048 C 
BRANCH  43  44
ATOM     44  C   UNL     1      -2.973   1.841   1.510  0.00  0.00    -0.047 A 
ATOM     45  C   UNL     1      -3.160   3.155   1.983  0.00  0.00    +0.003 A 
ATOM     46  C   UNL     1      -2.184   3.811   2.729  0.00  0.00    +0.000 A 
ATOM     47  C   UNL     1      -0.995   3.160   3.029  0.00  0.00    +0.000 A 
ATOM     48  C   UNL     1      -0.783   1.861   2.567  0.00  0.00    +0.000 A 
ATOM     49  C   UNL     1      -1.758   1.209   1.795  0.00  0.00    +0.003 A 
ENDBRANCH  43  44
ENDBRANCH  27  43
ENDBRANCH  26  27
ENDBRANCH   1  26
TORSDOF 14
REMARK  Name = 
REMARK  19 active torsions:
REMARK  status: ('A' for Active; 'I' for Inactive)
REMARK    1  A    between atoms: C_1  and  C_2
REMARK    2  A    between atoms: C_2  and  C_3
REMARK    3  A    between atoms: C_2  and  C_4
REMARK    4  A    between atoms: C_2  and  N_5
REMARK    5  A    between atoms: C_6  and  C_8
REMARK    6  A    between atoms: N_11  and  C_43
REMARK    7  A    between atoms: N_14  and  C_15
REMARK    8  A    between atoms: C_15  and  C_16
REMARK    9  A    between atoms: C_16  and  C_18
REMARK   10  A    between atoms: C_16  and  O_42
REMARK   11  A    between atoms: C_18  and  C_19
REMARK   12  A    between atoms: C_19  and  C_20
REMARK   13  A    between atoms: C_19  and  C_27
REMARK   14  A    between atoms: C_20  and  C_21
REMARK   15  A    between atoms: N_29  and  C_30
REMARK   16  A    between atoms: C_32  and  O_41
REMARK   17  A    between atoms: C_43  and  C_44
REMARK   18  A    between atoms: O_50  and  S_51
REMARK   19  A    between atoms: S_51  and  O_54
REMARK                            x       y       z     vdW  Elec       q    Type
REMARK                         _______ _______ _______ _____ _____    ______ ____
ROOT
ATOM      1  S   UNL     1       3.103   0.012  -0.267  0.00  0.00    +0.205 S 
ATOM      2  O   UNL     1       3.366   1.245   0.428  0.00  0.00    -0.118 OA
ATOM      3  O   UNL     1       3.858  -0.424  -1.421  0.00  0.00    -0.118 OA
ENDROOT
BRANCH   1   4
ATOM      4  O   UNL     1       1.550   0.065  -0.708  0.00  0.00    -0.231 OA
ATOM      5  H   UNL     1       1.305   1.010  -0.796  0.00  0.00    +0.247 HD
ENDBRANCH   1   4
BRANCH   1   6
ATOM      6  O   UNL     1       3.090  -1.199   0.779  0.00  0.00    -0.231 OA
ATOM      7  H   UNL     1       2.881  -2.017   0.288  0.00  0.00    +0.247 HD
ENDBRANCH   1   6
TORSDOF 2
