REMARK  Name = 
REMARK  6 active torsions:
REMARK  status: ('A' for Active; 'I' for Inactive)
REMARK    1  A    between atoms: C6_3  and  N6_23
REMARK    2  A    between atoms: N9_7  and  C1*_10
REMARK    3  A    between atoms: C2*_12  and  O2*_22
REMARK    4  A    between atoms: C3*_14  and  O3*_21
REMARK    5  A    between atoms: C4*_16  and  C5*_19
REMARK    6  A    between atoms: C5*_19  and  O5*_20
REMARK                            x       y       z     vdW  Elec       q    Type
REMARK                         _______ _______ _______ _____ _____    ______ ____
ROOT
ATOM      1  C2    A A   1       1.989  -0.879  -2.703  0.00  0.00    +0.225 A 
ATOM      2  N3    A A   1       2.146   0.284  -2.036  0.00  0.00    -0.216 NA
ATOM      3  C4    A A   1       1.526   0.235  -0.845  0.00  0.00    +0.167 A 
ATOM      4  N9    A A   1       1.476   1.209   0.121  0.00  0.00    -0.286 N 
ATOM      5  C8    A A   1       0.750   0.709   1.169  0.00  0.00    +0.203 A 
ATOM      6  N7    A A   1       0.330  -0.519   0.943  0.00  0.00    -0.231 NA
ATOM      7  C5    A A   1       0.809  -0.825  -0.316  0.00  0.00    +0.147 A 
ATOM      8  C6    A A   1       0.715  -1.984  -1.109  0.00  0.00    +0.147 A 
ATOM      9  N1    A A   1       1.332  -1.994  -2.313  0.00  0.00    -0.219 NA
ENDROOT
BRANCH   4  10
ATOM     10  C1*   A A   1       2.130   2.499   0.048  0.00  0.00    +0.253 C 
ATOM     11  O4*   A A   1       2.556   2.903   1.369  0.00  0.00    -0.346 OA
ATOM     12  C4*   A A   1       2.526   4.352   1.416  0.00  0.00    +0.177 C 
ATOM     13  C3*   A A   1       1.975   4.843   0.075  0.00  0.00    +0.178 C 
ATOM     14  C2*   A A   1       1.244   3.631  -0.477  0.00  0.00    +0.195 C 
BRANCH  13  15
ATOM     15  O3*   A A   1       3.076   5.162  -0.797  0.00  0.00    -0.386 OA
ATOM     16  H3*   A A   1       2.695   5.665  -1.542  0.00  0.00    +0.210 HD
ENDBRANCH  13  15
BRANCH  14  17
ATOM     17  O2*   A A   1       1.138   3.708  -1.899  0.00  0.00    -0.385 OA
ATOM     18  H2*   A A   1       2.039   3.617  -2.262  0.00  0.00    +0.210 HD
ENDBRANCH  14  17
BRANCH  12  19
ATOM     19  C5*   A A   1       1.687   4.805   2.614  0.00  0.00    +0.190 C 
BRANCH  19  20
ATOM     20  O5*   A A   1       0.324   4.419   2.458  0.00  0.00    -0.392 OA
ATOM     21  H5*   A A   1      -0.108   4.561   3.321  0.00  0.00    +0.210 HD
ENDBRANCH  19  20
ENDBRANCH  12  19
ENDBRANCH   4  10
BRANCH   8  22
ATOM     22  N6    A A   1       0.041  -3.131  -0.705  0.00  0.00    -0.341 N 
ATOM     23  H61   A A   1      -0.078  -3.187   0.301  0.00  0.00    +0.144 HD
ATOM     24  H62   A A   1       0.374  -3.956  -1.186  0.00  0.00    +0.144 HD
ENDBRANCH   8  22
TORSDOF 6
