REMARK  Name = 
REMARK  16 active torsions:
REMARK  status: ('A' for Active; 'I' for Inactive)
REMARK    1  A    between atoms: C_1  and  C_2
REMARK    2  A    between atoms: C_2  and  C_3
REMARK    3  A    between atoms: C_2  and  C_4
REMARK    4  A    between atoms: C_4  and  N_5
REMARK    5  A    between atoms: N_5  and  C_6
REMARK    6  A    between atoms: N_5  and  S_34
REMARK    7  A    between atoms: C_6  and  C_7
REMARK    8  A    between atoms: C_7  and  C_9
REMARK    9  A    between atoms: C_7  and  O_33
REMARK   10  A    between atoms: C_9  and  C_11
REMARK   11  A    between atoms: C_9  and  N_18
REMARK   12  A    between atoms: C_11  and  C_12
REMARK   13  A    between atoms: C_19  and  O_21
REMARK   14  A    between atoms: O_21  and  C_22
REMARK   15  A    between atoms: S_34  and  C_37
REMARK   16  A    between atoms: C_40  and  N_43
REMARK                            x       y       z     vdW  Elec       q    Type
REMARK                         _______ _______ _______ _____ _____    ______ ____
ROOT
ATOM      1  C   UNL     1      -2.335   2.811  -1.022  0.00  0.00    +0.151 C 
ENDROOT
BRANCH   1   2
ATOM      2  O   UNL     1      -2.641   3.342   0.282  0.00  0.00    -0.389 OA
ATOM      3  H   UNL     1      -1.986   4.026   0.501  0.00  0.00    +0.210 HD
ENDBRANCH   1   2
BRANCH   1   4
ATOM      4  C   UNL     1      -2.515   3.966  -2.012  0.00  0.00    +0.142 C 
BRANCH   4   5
ATOM      5  N   UNL     1      -2.303   3.845  -3.521  0.00  0.00    -0.174 NA
BRANCH   5   6
ATOM      6  S   UNL     1      -2.634   5.530  -4.109  0.00  0.00    +0.061 S 
ATOM      7  O   UNL     1      -1.579   6.363  -3.563  0.00  0.00    -0.153 OA
ATOM      8  O   UNL     1      -4.025   5.818  -3.813  0.00  0.00    -0.153 OA
BRANCH   6   9
ATOM      9  C   UNL     1      -2.450   5.527  -5.870  0.00  0.00    +0.106 A 
ATOM     10  C   UNL     1      -1.234   5.931  -6.429  0.00  0.00    +0.030 A 
ATOM     11  C   UNL     1      -1.057   5.877  -7.812  0.00  0.00    +0.024 A 
ATOM     12  C   UNL     1      -2.104   5.484  -8.649  0.00  0.00    +0.025 A 
ATOM     13  C   UNL     1      -3.347   5.184  -8.079  0.00  0.00    +0.024 A 
ATOM     14  C   UNL     1      -3.535   5.230  -6.693  0.00  0.00    +0.030 A 
BRANCH  12  15
ATOM     15  N   UNL     1      -1.841   5.145  -9.978  0.00  0.00    -0.358 N 
ATOM     16  H   UNL     1      -1.052   5.622 -10.400  0.00  0.00    +0.142 HD
ATOM     17  H   UNL     1      -2.652   5.094 -10.585  0.00  0.00    +0.142 HD
ENDBRANCH  12  15
ENDBRANCH   6   9
ENDBRANCH   5   6
BRANCH   5  18
ATOM     18  C   UNL     1      -0.942   3.359  -3.998  0.00  0.00    +0.112 C 
BRANCH  18  20
ATOM     19  C   UNL     1      -1.660   0.931  -4.389  0.00  0.00    +0.008 C 
ATOM     20  C   UNL     1      -0.646   1.866  -3.728  0.00  0.00    -0.001 C 
ATOM     21  C   UNL     1       0.753   1.436  -4.198  0.00  0.00    +0.008 C 
ENDBRANCH  18  20
ENDBRANCH   5  18
ENDBRANCH   4   5
ENDBRANCH   1   4
BRANCH   1  22
ATOM     22  C   UNL     1      -3.135   1.494  -1.216  0.00  0.00    +0.110 C 
BRANCH  22  23
ATOM     23  N   UNL     1      -2.465   0.428  -0.437  0.00  0.00    -0.275 N 
ATOM     24  H   UNL     1      -1.827  -0.181  -0.935  0.00  0.00    +0.152 HD
ATOM     25  C   UNL     1      -2.418   0.310   0.907  0.00  0.00    +0.401 C 
ATOM     26  O   UNL     1      -3.115   0.904   1.714  0.00  0.00    -0.226 OA
BRANCH  25  27
ATOM     27  O   UNL     1      -1.447  -0.576   1.245  0.00  0.00    -0.444 OA
BRANCH  27  28
ATOM     28  C   UNL     1      -1.210  -0.732   2.663  0.00  0.00    +0.212 C 
ATOM     29  C   UNL     1       0.021  -1.614   2.871  0.00  0.00    +0.090 C 
ATOM     30  C   UNL     1       1.238  -0.893   3.420  0.00  0.00    +0.040 C 
ATOM     31  C   UNL     1       1.162  -1.082   4.926  0.00  0.00    +0.163 C 
ATOM     32  O   UNL     1      -0.027  -1.822   5.207  0.00  0.00    -0.351 OA
ATOM     33  C   UNL     1      -0.390  -2.512   4.011  0.00  0.00    +0.257 C 
ATOM     34  O   UNL     1      -1.792  -2.695   3.914  0.00  0.00    -0.347 OA
ATOM     35  C   UNL     1      -2.343  -1.499   3.346  0.00  0.00    +0.208 C 
ENDBRANCH  27  28
ENDBRANCH  25  27
ENDBRANCH  22  23
BRANCH  22  36
ATOM     36  C   UNL     1      -4.686   1.549  -1.012  0.00  0.00    +0.060 C 
BRANCH  36  37
ATOM     37  C   UNL     1      -5.293   0.187  -1.356  0.00  0.00    -0.046 A 
ATOM     38  C   UNL     1      -5.495  -0.210  -2.685  0.00  0.00    +0.004 A 
ATOM     39  C   UNL     1      -5.535  -1.570  -3.005  0.00  0.00    +0.000 A 
ATOM     40  C   UNL     1      -5.315  -2.523  -2.011  0.00  0.00    +0.000 A 
ATOM     41  C   UNL     1      -5.273  -2.128  -0.677  0.00  0.00    +0.000 A 
ATOM     42  C   UNL     1      -5.372  -0.779  -0.347  0.00  0.00    +0.004 A 
ENDBRANCH  36  37
ENDBRANCH  22  36
ENDBRANCH   1  22
TORSDOF 14
