REMARK  Name = 
REMARK  16 active torsions:
REMARK  status: ('A' for Active; 'I' for Inactive)
REMARK    1  A    between atoms: C_1  and  C_2
REMARK    2  A    between atoms: C_2  and  C_3
REMARK    3  A    between atoms: C_2  and  C_4
REMARK    4  A    between atoms: C_4  and  N_5
REMARK    5  A    between atoms: N_5  and  C_6
REMARK    6  A    between atoms: N_5  and  S_34
REMARK    7  A    between atoms: C_6  and  C_7
REMARK    8  A    between atoms: C_7  and  C_9
REMARK    9  A    between atoms: C_7  and  O_33
REMARK   10  A    between atoms: C_9  and  C_11
REMARK   11  A    between atoms: C_9  and  N_18
REMARK   12  A    between atoms: C_11  and  C_12
REMARK   13  A    between atoms: C_19  and  O_21
REMARK   14  A    between atoms: O_21  and  C_22
REMARK   15  A    between atoms: S_34  and  C_37
REMARK   16  A    between atoms: C_40  and  N_43
REMARK                            x       y       z     vdW  Elec       q    Type
REMARK                         _______ _______ _______ _____ _____    ______ ____
ROOT
ATOM      1  C   UNL     1       2.412   1.394   1.430  0.00  0.00    +0.151 C 
ENDROOT
BRANCH   1   2
ATOM      2  O   UNL     1       1.005   1.570   1.677  0.00  0.00    -0.389 OA
ATOM      3  H   UNL     1       0.861   1.622   2.638  0.00  0.00    +0.210 HD
ENDBRANCH   1   2
BRANCH   1   4
ATOM      4  C   UNL     1       3.165   2.552   2.130  0.00  0.00    +0.142 C 
BRANCH   4   5
ATOM      5  N   UNL     1       4.658   2.441   2.273  0.00  0.00    -0.174 NA
BRANCH   5   6
ATOM      6  S   UNL     1       5.144   1.018   3.120  0.00  0.00    +0.061 S 
ATOM      7  O   UNL     1       5.208  -0.048   2.143  0.00  0.00    -0.153 OA
ATOM      8  O   UNL     1       4.290   0.896   4.283  0.00  0.00    -0.153 OA
BRANCH   6   9
ATOM      9  C   UNL     1       6.792   1.344   3.695  0.00  0.00    +0.106 A 
ATOM     10  C   UNL     1       7.884   0.851   2.975  0.00  0.00    +0.030 A 
ATOM     11  C   UNL     1       9.179   1.062   3.452  0.00  0.00    +0.024 A 
ATOM     12  C   UNL     1       9.392   1.788   4.627  0.00  0.00    +0.025 A 
ATOM     13  C   UNL     1       8.291   2.163   5.400  0.00  0.00    +0.024 A 
ATOM     14  C   UNL     1       6.991   1.964   4.931  0.00  0.00    +0.030 A 
BRANCH  12  15
ATOM     15  N   UNL     1      10.687   1.917   5.145  0.00  0.00    -0.358 N 
ATOM     16  H   UNL     1      11.418   1.905   4.439  0.00  0.00    +0.142 HD
ATOM     17  H   UNL     1      10.801   2.694   5.791  0.00  0.00    +0.142 HD
ENDBRANCH  12  15
ENDBRANCH   6   9
ENDBRANCH   5   6
BRANCH   5  18
ATOM     18  C   UNL     1       5.483   2.776   1.070  0.00  0.00    +0.112 C 
BRANCH  18  20
ATOM     19  C   UNL     1       5.499   5.337   1.153  0.00  0.00    +0.008 C 
ATOM     20  C   UNL     1       5.096   4.092   0.373  0.00  0.00    -0.001 C 
ATOM     21  C   UNL     1       5.652   4.128  -1.052  0.00  0.00    +0.008 C 
ENDBRANCH  18  20
ENDBRANCH   5  18
ENDBRANCH   4   5
ENDBRANCH   1   4
BRANCH   1  22
ATOM     22  C   UNL     1       2.644   1.192  -0.107  0.00  0.00    +0.110 C 
BRANCH  22  23
ATOM     23  N   UNL     1       2.027  -0.063  -0.545  0.00  0.00    -0.275 N 
ATOM     24  H   UNL     1       1.451  -0.573   0.110  0.00  0.00    +0.152 HD
ATOM     25  C   UNL     1       1.910  -0.444  -1.843  0.00  0.00    +0.401 C 
ATOM     26  O   UNL     1       2.499   0.036  -2.798  0.00  0.00    -0.226 OA
BRANCH  25  27
ATOM     27  O   UNL     1       0.972  -1.417  -1.915  0.00  0.00    -0.444 OA
BRANCH  27  28
ATOM     28  C   UNL     1       0.653  -1.851  -3.241  0.00  0.00    +0.212 C 
ATOM     29  C   UNL     1      -0.320  -3.025  -3.218  0.00  0.00    +0.090 C 
ATOM     30  C   UNL     1      -0.755  -3.566  -1.877  0.00  0.00    +0.040 C 
ATOM     31  C   UNL     1      -1.951  -2.713  -1.499  0.00  0.00    +0.163 C 
ATOM     32  O   UNL     1      -2.382  -2.008  -2.667  0.00  0.00    -0.351 OA
ATOM     33  C   UNL     1      -1.597  -2.444  -3.778  0.00  0.00    +0.257 C 
ATOM     34  O   UNL     1      -1.235  -1.366  -4.625  0.00  0.00    -0.347 OA
ATOM     35  C   UNL     1      -0.051  -0.778  -4.075  0.00  0.00    +0.208 C 
ENDBRANCH  27  28
ENDBRANCH  25  27
ENDBRANCH  22  23
BRANCH  22  36
ATOM     36  C   UNL     1       2.272   2.393  -1.026  0.00  0.00    +0.060 C 
BRANCH  36  37
ATOM     37  C   UNL     1       0.852   2.712  -1.436  0.00  0.00    -0.046 A 
ATOM     38  C   UNL     1       0.642   3.789  -2.321  0.00  0.00    +0.004 A 
ATOM     39  C   UNL     1      -0.652   4.182  -2.671  0.00  0.00    +0.000 A 
ATOM     40  C   UNL     1      -1.749   3.511  -2.155  0.00  0.00    +0.000 A 
ATOM     41  C   UNL     1      -1.560   2.427  -1.307  0.00  0.00    +0.000 A 
ATOM     42  C   UNL     1      -0.273   2.028  -0.960  0.00  0.00    +0.004 A 
ENDBRANCH  36  37
ENDBRANCH  22  36
ENDBRANCH   1  22
TORSDOF 14
