REMARK  Name = 
REMARK  16 active torsions:
REMARK  status: ('A' for Active; 'I' for Inactive)
REMARK    1  A    between atoms: C_1  and  C_2
REMARK    2  A    between atoms: C_2  and  C_3
REMARK    3  A    between atoms: C_2  and  C_4
REMARK    4  A    between atoms: C_4  and  N_5
REMARK    5  A    between atoms: N_5  and  C_6
REMARK    6  A    between atoms: N_5  and  S_34
REMARK    7  A    between atoms: C_6  and  C_7
REMARK    8  A    between atoms: C_7  and  C_9
REMARK    9  A    between atoms: C_7  and  O_33
REMARK   10  A    between atoms: C_9  and  C_11
REMARK   11  A    between atoms: C_9  and  N_18
REMARK   12  A    between atoms: C_11  and  C_12
REMARK   13  A    between atoms: C_19  and  O_21
REMARK   14  A    between atoms: O_21  and  C_22
REMARK   15  A    between atoms: S_34  and  C_37
REMARK   16  A    between atoms: C_40  and  N_43
REMARK                            x       y       z     vdW  Elec       q    Type
REMARK                         _______ _______ _______ _____ _____    ______ ____
ROOT
ATOM      1  C   UNL     1       2.701   0.382  -2.045  0.00  0.00    +0.151 C 
ENDROOT
BRANCH   1   2
ATOM      2  O   UNL     1       1.331   0.172  -2.443  0.00  0.00    -0.389 OA
ATOM      3  H   UNL     1       1.024   0.951  -2.938  0.00  0.00    +0.210 HD
ENDBRANCH   1   2
BRANCH   1   4
ATOM      4  C   UNL     1       3.516   0.426  -3.356  0.00  0.00    +0.142 C 
BRANCH   4   5
ATOM      5  N   UNL     1       5.021   0.645  -3.371  0.00  0.00    -0.174 NA
BRANCH   5   6
ATOM      6  S   UNL     1       5.499   0.475  -5.108  0.00  0.00    +0.061 S 
ATOM      7  O   UNL     1       5.185   1.741  -5.747  0.00  0.00    -0.153 OA
ATOM      8  O   UNL     1       4.940  -0.767  -5.605  0.00  0.00    -0.153 OA
BRANCH   6   9
ATOM      9  C   UNL     1       7.257   0.265  -5.110  0.00  0.00    +0.106 A 
ATOM     10  C   UNL     1       8.074   1.104  -5.875  0.00  0.00    +0.030 A 
ATOM     11  C   UNL     1       9.458   0.890  -5.890  0.00  0.00    +0.024 A 
ATOM     12  C   UNL     1      10.030  -0.128  -5.121  0.00  0.00    +0.025 A 
ATOM     13  C   UNL     1       9.184  -1.025  -4.459  0.00  0.00    +0.024 A 
ATOM     14  C   UNL     1       7.802  -0.825  -4.437  0.00  0.00    +0.030 A 
BRANCH  12  15
ATOM     15  N   UNL     1      11.403  -0.387  -5.198  0.00  0.00    -0.358 N 
ATOM     16  H   UNL     1      11.966   0.434  -5.399  0.00  0.00    +0.142 HD
ATOM     17  H   UNL     1      11.763  -0.907  -4.404  0.00  0.00    +0.142 HD
ENDBRANCH  12  15
ENDBRANCH   6   9
ENDBRANCH   5   6
BRANCH   5  18
ATOM     18  C   UNL     1       5.516   1.989  -2.868  0.00  0.00    +0.112 C 
BRANCH  18  20
ATOM     19  C   UNL     1       6.094   1.210  -0.492  0.00  0.00    +0.008 C 
ATOM     20  C   UNL     1       5.367   2.235  -1.358  0.00  0.00    -0.001 C 
ATOM     21  C   UNL     1       5.857   3.638  -0.979  0.00  0.00    +0.008 C 
ENDBRANCH  18  20
ENDBRANCH   5  18
ENDBRANCH   4   5
ENDBRANCH   1   4
BRANCH   1  22
ATOM     22  C   UNL     1       3.070  -0.685  -0.954  0.00  0.00    +0.110 C 
BRANCH  22  23
ATOM     23  N   UNL     1       2.377  -0.367   0.322  0.00  0.00    -0.275 N 
ATOM     24  H   UNL     1       2.839   0.249   0.975  0.00  0.00    +0.152 HD
ATOM     25  C   UNL     1       1.026  -0.469   0.514  0.00  0.00    +0.401 C 
ATOM     26  O   UNL     1       0.236  -1.068  -0.194  0.00  0.00    -0.226 OA
BRANCH  25  27
ATOM     27  O   UNL     1       0.658   0.257   1.610  0.00  0.00    -0.444 OA
BRANCH  27  28
ATOM     28  C   UNL     1      -0.772   0.452   1.732  0.00  0.00    +0.212 C 
ATOM     29  C   UNL     1      -1.469  -0.784   2.246  0.00  0.00    +0.090 C 
ATOM     30  C   UNL     1      -2.964  -0.831   1.993  0.00  0.00    +0.040 C 
ATOM     31  C   UNL     1      -3.438  -1.620   3.191  0.00  0.00    +0.163 C 
ATOM     32  O   UNL     1      -2.608  -1.209   4.284  0.00  0.00    -0.351 OA
ATOM     33  C   UNL     1      -1.412  -0.632   3.750  0.00  0.00    +0.257 C 
ATOM     34  O   UNL     1      -1.335   0.767   4.042  0.00  0.00    -0.347 OA
ATOM     35  C   UNL     1      -1.064   1.477   2.823  0.00  0.00    +0.208 C 
ENDBRANCH  27  28
ENDBRANCH  25  27
ENDBRANCH  22  23
BRANCH  22  36
ATOM     36  C   UNL     1       2.873  -2.144  -1.431  0.00  0.00    +0.060 C 
BRANCH  36  37
ATOM     37  C   UNL     1       3.501  -3.298  -0.662  0.00  0.00    -0.046 A 
ATOM     38  C   UNL     1       3.420  -4.574  -1.257  0.00  0.00    +0.004 A 
ATOM     39  C   UNL     1       4.026  -5.691  -0.679  0.00  0.00    +0.000 A 
ATOM     40  C   UNL     1       4.721  -5.557   0.517  0.00  0.00    +0.000 A 
ATOM     41  C   UNL     1       4.784  -4.312   1.142  0.00  0.00    +0.000 A 
ATOM     42  C   UNL     1       4.175  -3.189   0.560  0.00  0.00    +0.004 A 
ENDBRANCH  36  37
ENDBRANCH  22  36
ENDBRANCH   1  22
TORSDOF 14
