REMARK  Name = 
REMARK  16 active torsions:
REMARK  status: ('A' for Active; 'I' for Inactive)
REMARK    1  A    between atoms: C_1  and  C_2
REMARK    2  A    between atoms: C_2  and  C_3
REMARK    3  A    between atoms: C_2  and  C_4
REMARK    4  A    between atoms: C_4  and  N_5
REMARK    5  A    between atoms: N_5  and  C_6
REMARK    6  A    between atoms: N_5  and  S_34
REMARK    7  A    between atoms: C_6  and  C_7
REMARK    8  A    between atoms: C_7  and  C_9
REMARK    9  A    between atoms: C_7  and  O_33
REMARK   10  A    between atoms: C_9  and  C_11
REMARK   11  A    between atoms: C_9  and  N_18
REMARK   12  A    between atoms: C_11  and  C_12
REMARK   13  A    between atoms: C_19  and  O_21
REMARK   14  A    between atoms: O_21  and  C_22
REMARK   15  A    between atoms: S_34  and  C_37
REMARK   16  A    between atoms: C_40  and  N_43
REMARK                            x       y       z     vdW  Elec       q    Type
REMARK                         _______ _______ _______ _____ _____    ______ ____
ROOT
ATOM      1  C   UNL     1       2.724  -0.477   1.984  0.00  0.00    +0.151 C 
ENDROOT
BRANCH   1   2
ATOM      2  O   UNL     1       1.410  -0.349   2.576  0.00  0.00    -0.389 OA
ATOM      3  H   UNL     1       1.183  -1.216   2.957  0.00  0.00    +0.210 HD
ENDBRANCH   1   2
BRANCH   1   4
ATOM      4  C   UNL     1       3.733  -0.606   3.138  0.00  0.00    +0.142 C 
BRANCH   4   5
ATOM      5  N   UNL     1       5.234  -0.659   2.881  0.00  0.00    -0.174 NA
BRANCH   5   6
ATOM      6  S   UNL     1       5.965  -0.719   4.533  0.00  0.00    +0.061 S 
ATOM      7  O   UNL     1       5.796  -2.076   5.011  0.00  0.00    -0.153 OA
ATOM      8  O   UNL     1       5.440   0.404   5.289  0.00  0.00    -0.153 OA
BRANCH   6   9
ATOM      9  C   UNL     1       7.692  -0.407   4.301  0.00  0.00    +0.106 A 
ATOM     10  C   UNL     1       8.642  -1.343   4.725  0.00  0.00    +0.030 A 
ATOM     11  C   UNL     1      10.001  -1.069   4.545  0.00  0.00    +0.024 A 
ATOM     12  C   UNL     1      10.411   0.105   3.907  0.00  0.00    +0.025 A 
ATOM     13  C   UNL     1       9.455   1.085   3.620  0.00  0.00    +0.024 A 
ATOM     14  C   UNL     1       8.094   0.827   3.796  0.00  0.00    +0.030 A 
BRANCH  12  15
ATOM     15  N   UNL     1      11.774   0.389   3.760  0.00  0.00    -0.358 N 
ATOM     16  H   UNL     1      12.352  -0.444   3.683  0.00  0.00    +0.142 HD
ATOM     17  H   UNL     1      11.964   1.045   3.007  0.00  0.00    +0.142 HD
ENDBRANCH  12  15
ENDBRANCH   6   9
ENDBRANCH   5   6
BRANCH   5  18
ATOM     18  C   UNL     1       5.749  -1.839   2.064  0.00  0.00    +0.112 C 
BRANCH  18  20
ATOM     19  C   UNL     1       5.904  -0.650  -0.218  0.00  0.00    +0.008 C 
ATOM     20  C   UNL     1       5.377  -1.849   0.568  0.00  0.00    -0.001 C 
ATOM     21  C   UNL     1       5.868  -3.131  -0.121  0.00  0.00    +0.008 C 
ENDBRANCH  18  20
ENDBRANCH   5  18
ENDBRANCH   4   5
ENDBRANCH   1   4
BRANCH   1  22
ATOM     22  C   UNL     1       2.909   0.696   0.965  0.00  0.00    +0.110 C 
BRANCH  22  23
ATOM     23  N   UNL     1       2.102   0.563  -0.284  0.00  0.00    -0.275 N 
ATOM     24  H   UNL     1       2.054   1.371  -0.891  0.00  0.00    +0.152 HD
ATOM     25  C   UNL     1       1.584  -0.580  -0.828  0.00  0.00    +0.401 C 
ATOM     26  O   UNL     1       1.579  -1.689  -0.319  0.00  0.00    -0.226 OA
BRANCH  25  27
ATOM     27  O   UNL     1       1.009  -0.312  -2.036  0.00  0.00    -0.444 OA
BRANCH  27  28
ATOM     28  C   UNL     1       0.029  -1.275  -2.478  0.00  0.00    +0.212 C 
ATOM     29  C   UNL     1      -0.620  -0.921  -3.818  0.00  0.00    +0.090 C 
ATOM     30  C   UNL     1      -0.124   0.281  -4.590  0.00  0.00    +0.040 C 
ATOM     31  C   UNL     1       0.736  -0.289  -5.703  0.00  0.00    +0.163 C 
ATOM     32  O   UNL     1       0.846  -1.695  -5.485  0.00  0.00    -0.351 OA
ATOM     33  C   UNL     1      -0.286  -2.092  -4.716  0.00  0.00    +0.257 C 
ATOM     34  O   UNL     1       0.002  -3.210  -3.897  0.00  0.00    -0.347 OA
ATOM     35  C   UNL     1       0.512  -2.717  -2.655  0.00  0.00    +0.208 C 
ENDBRANCH  27  28
ENDBRANCH  25  27
ENDBRANCH  22  23
BRANCH  22  36
ATOM     36  C   UNL     1       2.641   2.068   1.644  0.00  0.00    +0.060 C 
BRANCH  36  37
ATOM     37  C   UNL     1       2.993   3.366   0.929  0.00  0.00    -0.046 A 
ATOM     38  C   UNL     1       4.127   3.522   0.111  0.00  0.00    +0.004 A 
ATOM     39  C   UNL     1       4.468   4.784  -0.394  0.00  0.00    +0.000 A 
ATOM     40  C   UNL     1       3.696   5.906  -0.085  0.00  0.00    +0.000 A 
ATOM     41  C   UNL     1       2.575   5.768   0.722  0.00  0.00    +0.000 A 
ATOM     42  C   UNL     1       2.233   4.510   1.223  0.00  0.00    +0.004 A 
ENDBRANCH  36  37
ENDBRANCH  22  36
ENDBRANCH   1  22
TORSDOF 14
