REMARK  Name = 
REMARK  16 active torsions:
REMARK  status: ('A' for Active; 'I' for Inactive)
REMARK    1  A    between atoms: C_1  and  C_2
REMARK    2  A    between atoms: C_2  and  C_3
REMARK    3  A    between atoms: C_2  and  C_4
REMARK    4  A    between atoms: C_4  and  N_5
REMARK    5  A    between atoms: N_5  and  C_6
REMARK    6  A    between atoms: N_5  and  S_34
REMARK    7  A    between atoms: C_6  and  C_7
REMARK    8  A    between atoms: C_7  and  C_9
REMARK    9  A    between atoms: C_7  and  O_33
REMARK   10  A    between atoms: C_9  and  C_11
REMARK   11  A    between atoms: C_9  and  N_18
REMARK   12  A    between atoms: C_11  and  C_12
REMARK   13  A    between atoms: C_19  and  O_21
REMARK   14  A    between atoms: O_21  and  C_22
REMARK   15  A    between atoms: S_34  and  C_37
REMARK   16  A    between atoms: C_40  and  N_43
REMARK                            x       y       z     vdW  Elec       q    Type
REMARK                         _______ _______ _______ _____ _____    ______ ____
ROOT
ATOM      1  C   UNL     1      -0.977   1.778   2.445  0.00  0.00    +0.151 C 
ENDROOT
BRANCH   1   2
ATOM      2  O   UNL     1      -1.896   2.508   1.615  0.00  0.00    -0.389 OA
ATOM      3  H   UNL     1      -2.786   2.412   1.996  0.00  0.00    +0.210 HD
ENDBRANCH   1   2
BRANCH   1   4
ATOM      4  C   UNL     1      -0.827   2.560   3.773  0.00  0.00    +0.142 C 
BRANCH   4   5
ATOM      5  N   UNL     1       0.039   1.990   4.869  0.00  0.00    -0.174 NA
BRANCH   5   6
ATOM      6  S   UNL     1      -0.486   0.441   5.420  0.00  0.00    +0.061 S 
ATOM      7  O   UNL     1       0.103  -0.534   4.527  0.00  0.00    -0.153 OA
ATOM      8  O   UNL     1      -1.916   0.499   5.601  0.00  0.00    -0.153 OA
BRANCH   6   9
ATOM      9  C   UNL     1       0.262   0.242   7.035  0.00  0.00    +0.106 A 
ATOM     10  C   UNL     1       1.444  -0.490   7.167  0.00  0.00    +0.030 A 
ATOM     11  C   UNL     1       2.002  -0.689   8.436  0.00  0.00    +0.024 A 
ATOM     12  C   UNL     1       1.407  -0.139   9.574  0.00  0.00    +0.025 A 
ATOM     13  C   UNL     1       0.163   0.485   9.439  0.00  0.00    +0.024 A 
ATOM     14  C   UNL     1      -0.407   0.693   8.175  0.00  0.00    +0.030 A 
BRANCH  12  15
ATOM     15  N   UNL     1       1.926  -0.419  10.844  0.00  0.00    -0.358 N 
ATOM     16  H   UNL     1       2.927  -0.592  10.852  0.00  0.00    +0.142 HD
ATOM     17  H   UNL     1       1.655   0.254  11.555  0.00  0.00    +0.142 HD
ENDBRANCH  12  15
ENDBRANCH   6   9
ENDBRANCH   5   6
BRANCH   5  18
ATOM     18  C   UNL     1       1.520   2.167   4.725  0.00  0.00    +0.112 C 
BRANCH  18  20
ATOM     19  C   UNL     1       1.821   4.611   5.409  0.00  0.00    +0.008 C 
ATOM     20  C   UNL     1       1.961   3.579   4.298  0.00  0.00    -0.001 C 
ATOM     21  C   UNL     1       3.394   3.563   3.759  0.00  0.00    +0.008 C 
ENDBRANCH  18  20
ENDBRANCH   5  18
ENDBRANCH   4   5
ENDBRANCH   1   4
BRANCH   1  22
ATOM     22  C   UNL     1       0.309   1.460   1.624  0.00  0.00    +0.110 C 
BRANCH  22  23
ATOM     23  N   UNL     1       0.008   0.406   0.644  0.00  0.00    -0.275 N 
ATOM     24  H   UNL     1      -0.067  -0.545   0.977  0.00  0.00    +0.152 HD
ATOM     25  C   UNL     1      -0.601   0.625  -0.550  0.00  0.00    +0.401 C 
ATOM     26  O   UNL     1      -0.759   1.686  -1.127  0.00  0.00    -0.226 OA
BRANCH  25  27
ATOM     27  O   UNL     1      -1.065  -0.560  -1.003  0.00  0.00    -0.444 OA
BRANCH  27  28
ATOM     28  C   UNL     1      -1.895  -0.435  -2.161  0.00  0.00    +0.212 C 
ATOM     29  C   UNL     1      -2.661  -1.732  -2.306  0.00  0.00    +0.090 C 
ATOM     30  C   UNL     1      -4.103  -1.621  -1.877  0.00  0.00    +0.040 C 
ATOM     31  C   UNL     1      -4.823  -1.150  -3.128  0.00  0.00    +0.163 C 
ATOM     32  O   UNL     1      -3.894  -1.180  -4.217  0.00  0.00    -0.351 OA
ATOM     33  C   UNL     1      -2.734  -1.897  -3.796  0.00  0.00    +0.257 C 
ATOM     34  O   UNL     1      -1.541  -1.343  -4.339  0.00  0.00    -0.347 OA
ATOM     35  C   UNL     1      -1.093  -0.310  -3.450  0.00  0.00    +0.208 C 
ENDBRANCH  27  28
ENDBRANCH  25  27
ENDBRANCH  22  23
BRANCH  22  36
ATOM     36  C   UNL     1       1.048   2.661   0.972  0.00  0.00    +0.060 C 
BRANCH  36  37
ATOM     37  C   UNL     1       2.474   2.404   0.487  0.00  0.00    -0.046 A 
ATOM     38  C   UNL     1       3.197   3.470  -0.076  0.00  0.00    +0.004 A 
ATOM     39  C   UNL     1       4.488   3.278  -0.582  0.00  0.00    +0.000 A 
ATOM     40  C   UNL     1       5.080   2.019  -0.530  0.00  0.00    +0.000 A 
ATOM     41  C   UNL     1       4.393   0.960   0.051  0.00  0.00    +0.000 A 
ATOM     42  C   UNL     1       3.106   1.152   0.558  0.00  0.00    +0.004 A 
ENDBRANCH  36  37
ENDBRANCH  22  36
ENDBRANCH   1  22
TORSDOF 14
