REMARK  Name = 
REMARK  5 active torsions:
REMARK  status: ('A' for Active; 'I' for Inactive)
REMARK    1  A    between atoms: C_1  and  C_2
REMARK    2  A    between atoms: N_4  and  C_10
REMARK    3  A    between atoms: C_12  and  N_17
REMARK    4  A    between atoms: C_13  and  C_15
REMARK    5  A    between atoms: C_15  and  O_16
REMARK                            x       y       z     vdW  Elec       q    Type
REMARK                         _______ _______ _______ _____ _____    ______ ____
ROOT
ATOM      1  C   UNL     1       5.376   2.430  -0.448  0.00  0.00    +0.226 C 
ATOM      2  O   UNL     1       6.440   2.474   0.517  0.00  0.00    -0.349 OA
ATOM      3  C   UNL     1       6.680   3.858   0.848  0.00  0.00    +0.178 C 
ATOM      4  C   UNL     1       5.742   4.719  -0.013  0.00  0.00    +0.230 C 
ATOM      5  C   UNL     1       4.621   3.745  -0.310  0.00  0.00    +0.091 C 
ENDROOT
BRANCH   1  14
ATOM      6  C   UNL     1       3.367  -1.054   2.508  0.00  0.00    +0.051 C 
ATOM      7  C   UNL     1       3.586  -0.391   1.188  0.00  0.00    +0.030 A 
ATOM      8  C   UNL     1       2.873  -0.955   0.019  0.00  0.00    +0.257 A 
ATOM      9  O   UNL     1       2.120  -1.918   0.119  0.00  0.00    -0.267 OA
ATOM     10  N   UNL     1       3.094  -0.330  -1.174  0.00  0.00    -0.275 N 
ATOM     11  H   UNL     1       2.600  -0.689  -1.975  0.00  0.00    +0.173 HD
ATOM     12  C   UNL     1       3.853   0.789  -1.368  0.00  0.00    +0.331 A 
ATOM     13  O   UNL     1       3.893   1.324  -2.476  0.00  0.00    -0.246 OA
ATOM     14  N   UNL     1       4.537   1.256  -0.255  0.00  0.00    -0.274 N 
ATOM     15  C   UNL     1       4.377   0.672   0.989  0.00  0.00    +0.101 A 
ENDBRANCH   1  14
BRANCH   4  16
ATOM     16  N   UNL     1       6.385   5.135  -1.275  0.00  0.00    +0.125 NA
ATOM     17  N   UNL     1       5.915   6.154  -1.806  0.00  0.00    +0.219 NA
ATOM     18  N   UNL     1       5.462   7.183  -2.314  0.00  0.00    +0.104 NA
ATOM     19  H   UNL     1       6.176   7.647  -2.883  0.00  0.00    +0.288 HD
ENDBRANCH   4  16
BRANCH   3  20
ATOM     20  C   UNL     1       8.171   4.168   0.725  0.00  0.00    +0.189 C 
BRANCH  20  21
ATOM     21  O   UNL     1       8.453   5.518   1.075  0.00  0.00    -0.392 OA
ATOM     22  H   UNL     1       8.161   6.066   0.326  0.00  0.00    +0.210 HD
ENDBRANCH  20  21
ENDBRANCH   3  20
TORSDOF 4
