REMARK  Name = 
REMARK  5 active torsions:
REMARK  status: ('A' for Active; 'I' for Inactive)
REMARK    1  A    between atoms: C_1  and  C_2
REMARK    2  A    between atoms: N_4  and  C_10
REMARK    3  A    between atoms: C_12  and  N_17
REMARK    4  A    between atoms: C_13  and  C_15
REMARK    5  A    between atoms: C_15  and  O_16
REMARK                            x       y       z     vdW  Elec       q    Type
REMARK                         _______ _______ _______ _____ _____    ______ ____
ROOT
ATOM      1  C   UNL     1       5.411   2.590  -0.393  0.00  0.00    +0.226 C 
ATOM      2  O   UNL     1       6.469   2.630   0.577  0.00  0.00    -0.349 OA
ATOM      3  C   UNL     1       6.719   4.014   0.901  0.00  0.00    +0.178 C 
ATOM      4  C   UNL     1       5.771   4.878   0.054  0.00  0.00    +0.230 C 
ATOM      5  C   UNL     1       4.652   3.902  -0.247  0.00  0.00    +0.091 C 
ENDROOT
BRANCH   1  14
ATOM      6  C   UNL     1       3.379  -0.924   2.512  0.00  0.00    +0.051 C 
ATOM      7  C   UNL     1       3.615  -0.251   1.198  0.00  0.00    +0.030 A 
ATOM      8  C   UNL     1       2.922  -0.813   0.016  0.00  0.00    +0.257 A 
ATOM      9  O   UNL     1       2.170  -1.778   0.099  0.00  0.00    -0.267 OA
ATOM     10  N   UNL     1       3.157  -0.182  -1.169  0.00  0.00    -0.275 N 
ATOM     11  H   UNL     1       2.676  -0.536  -1.980  0.00  0.00    +0.173 HD
ATOM     12  C   UNL     1       3.909   0.949  -1.345  0.00  0.00    +0.331 A 
ATOM     13  O   UNL     1       3.953   1.497  -2.445  0.00  0.00    -0.246 OA
ATOM     14  N   UNL     1       4.575   1.410  -0.220  0.00  0.00    -0.274 N 
ATOM     15  C   UNL     1       4.403   0.817   1.018  0.00  0.00    +0.101 A 
ENDBRANCH   1  14
BRANCH   4  16
ATOM     16  N   UNL     1       6.395   5.312  -1.211  0.00  0.00    +0.125 NA
ATOM     17  N   UNL     1       5.915   6.339  -1.717  0.00  0.00    +0.219 NA
ATOM     18  N   UNL     1       5.429   7.363  -2.207  0.00  0.00    +0.104 NA
ATOM     19  H   UNL     1       5.125   7.189  -3.171  0.00  0.00    +0.288 HD
ENDBRANCH   4  16
BRANCH   3  20
ATOM     20  C   UNL     1       8.210   4.316   0.765  0.00  0.00    +0.189 C 
BRANCH  20  21
ATOM     21  O   UNL     1       8.505   5.659   1.125  0.00  0.00    -0.392 OA
ATOM     22  H   UNL     1       8.222   6.219   0.380  0.00  0.00    +0.210 HD
ENDBRANCH  20  21
ENDBRANCH   3  20
TORSDOF 4
