REMARK  Name = 
REMARK  5 active torsions:
REMARK  status: ('A' for Active; 'I' for Inactive)
REMARK    1  A    between atoms: C_3  and  N_4
REMARK    2  A    between atoms: N_4  and  C_5
REMARK    3  A    between atoms: N_12  and  C_15
REMARK    4  A    between atoms: C_17  and  C_21
REMARK    5  A    between atoms: C_21  and  O_22
REMARK                            x       y       z     vdW  Elec       q    Type
REMARK                         _______ _______ _______ _____ _____    ______ ____
ROOT
ATOM      1  C   UNL     1       2.929  -0.696   1.178  0.00  0.00    +0.152 A 
ATOM      2  N   UNL     1       3.617   0.476   1.112  0.00  0.00    -0.198 NA
ATOM      3  C   UNL     1       4.958   0.456   1.054  0.00  0.00    +0.216 A 
ATOM      4  N   UNL     1       5.581   1.688   0.984  0.00  0.00    -0.327 N 
ATOM      5  H   UNL     1       4.957   2.393   1.355  0.00  0.00    +0.145 HD
ATOM      6  H   UNL     1       6.508   1.634   1.379  0.00  0.00    +0.145 HD
ATOM      7  N   UNL     1       5.751  -0.626   1.089  0.00  0.00    -0.195 NA
ATOM      8  C   UNL     1       5.045  -1.765   1.145  0.00  0.00    +0.168 A 
ATOM      9  N   UNL     1       5.518  -3.056   1.184  0.00  0.00    -0.308 N 
ATOM     10  C   UNL     1       4.423  -3.880   1.165  0.00  0.00    +0.202 A 
ATOM     11  N   UNL     1       3.291  -3.210   1.193  0.00  0.00    -0.231 NA
ATOM     12  C   UNL     1       3.670  -1.887   1.184  0.00  0.00    +0.148 A 
ENDROOT
BRANCH   9  13
ATOM     13  C   UNL     1       6.924  -3.419   1.214  0.00  0.00    +0.113 C 
ATOM     14  C   UNL     1       7.575  -2.967   2.493  0.00  0.00    -0.006 C 
ATOM     15  C   UNL     1       7.882  -3.985   3.303  0.00  0.00    -0.023 C 
ATOM     16  C   UNL     1       7.518  -5.311   2.702  0.00  0.00    +0.039 C 
ATOM     17  C   UNL     1       7.271  -4.924   1.228  0.00  0.00    +0.039 C 
BRANCH  16  18
ATOM     18  C   UNL     1       6.299  -5.959   3.366  0.00  0.00    +0.163 C 
BRANCH  18  19
ATOM     19  O   UNL     1       6.595  -6.326   4.709  0.00  0.00    -0.394 OA
ATOM     20  H   UNL     1       6.570  -5.508   5.238  0.00  0.00    +0.209 HD
ENDBRANCH  18  19
ENDBRANCH  16  18
ENDBRANCH   9  13
BRANCH   1  21
ATOM     21  N   UNL     1       1.520  -0.719   1.205  0.00  0.00    -0.324 N 
ATOM     22  H   UNL     1       1.196  -1.671   1.037  0.00  0.00    +0.148 HD
BRANCH  21  24
ATOM     23  C   UNL     1       0.133   1.439   1.428  0.00  0.00    +0.024 C 
ATOM     24  C   UNL     1       0.798   0.386   0.588  0.00  0.00    +0.072 C 
ATOM     25  C   UNL     1      -0.701   0.449   0.669  0.00  0.00    +0.024 C 
ENDBRANCH  21  24
ENDBRANCH   1  21
TORSDOF 5
