REMARK  Name = 
REMARK  8 active torsions:
REMARK  status: ('A' for Active; 'I' for Inactive)
REMARK    1  A    between atoms: C_1  and  C_2
REMARK    2  A    between atoms: C_2  and  C_3
REMARK    3  A    between atoms: C_2  and  N_4
REMARK    4  A    between atoms: N_13  and  C1*_14
REMARK    5  A    between atoms: C2*_16  and  O2*_26
REMARK    6  A    between atoms: C3*_18  and  O3*_25
REMARK    7  A    between atoms: C4*_20  and  C5*_23
REMARK    8  A    between atoms: C5*_23  and  O5*_24
REMARK                            x       y       z     vdW  Elec       q    Type
REMARK                         _______ _______ _______ _____ _____    ______ ____
ROOT
ATOM      1  N   UNL     1       3.088  -0.965  -1.258  0.00  0.00    -0.312 N 
ATOM      2  H   UNL     1       2.750  -1.232  -0.336  0.00  0.00    +0.149 HD
ATOM      3  C   UNL     1       4.430  -1.058  -1.423  0.00  0.00    +0.199 A 
ATOM      4  N   UNL     1       5.062  -2.285  -1.505  0.00  0.00    -0.283 N 
ATOM      5  C   UNL     1       6.404  -2.046  -1.733  0.00  0.00    +0.074 A 
ATOM      6  C   UNL     1       6.505  -0.656  -1.722  0.00  0.00    +0.092 A 
ATOM      7  C   UNL     1       7.752  -0.035  -1.884  0.00  0.00    +0.051 A 
ATOM      8  C   UNL     1       8.882  -0.836  -2.077  0.00  0.00    +0.061 A 
ATOM      9 CL   UNL     1      10.399  -0.027  -2.275  0.00  0.00    -0.082 Cl
ATOM     10  C   UNL     1       8.765  -2.231  -2.110  0.00  0.00    +0.061 A 
ATOM     11 CL   UNL     1      10.139  -3.256  -2.366  0.00  0.00    -0.082 Cl
ATOM     12  C   UNL     1       7.524  -2.865  -1.934  0.00  0.00    +0.049 A 
ATOM     13  N   UNL     1       5.282  -0.073  -1.552  0.00  0.00    -0.214 NA
ENDROOT
BRANCH   4  14
ATOM     14  C1* UNL     1       4.365  -3.556  -1.403  0.00  0.00    +0.254 C 
ATOM     15  O4* UNL     1       5.224  -4.566  -0.821  0.00  0.00    -0.346 OA
ATOM     16  C4* UNL     1       4.879  -5.835  -1.430  0.00  0.00    +0.177 C 
ATOM     17  C3* UNL     1       3.665  -5.591  -2.324  0.00  0.00    +0.178 C 
ATOM     18  C2* UNL     1       3.861  -4.134  -2.729  0.00  0.00    +0.195 C 
BRANCH  17  19
ATOM     19  O3* UNL     1       3.609  -6.501  -3.414  0.00  0.00    -0.386 OA
ATOM     20  H3* UNL     1       4.115  -6.141  -4.164  0.00  0.00    +0.210 HD
ENDBRANCH  17  19
BRANCH  18  21
ATOM     21  O2* UNL     1       2.660  -3.566  -3.236  0.00  0.00    -0.385 OA
ATOM     22  H2* UNL     1       1.969  -3.599  -2.550  0.00  0.00    +0.210 HD
ENDBRANCH  18  21
BRANCH  16  23
ATOM     23  C5* UNL     1       4.604  -6.858  -0.330  0.00  0.00    +0.190 C 
BRANCH  23  24
ATOM     24  O5* UNL     1       3.597  -6.369   0.556  0.00  0.00    -0.392 OA
ATOM     25  H5* UNL     1       3.993  -5.602   1.008  0.00  0.00    +0.210 HD
ENDBRANCH  23  24
ENDBRANCH  16  23
ENDBRANCH   4  14
BRANCH   1  27
ATOM     26  C   UNL     1       1.017  -0.045  -2.114  0.00  0.00    +0.027 C 
ATOM     27  C   UNL     1       2.450   0.283  -1.702  0.00  0.00    +0.067 C 
ATOM     28  C   UNL     1       2.460   1.331  -0.591  0.00  0.00    +0.027 C 
ENDBRANCH   1  27
TORSDOF 6
