REMARK  Name = 
REMARK  27 active torsions:
REMARK  status: ('A' for Active; 'I' for Inactive)
REMARK    1  A    between atoms: C_1  and  C_2
REMARK    2  A    between atoms: C_2  and  C_4
REMARK    3  A    between atoms: C_2  and  O_15
REMARK    4  A    between atoms: C_4  and  N_5
REMARK    5  A    between atoms: C_9  and  N_14
REMARK    6  A    between atoms: O_15  and  C_16
REMARK    7  A    between atoms: C_16  and  P_17
REMARK    8  A    between atoms: P_17  and  O_19
REMARK    9  A    between atoms: P_17  and  O_28
REMARK   10  A    between atoms: O_19  and  C_20
REMARK   11  A    between atoms: C_20  and  O_21
REMARK   12  A    between atoms: O_21  and  C_22
REMARK   13  A    between atoms: C_22  and  O_24
REMARK   14  A    between atoms: O_24  and  C_25
REMARK   15  A    between atoms: C_25  and  C_26
REMARK   16  A    between atoms: C_25  and  C_27
REMARK   17  A    between atoms: O_28  and  C_29
REMARK   18  A    between atoms: C_29  and  O_30
REMARK   19  A    between atoms: O_30  and  C_31
REMARK   20  A    between atoms: C_31  and  O_33
REMARK   21  A    between atoms: O_33  and  C_34
REMARK   22  A    between atoms: C_34  and  C_35
REMARK   23  A    between atoms: C_34  and  C_36
REMARK   24  A    between atoms: C_37  and  C_42
REMARK   25  A    between atoms: C_38  and  C_39
REMARK   26  A    between atoms: C_39  and  O_41
REMARK   27  A    between atoms: C_42  and  O_44
REMARK                            x       y       z     vdW  Elec       q    Type
REMARK                         _______ _______ _______ _____ _____    ______ ____
ROOT
ATOM      1  P   UNL     1       4.987   1.495  -2.637  0.00  0.00    +0.364 P 
ATOM      2  O   UNL     1       6.345   1.714  -1.950  0.00  0.00    -0.256 OA
ENDROOT
BRANCH   1   3
ATOM      3  O   UNL     1       5.564   2.259  -4.079  0.00  0.00    -0.268 OA
BRANCH   3   4
ATOM      4  C   UNL     1       4.807   3.448  -4.314  0.00  0.00    +0.410 C 
BRANCH   4   5
ATOM      5  O   UNL     1       3.385   3.235  -4.456  0.00  0.00    -0.406 OA
BRANCH   5   6
ATOM      6  C   UNL     1       2.639   3.383  -3.324  0.00  0.00    +0.512 C 
ATOM      7  O   UNL     1       3.118   3.592  -2.218  0.00  0.00    -0.203 OA
BRANCH   6   8
ATOM      8  O   UNL     1       1.322   3.157  -3.591  0.00  0.00    -0.431 OA
BRANCH   8   9
ATOM      9  C   UNL     1       0.411   3.228  -2.465  0.00  0.00    +0.174 C 
ATOM     10  C   UNL     1      -0.698   2.185  -2.585  0.00  0.00    +0.052 C 
ATOM     11  C   UNL     1      -0.279   4.586  -2.453  0.00  0.00    +0.052 C 
ENDBRANCH   8   9
ENDBRANCH   6   8
ENDBRANCH   5   6
ENDBRANCH   4   5
ENDBRANCH   3   4
ENDBRANCH   1   3
BRANCH   1  12
ATOM     12  O   UNL     1       5.111   0.065  -3.471  0.00  0.00    -0.268 OA
BRANCH  12  13
ATOM     13  C   UNL     1       5.900  -0.194  -4.634  0.00  0.00    +0.410 C 
BRANCH  13  14
ATOM     14  O   UNL     1       5.809   0.620  -5.839  0.00  0.00    -0.406 OA
BRANCH  14  15
ATOM     15  C   UNL     1       4.666   0.628  -6.567  0.00  0.00    +0.512 C 
ATOM     16  O   UNL     1       3.639   0.057  -6.259  0.00  0.00    -0.203 OA
BRANCH  15  17
ATOM     17  O   UNL     1       4.840   1.412  -7.676  0.00  0.00    -0.431 OA
BRANCH  17  18
ATOM     18  C   UNL     1       3.678   1.648  -8.507  0.00  0.00    +0.174 C 
ATOM     19  C   UNL     1       3.920   1.136  -9.928  0.00  0.00    +0.052 C 
ATOM     20  C   UNL     1       3.410   3.149  -8.542  0.00  0.00    +0.052 C 
ENDBRANCH  17  18
ENDBRANCH  15  17
ENDBRANCH  14  15
ENDBRANCH  13  14
ENDBRANCH  12  13
ENDBRANCH   1  12
BRANCH   1  21
ATOM     21  C   UNL     1       4.377   0.688  -1.113  0.00  0.00    +0.287 C 
BRANCH  21  22
ATOM     22  O   UNL     1       3.038   0.188  -1.340  0.00  0.00    -0.363 OA
BRANCH  22  24
ATOM     23  C   UNL     1       1.313  -0.648  -2.622  0.00  0.00    +0.040 C 
ATOM     24  C   UNL     1       2.794  -0.798  -2.390  0.00  0.00    +0.136 C 
BRANCH  24  25
ATOM     25  C   UNL     1       3.334  -2.197  -2.035  0.00  0.00    +0.156 C 
BRANCH  25  26
ATOM     26  N   UNL     1       3.103  -3.384  -2.845  0.00  0.00    -0.312 N 
ATOM     27  C   UNL     1       2.759  -3.541  -4.156  0.00  0.00    +0.165 A 
ATOM     28  C   UNL     1       2.778  -4.915  -4.389  0.00  0.00    +0.147 A 
ATOM     29  C   UNL     1       2.433  -5.364  -5.683  0.00  0.00    +0.147 A 
ATOM     30  N   UNL     1       2.156  -4.435  -6.623  0.00  0.00    -0.219 NA
ATOM     31  C   UNL     1       2.182  -3.125  -6.261  0.00  0.00    +0.225 A 
ATOM     32  N   UNL     1       3.171  -5.594  -3.255  0.00  0.00    -0.231 NA
ATOM     33  N   UNL     1       2.475  -2.592  -5.058  0.00  0.00    -0.216 NA
ATOM     34  C   UNL     1       3.366  -4.652  -2.357  0.00  0.00    +0.201 A 
BRANCH  29  35
ATOM     35  N   UNL     1       2.359  -6.696  -6.068  0.00  0.00    -0.341 N 
ATOM     36  H   UNL     1       2.353  -6.811  -7.076  0.00  0.00    +0.144 HD
ATOM     37  H   UNL     1       2.916  -7.337  -5.520  0.00  0.00    +0.144 HD
ENDBRANCH  29  35
ENDBRANCH  25  26
ENDBRANCH  24  25
ENDBRANCH  22  24
ENDBRANCH  21  22
ENDBRANCH   1  21
TORSDOF 18
REMARK  Name = 
REMARK  27 active torsions:
REMARK  status: ('A' for Active; 'I' for Inactive)
REMARK    1  A    between atoms: C_1  and  C_2
REMARK    2  A    between atoms: C_2  and  C_4
REMARK    3  A    between atoms: C_2  and  O_15
REMARK    4  A    between atoms: C_4  and  N_5
REMARK    5  A    between atoms: C_9  and  N_14
REMARK    6  A    between atoms: O_15  and  C_16
REMARK    7  A    between atoms: C_16  and  P_17
REMARK    8  A    between atoms: P_17  and  O_19
REMARK    9  A    between atoms: P_17  and  O_28
REMARK   10  A    between atoms: O_19  and  C_20
REMARK   11  A    between atoms: C_20  and  O_21
REMARK   12  A    between atoms: O_21  and  C_22
REMARK   13  A    between atoms: C_22  and  O_24
REMARK   14  A    between atoms: O_24  and  C_25
REMARK   15  A    between atoms: C_25  and  C_26
REMARK   16  A    between atoms: C_25  and  C_27
REMARK   17  A    between atoms: O_28  and  C_29
REMARK   18  A    between atoms: C_29  and  O_30
REMARK   19  A    between atoms: O_30  and  C_31
REMARK   20  A    between atoms: C_31  and  O_33
REMARK   21  A    between atoms: O_33  and  C_34
REMARK   22  A    between atoms: C_34  and  C_35
REMARK   23  A    between atoms: C_34  and  C_36
REMARK   24  A    between atoms: C_37  and  C_42
REMARK   25  A    between atoms: C_38  and  C_39
REMARK   26  A    between atoms: C_39  and  O_41
REMARK   27  A    between atoms: C_42  and  O_44
REMARK                            x       y       z     vdW  Elec       q    Type
REMARK                         _______ _______ _______ _____ _____    ______ ____
ROOT
ATOM      1  C   UNL     1       1.243  -0.216   1.906  0.00  0.00    +0.098 C 
ATOM      2  C   UNL     1       0.543  -1.152   1.252  0.00  0.00    +0.098 C 
ENDROOT
BRANCH   1   3
ATOM      3  C   UNL     1       2.707  -0.137   1.944  0.00  0.00    +0.330 C 
ATOM      4  O   UNL     1       3.313   0.800   2.432  0.00  0.00    -0.246 OA
BRANCH   3   5
ATOM      5  O   UNL     1       3.347  -1.199   1.440  0.00  0.00    -0.478 OA
ATOM      6  H   UNL     1       4.291  -0.975   1.595  0.00  0.00    +0.295 HD
ENDBRANCH   3   5
ENDBRANCH   1   3
BRANCH   2   7
ATOM      7  C   UNL     1      -0.926  -1.273   1.236  0.00  0.00    +0.330 C 
ATOM      8  O   UNL     1      -1.470  -2.277   0.806  0.00  0.00    -0.246 OA
BRANCH   7   9
ATOM      9  O   UNL     1      -1.621  -0.217   1.699  0.00  0.00    -0.478 OA
ATOM     10  H   UNL     1      -1.118   0.585   1.915  0.00  0.00    +0.295 HD
ENDBRANCH   7   9
ENDBRANCH   2   7
TORSDOF 4
