REMARK  Name = 
REMARK  27 active torsions:
REMARK  status: ('A' for Active; 'I' for Inactive)
REMARK    1  A    between atoms: C_1  and  C_2
REMARK    2  A    between atoms: C_2  and  C_4
REMARK    3  A    between atoms: C_2  and  O_15
REMARK    4  A    between atoms: C_4  and  N_5
REMARK    5  A    between atoms: C_9  and  N_14
REMARK    6  A    between atoms: O_15  and  C_16
REMARK    7  A    between atoms: C_16  and  P_17
REMARK    8  A    between atoms: P_17  and  O_19
REMARK    9  A    between atoms: P_17  and  O_28
REMARK   10  A    between atoms: O_19  and  C_20
REMARK   11  A    between atoms: C_20  and  O_21
REMARK   12  A    between atoms: O_21  and  C_22
REMARK   13  A    between atoms: C_22  and  O_24
REMARK   14  A    between atoms: O_24  and  C_25
REMARK   15  A    between atoms: C_25  and  C_26
REMARK   16  A    between atoms: C_25  and  C_27
REMARK   17  A    between atoms: O_28  and  C_29
REMARK   18  A    between atoms: C_29  and  O_30
REMARK   19  A    between atoms: O_30  and  C_31
REMARK   20  A    between atoms: C_31  and  O_33
REMARK   21  A    between atoms: O_33  and  C_34
REMARK   22  A    between atoms: C_34  and  C_35
REMARK   23  A    between atoms: C_34  and  C_36
REMARK   24  A    between atoms: C_37  and  C_42
REMARK   25  A    between atoms: C_38  and  C_39
REMARK   26  A    between atoms: C_39  and  O_41
REMARK   27  A    between atoms: C_42  and  O_44
REMARK                            x       y       z     vdW  Elec       q    Type
REMARK                         _______ _______ _______ _____ _____    ______ ____
ROOT
ATOM      1  P   UNL     1       4.515  -1.837  -2.471  0.00  0.00    +0.364 P 
ATOM      2  O   UNL     1       3.505  -1.046  -3.238  0.00  0.00    -0.256 OA
ENDROOT
BRANCH   1   3
ATOM      3  O   UNL     1       4.409  -3.425  -2.736  0.00  0.00    -0.268 OA
BRANCH   3   4
ATOM      4  C   UNL     1       5.523  -4.233  -2.416  0.00  0.00    +0.410 C 
BRANCH   4   5
ATOM      5  O   UNL     1       5.399  -5.552  -2.934  0.00  0.00    -0.406 OA
BRANCH   5   6
ATOM      6  C   UNL     1       4.687  -6.358  -2.117  0.00  0.00    +0.512 C 
ATOM      7  O   UNL     1       4.064  -5.993  -1.134  0.00  0.00    -0.203 OA
BRANCH   6   8
ATOM      8  O   UNL     1       4.837  -7.634  -2.538  0.00  0.00    -0.431 OA
BRANCH   8   9
ATOM      9  C   UNL     1       4.165  -8.608  -1.727  0.00  0.00    +0.174 C 
ATOM     10  C   UNL     1       4.918  -9.927  -1.828  0.00  0.00    +0.052 C 
ATOM     11  C   UNL     1       2.731  -8.748  -2.219  0.00  0.00    +0.052 C 
ENDBRANCH   8   9
ENDBRANCH   6   8
ENDBRANCH   5   6
ENDBRANCH   4   5
ENDBRANCH   3   4
ENDBRANCH   1   3
BRANCH   1  12
ATOM     12  O   UNL     1       6.028  -1.519  -2.941  0.00  0.00    -0.268 OA
BRANCH  12  13
ATOM     13  C   UNL     1       6.231  -1.542  -4.347  0.00  0.00    +0.410 C 
BRANCH  13  14
ATOM     14  O   UNL     1       7.611  -1.371  -4.679  0.00  0.00    -0.406 OA
BRANCH  14  15
ATOM     15  C   UNL     1       8.011  -0.082  -4.540  0.00  0.00    +0.512 C 
ATOM     16  O   UNL     1       7.309   0.831  -4.144  0.00  0.00    -0.203 OA
BRANCH  15  17
ATOM     17  O   UNL     1       9.306   0.010  -4.922  0.00  0.00    -0.431 OA
BRANCH  17  18
ATOM     18  C   UNL     1       9.880   1.312  -4.709  0.00  0.00    +0.174 C 
ATOM     19  C   UNL     1      11.034   1.501  -5.683  0.00  0.00    +0.052 C 
ATOM     20  C   UNL     1      10.356   1.401  -3.263  0.00  0.00    +0.052 C 
ENDBRANCH  17  18
ENDBRANCH  15  17
ENDBRANCH  14  15
ENDBRANCH  13  14
ENDBRANCH  12  13
ENDBRANCH   1  12
BRANCH   1  21
ATOM     21  C   UNL     1       4.467  -1.556  -0.670  0.00  0.00    +0.287 C 
BRANCH  21  22
ATOM     22  O   UNL     1       3.142  -1.132  -0.239  0.00  0.00    -0.363 OA
BRANCH  22  24
ATOM     23  C   UNL     1       1.491  -1.231   1.544  0.00  0.00    +0.040 C 
ATOM     24  C   UNL     1       2.976  -1.092   1.203  0.00  0.00    +0.136 C 
BRANCH  24  25
ATOM     25  C   UNL     1       3.439   0.241   1.824  0.00  0.00    +0.156 C 
BRANCH  25  26
ATOM     26  N   UNL     1       4.842   0.248   2.160  0.00  0.00    -0.312 N 
ATOM     27  C   UNL     1       5.806   1.004   1.564  0.00  0.00    +0.165 A 
ATOM     28  C   UNL     1       6.974   0.671   2.225  0.00  0.00    +0.147 A 
ATOM     29  C   UNL     1       8.141   1.317   1.791  0.00  0.00    +0.147 A 
ATOM     30  N   UNL     1       8.049   2.206   0.775  0.00  0.00    -0.219 NA
ATOM     31  C   UNL     1       6.834   2.439   0.230  0.00  0.00    +0.225 A 
ATOM     32  N   UNL     1       6.731  -0.276   3.202  0.00  0.00    -0.231 NA
ATOM     33  N   UNL     1       5.656   1.867   0.548  0.00  0.00    -0.216 NA
ATOM     34  C   UNL     1       5.429  -0.467   3.168  0.00  0.00    +0.201 A 
BRANCH  29  35
ATOM     35  N   UNL     1       9.391   1.072   2.341  0.00  0.00    -0.341 N 
ATOM     36  H   UNL     1      10.141   1.344   1.720  0.00  0.00    +0.144 HD
ATOM     37  H   UNL     1       9.459   0.174   2.806  0.00  0.00    +0.144 HD
ENDBRANCH  29  35
ENDBRANCH  25  26
ENDBRANCH  24  25
ENDBRANCH  22  24
ENDBRANCH  21  22
ENDBRANCH   1  21
TORSDOF 18
REMARK  Name = 
REMARK  27 active torsions:
REMARK  status: ('A' for Active; 'I' for Inactive)
REMARK    1  A    between atoms: C_1  and  C_2
REMARK    2  A    between atoms: C_2  and  C_4
REMARK    3  A    between atoms: C_2  and  O_15
REMARK    4  A    between atoms: C_4  and  N_5
REMARK    5  A    between atoms: C_9  and  N_14
REMARK    6  A    between atoms: O_15  and  C_16
REMARK    7  A    between atoms: C_16  and  P_17
REMARK    8  A    between atoms: P_17  and  O_19
REMARK    9  A    between atoms: P_17  and  O_28
REMARK   10  A    between atoms: O_19  and  C_20
REMARK   11  A    between atoms: C_20  and  O_21
REMARK   12  A    between atoms: O_21  and  C_22
REMARK   13  A    between atoms: C_22  and  O_24
REMARK   14  A    between atoms: O_24  and  C_25
REMARK   15  A    between atoms: C_25  and  C_26
REMARK   16  A    between atoms: C_25  and  C_27
REMARK   17  A    between atoms: O_28  and  C_29
REMARK   18  A    between atoms: C_29  and  O_30
REMARK   19  A    between atoms: O_30  and  C_31
REMARK   20  A    between atoms: C_31  and  O_33
REMARK   21  A    between atoms: O_33  and  C_34
REMARK   22  A    between atoms: C_34  and  C_35
REMARK   23  A    between atoms: C_34  and  C_36
REMARK   24  A    between atoms: C_37  and  C_42
REMARK   25  A    between atoms: C_38  and  C_39
REMARK   26  A    between atoms: C_39  and  O_41
REMARK   27  A    between atoms: C_42  and  O_44
REMARK                            x       y       z     vdW  Elec       q    Type
REMARK                         _______ _______ _______ _____ _____    ______ ____
ROOT
ATOM      1  C   UNL     1       0.108   0.513  -1.425  0.00  0.00    +0.098 C 
ATOM      2  C   UNL     1      -0.310   1.129  -0.312  0.00  0.00    +0.098 C 
ENDROOT
BRANCH   1   3
ATOM      3  C   UNL     1       1.302   0.949  -2.145  0.00  0.00    +0.330 C 
ATOM      4  O   UNL     1       1.409   0.861  -3.352  0.00  0.00    -0.246 OA
BRANCH   3   5
ATOM      5  O   UNL     1       2.254   1.350  -1.290  0.00  0.00    -0.478 OA
ATOM      6  H   UNL     1       2.914   0.623  -1.280  0.00  0.00    +0.295 HD
ENDBRANCH   3   5
ENDBRANCH   1   3
BRANCH   2   7
ATOM      7  C   UNL     1      -1.503   0.666   0.404  0.00  0.00    +0.330 C 
ATOM      8  O   UNL     1      -1.584   0.689   1.620  0.00  0.00    -0.246 OA
BRANCH   7   9
ATOM      9  O   UNL     1      -2.487   0.232  -0.405  0.00  0.00    -0.478 OA
ATOM     10  H   UNL     1      -2.348   0.423  -1.352  0.00  0.00    +0.295 HD
ENDBRANCH   7   9
ENDBRANCH   2   7
TORSDOF 4
