REMARK  Name = 
REMARK  3 active torsions:
REMARK  status: ('A' for Active; 'I' for Inactive)
REMARK    1  A    between atoms: C_3  and  C_4
REMARK    2  A    between atoms: C_5  and  C_6
REMARK    3  A    between atoms: C_6  and  C_18
REMARK                            x       y       z     vdW  Elec       q    Type
REMARK                         _______ _______ _______ _____ _____    ______ ____
ROOT
ATOM      1  C   UNL     1       2.990  -1.600   3.547  0.00  0.00    +0.296 C 
ATOM      2  O   UNL     1       3.883  -0.483   3.818  0.00  0.00    -0.417 OA
ATOM      3  C   UNL     1       5.123  -0.402   3.297  0.00  0.00    +0.407 C 
ATOM      4  O   UNL     1       5.730   0.660   3.230  0.00  0.00    -0.226 OA
ATOM      5  N   UNL     1       5.711  -1.569   2.917  0.00  0.00    -0.251 N 
ATOM      6  H   UNL     1       6.672  -1.475   2.617  0.00  0.00    +0.158 HD
ATOM      7  C   UNL     1       5.101  -2.812   2.953  0.00  0.00    +0.045 A 
ATOM      8  C   UNL     1       5.851  -3.953   2.659  0.00  0.00    +0.025 A 
ATOM      9  C   UNL     1       5.233  -5.201   2.646  0.00  0.00    +0.022 A 
ATOM     10  C   UNL     1       3.867  -5.293   2.896  0.00  0.00    +0.042 A 
ATOM     11 CL   UNL     1       3.091  -6.827   2.846  0.00  0.00    -0.084 Cl
ATOM     12  C   UNL     1       3.120  -4.147   3.182  0.00  0.00    +0.030 A 
ATOM     13  C   UNL     1       3.743  -2.887   3.250  0.00  0.00    +0.040 A 
ENDROOT
BRANCH   1  14
ATOM     14  C   UNL     1       2.027  -1.704   4.783  0.00  0.00    +0.446 C 
ATOM     15  F   UNL     1       2.340  -0.807   5.754  0.00  0.00    -0.165 F 
ATOM     16  F   UNL     1       2.057  -2.921   5.384  0.00  0.00    -0.165 F 
ATOM     17  F   UNL     1       0.728  -1.478   4.457  0.00  0.00    -0.165 F 
ENDBRANCH   1  14
BRANCH   1  19
ATOM     18  C   UNL     1       1.553  -0.831   1.241  0.00  0.00    -0.094 C 
ATOM     19  C   UNL     1       2.216  -1.186   2.306  0.00  0.00    -0.041 C 
BRANCH  18  21
ATOM     20  C   UNL     1       0.032   0.836   0.108  0.00  0.00    +0.017 C 
ATOM     21  C   UNL     1       0.860  -0.421   0.057  0.00  0.00    +0.064 C 
ATOM     22  C   UNL     1      -0.643  -0.502   0.027  0.00  0.00    +0.017 C 
ENDBRANCH  18  21
ENDBRANCH   1  19
TORSDOF 3
