REMARK  Name = 
REMARK  16 active torsions:
REMARK  status: ('A' for Active; 'I' for Inactive)
REMARK    1  A    between atoms: C_1  and  C_2
REMARK    2  A    between atoms: C_3  and  C_9
REMARK    3  A    between atoms: C_7  and  O_8
REMARK    4  A    between atoms: N_11  and  C_12
REMARK    5  A    between atoms: C_12  and  C_14
REMARK    6  A    between atoms: C_12  and  C_22
REMARK    7  A    between atoms: C_14  and  S_15
REMARK    8  A    between atoms: S_15  and  C_16
REMARK    9  A    between atoms: C_22  and  C_24
REMARK   10  A    between atoms: C_22  and  O_45
REMARK   11  A    between atoms: C_24  and  N_25
REMARK   12  A    between atoms: C_36  and  C_38
REMARK   13  A    between atoms: N_40  and  C_41
REMARK   14  A    between atoms: C_41  and  C_42
REMARK   15  A    between atoms: C_41  and  C_43
REMARK   16  A    between atoms: C_41  and  C_44
REMARK                            x       y       z     vdW  Elec       q    Type
REMARK                         _______ _______ _______ _____ _____    ______ ____
ROOT
ATOM      1  C   UNL     1      -0.571   2.787  -1.429  0.00  0.00    +0.113 C 
ENDROOT
BRANCH   1   3
ATOM      2  C   UNL     1      -1.232   0.895  -2.951  0.00  0.00    +0.245 C 
ATOM      3  N   UNL     1      -1.574   1.950  -2.136  0.00  0.00    -0.305 N 
ATOM      4  H   UNL     1      -2.555   2.114  -1.951  0.00  0.00    +0.149 HD
ATOM      5  O   UNL     1      -0.072   0.590  -3.202  0.00  0.00    -0.270 OA
BRANCH   2  12
ATOM      6  C   UNL     1      -3.873   1.961  -4.266  0.00  0.00    +0.048 C 
ATOM      7  C   UNL     1      -3.564   0.513  -4.001  0.00  0.00    +0.003 A 
ATOM      8  C   UNL     1      -4.532  -0.440  -4.382  0.00  0.00    +0.120 A 
ATOM      9  C   UNL     1      -4.318  -1.810  -4.252  0.00  0.00    +0.046 A 
ATOM     10  C   UNL     1      -3.108  -2.265  -3.743  0.00  0.00    +0.004 A 
ATOM     11  C   UNL     1      -2.134  -1.346  -3.349  0.00  0.00    +0.013 A 
ATOM     12  C   UNL     1      -2.355   0.041  -3.451  0.00  0.00    +0.043 A 
BRANCH   8  13
ATOM     13  O   UNL     1      -5.716   0.007  -4.908  0.00  0.00    -0.506 OA
ATOM     14  H   UNL     1      -6.263  -0.759  -5.153  0.00  0.00    +0.292 HD
ENDBRANCH   8  13
ENDBRANCH   2  12
ENDBRANCH   1   3
BRANCH   1  15
ATOM     15  C   UNL     1      -1.246   3.421  -0.163  0.00  0.00    +0.149 C 
BRANCH  15  16
ATOM     16  O   UNL     1      -0.534   4.490   0.460  0.00  0.00    -0.389 OA
ATOM     17  H   UNL     1       0.139   4.838  -0.152  0.00  0.00    +0.210 HD
ENDBRANCH  15  16
BRANCH  15  18
ATOM     18  C   UNL     1      -1.669   2.361   0.921  0.00  0.00    +0.118 C 
BRANCH  18  19
ATOM     19  N   UNL     1      -0.624   1.482   1.491  0.00  0.00    -0.289 NA
ATOM     20  C   UNL     1      -1.121   0.447   2.452  0.00  0.00    +0.143 C 
ATOM     21  C   UNL     1      -1.310   0.946   3.900  0.00  0.00    +0.032 C 
ATOM     22  C   UNL     1      -0.068   1.645   4.456  0.00  0.00    -0.005 C 
ATOM     23  C   UNL     1       0.355   2.774   3.521  0.00  0.00    +0.006 C 
ATOM     24  C   UNL     1      -0.493   4.055   3.667  0.00  0.00    +0.005 C 
ATOM     25  C   UNL     1      -1.494   4.169   4.827  0.00  0.00    +0.000 C 
ATOM     26  C   UNL     1      -1.415   3.160   5.968  0.00  0.00    +0.000 C 
ATOM     27  C   UNL     1      -0.251   2.193   5.871  0.00  0.00    +0.004 C 
ATOM     28  C   UNL     1       0.519   2.206   2.086  0.00  0.00    +0.089 C 
BRANCH  20  29
ATOM     29  C   UNL     1      -2.450  -0.229   2.023  0.00  0.00    +0.231 C 
ATOM     30  N   UNL     1      -2.323  -1.355   1.231  0.00  0.00    -0.309 N 
ATOM     31  H   UNL     1      -1.409  -1.546   0.837  0.00  0.00    +0.149 HD
ATOM     32  O   UNL     1      -3.543   0.194   2.400  0.00  0.00    -0.274 OA
BRANCH  30  33
ATOM     33  C   UNL     1      -3.443  -2.266   0.920  0.00  0.00    +0.026 C 
ATOM     34  C   UNL     1      -3.998  -2.900   2.210  0.00  0.00    +0.031 C 
ATOM     35  C   UNL     1      -2.933  -3.413   0.027  0.00  0.00    +0.031 C 
ATOM     36  C   UNL     1      -4.572  -1.538   0.169  0.00  0.00    +0.031 C 
ENDBRANCH  30  33
ENDBRANCH  20  29
ENDBRANCH  18  19
ENDBRANCH  15  18
ENDBRANCH   1  15
BRANCH   1  37
ATOM     37  C   UNL     1       0.027   3.826  -2.424  0.00  0.00    +0.099 C 
BRANCH  37  38
ATOM     38  S   UNL     1       1.435   4.796  -1.741  0.00  0.00    -0.123 S 
BRANCH  38  39
ATOM     39  C   UNL     1       1.710   5.962  -3.062  0.00  0.00    +0.008 A 
ATOM     40  C   UNL     1       2.235   5.529  -4.283  0.00  0.00    +0.015 A 
ATOM     41  C   UNL     1       2.505   6.447  -5.304  0.00  0.00    +0.001 A 
ATOM     42  C   UNL     1       2.253   7.805  -5.098  0.00  0.00    +0.000 A 
ATOM     43  C   UNL     1       1.740   8.247  -3.877  0.00  0.00    +0.001 A 
ATOM     44  C   UNL     1       1.475   7.326  -2.860  0.00  0.00    +0.015 A 
ENDBRANCH  38  39
ENDBRANCH  37  38
ENDBRANCH   1  37
TORSDOF 12
