REMARK  Name = 
REMARK  16 active torsions:
REMARK  status: ('A' for Active; 'I' for Inactive)
REMARK    1  A    between atoms: C_1  and  C_2
REMARK    2  A    between atoms: C_3  and  C_9
REMARK    3  A    between atoms: C_7  and  O_8
REMARK    4  A    between atoms: N_11  and  C_12
REMARK    5  A    between atoms: C_12  and  C_14
REMARK    6  A    between atoms: C_12  and  C_22
REMARK    7  A    between atoms: C_14  and  S_15
REMARK    8  A    between atoms: S_15  and  C_16
REMARK    9  A    between atoms: C_22  and  C_24
REMARK   10  A    between atoms: C_22  and  O_45
REMARK   11  A    between atoms: C_24  and  N_25
REMARK   12  A    between atoms: C_36  and  C_38
REMARK   13  A    between atoms: N_40  and  C_41
REMARK   14  A    between atoms: C_41  and  C_42
REMARK   15  A    between atoms: C_41  and  C_43
REMARK   16  A    between atoms: C_41  and  C_44
REMARK                            x       y       z     vdW  Elec       q    Type
REMARK                         _______ _______ _______ _____ _____    ______ ____
ROOT
ATOM      1  C   UNL     1      -0.722   2.787  -1.530  0.00  0.00    +0.113 C 
ENDROOT
BRANCH   1   3
ATOM      2  C   UNL     1      -1.435   0.879  -3.003  0.00  0.00    +0.245 C 
ATOM      3  N   UNL     1      -1.749   1.958  -2.209  0.00  0.00    -0.305 N 
ATOM      4  H   UNL     1      -2.724   2.137  -2.006  0.00  0.00    +0.149 HD
ATOM      5  O   UNL     1      -0.282   0.551  -3.259  0.00  0.00    -0.270 OA
BRANCH   2  12
ATOM      6  C   UNL     1      -4.096   1.946  -4.292  0.00  0.00    +0.048 C 
ATOM      7  C   UNL     1      -3.790   0.501  -4.007  0.00  0.00    +0.003 A 
ATOM      8  C   UNL     1      -4.770  -0.452  -4.355  0.00  0.00    +0.120 A 
ATOM      9  C   UNL     1      -4.565  -1.823  -4.203  0.00  0.00    +0.046 A 
ATOM     10  C   UNL     1      -3.351  -2.277  -3.704  0.00  0.00    +0.004 A 
ATOM     11  C   UNL     1      -2.366  -1.358  -3.341  0.00  0.00    +0.013 A 
ATOM     12  C   UNL     1      -2.575   0.030  -3.469  0.00  0.00    +0.043 A 
BRANCH   8  13
ATOM     13  O   UNL     1      -5.960  -0.008  -4.869  0.00  0.00    -0.506 OA
ATOM     14  H   UNL     1      -6.517  -0.774  -5.087  0.00  0.00    +0.292 HD
ENDBRANCH   8  13
ENDBRANCH   2  12
ENDBRANCH   1   3
BRANCH   1  15
ATOM     15  C   UNL     1      -1.360   3.435  -0.254  0.00  0.00    +0.149 C 
BRANCH  15  16
ATOM     16  O   UNL     1      -0.622   4.501   0.344  0.00  0.00    -0.389 OA
ATOM     17  H   UNL     1       0.064   4.814  -0.274  0.00  0.00    +0.210 HD
ENDBRANCH  15  16
BRANCH  15  18
ATOM     18  C   UNL     1      -1.769   2.383   0.844  0.00  0.00    +0.118 C 
BRANCH  18  19
ATOM     19  N   UNL     1      -0.716   1.502   1.397  0.00  0.00    -0.289 NA
ATOM     20  C   UNL     1      -1.197   0.478   2.379  0.00  0.00    +0.143 C 
ATOM     21  C   UNL     1      -1.359   0.997   3.824  0.00  0.00    +0.032 C 
ATOM     22  C   UNL     1      -0.105   1.698   4.349  0.00  0.00    -0.005 C 
ATOM     23  C   UNL     1       0.305   2.813   3.392  0.00  0.00    +0.006 C 
ATOM     24  C   UNL     1      -0.537   4.099   3.537  0.00  0.00    +0.005 C 
ATOM     25  C   UNL     1      -1.511   4.236   4.718  0.00  0.00    +0.000 C 
ATOM     26  C   UNL     1      -1.421   3.235   5.865  0.00  0.00    +0.000 C 
ATOM     27  C   UNL     1      -0.260   2.265   5.760  0.00  0.00    +0.004 C 
ATOM     28  C   UNL     1       0.442   2.225   1.962  0.00  0.00    +0.089 C 
BRANCH  20  29
ATOM     29  C   UNL     1      -2.538  -0.196   1.985  0.00  0.00    +0.231 C 
ATOM     30  N   UNL     1      -2.429  -1.339   1.215  0.00  0.00    -0.309 N 
ATOM     31  H   UNL     1      -1.528  -1.540   0.798  0.00  0.00    +0.149 HD
ATOM     32  O   UNL     1      -3.619   0.240   2.370  0.00  0.00    -0.274 OA
BRANCH  30  33
ATOM     33  C   UNL     1      -3.558  -2.258   0.956  0.00  0.00    +0.026 C 
ATOM     34  C   UNL     1      -4.078  -2.863   2.276  0.00  0.00    +0.031 C 
ATOM     35  C   UNL     1      -3.074  -3.428   0.079  0.00  0.00    +0.031 C 
ATOM     36  C   UNL     1      -4.708  -1.550   0.218  0.00  0.00    +0.031 C 
ENDBRANCH  30  33
ENDBRANCH  20  29
ENDBRANCH  18  19
ENDBRANCH  15  18
ENDBRANCH   1  15
BRANCH   1  37
ATOM     37  C   UNL     1      -0.130   3.809  -2.545  0.00  0.00    +0.099 C 
BRANCH  37  38
ATOM     38  S   UNL     1       1.311   4.758  -1.901  0.00  0.00    -0.123 S 
BRANCH  38  39
ATOM     39  C   UNL     1       1.571   5.917  -3.231  0.00  0.00    +0.008 A 
ATOM     40  C   UNL     1       2.056   5.480  -4.466  0.00  0.00    +0.015 A 
ATOM     41  C   UNL     1       2.310   6.398  -5.489  0.00  0.00    +0.001 A 
ATOM     42  C   UNL     1       2.085   7.757  -5.282  0.00  0.00    +0.000 A 
ATOM     43  C   UNL     1       1.613   8.203  -4.048  0.00  0.00    +0.001 A 
ATOM     44  C   UNL     1       1.361   7.285  -3.023  0.00  0.00    +0.015 A 
ENDBRANCH  38  39
ENDBRANCH  37  38
ENDBRANCH   1  37
TORSDOF 12
