REMARK  Name = 
REMARK  18 active torsions:
REMARK  status: ('A' for Active; 'I' for Inactive)
REMARK    1  A    between atoms: C_1  and  C_2
REMARK    2  A    between atoms: C_3  and  C_9
REMARK    3  A    between atoms: C_7  and  O_8
REMARK    4  A    between atoms: N_11  and  C_12
REMARK    5  A    between atoms: C_12  and  C_14
REMARK    6  A    between atoms: C_12  and  C_22
REMARK    7  A    between atoms: C_14  and  S_15
REMARK    8  A    between atoms: S_15  and  C_16
REMARK    9  A    between atoms: C_22  and  C_24
REMARK   10  A    between atoms: C_22  and  O_45
REMARK   11  A    between atoms: C_24  and  N_25
REMARK   12  A    between atoms: C_36  and  C_38
REMARK   13  A    between atoms: N_40  and  C_41
REMARK   14  A    between atoms: C_41  and  C_42
REMARK   15  A    between atoms: C_41  and  C_43
REMARK   16  A    between atoms: C_41  and  C_44
REMARK   17  A    between atoms: C_46  and  S_47
REMARK   18  A    between atoms: S_47  and  O_50
REMARK                            x       y       z     vdW  Elec       q    Type
REMARK                         _______ _______ _______ _____ _____    ______ ____
ROOT
ATOM      1  C   UNL     1       0.168   4.063  -0.106  0.00  0.00    +0.113 C 
ENDROOT
BRANCH   1   3
ATOM      2  C   UNL     1       2.289   2.761   0.311  0.00  0.00    +0.245 C 
ATOM      3  N   UNL     1       1.031   2.880  -0.290  0.00  0.00    -0.305 N 
ATOM      4  H   UNL     1       0.837   2.354  -1.122  0.00  0.00    +0.149 HD
ATOM      5  O   UNL     1       2.651   3.525   1.194  0.00  0.00    -0.270 OA
BRANCH   2  12
ATOM      6  C   UNL     1       5.115   2.296   1.382  0.00  0.00    +0.048 C 
ATOM      7  C   UNL     1       4.511   1.448   0.288  0.00  0.00    +0.003 A 
ATOM      8  C   UNL     1       5.266   0.375  -0.230  0.00  0.00    +0.120 A 
ATOM      9  C   UNL     1       4.761  -0.488  -1.202  0.00  0.00    +0.046 A 
ATOM     10  C   UNL     1       3.479  -0.293  -1.682  0.00  0.00    +0.004 A 
ATOM     11  C   UNL     1       2.704   0.755  -1.182  0.00  0.00    +0.013 A 
ATOM     12  C   UNL     1       3.192   1.652  -0.210  0.00  0.00    +0.043 A 
BRANCH   8  13
ATOM     13  O   UNL     1       6.533   0.158   0.241  0.00  0.00    -0.506 OA
ATOM     14  H   UNL     1       6.910  -0.617  -0.207  0.00  0.00    +0.292 HD
ENDBRANCH   8  13
ENDBRANCH   2  12
ENDBRANCH   1   3
BRANCH   1  15
ATOM     15  C   UNL     1      -1.356   3.684  -0.165  0.00  0.00    +0.149 C 
BRANCH  15  16
ATOM     16  O   UNL     1      -2.128   4.837   0.138  0.00  0.00    -0.389 OA
ATOM     17  H   UNL     1      -1.915   5.548  -0.491  0.00  0.00    +0.210 HD
ENDBRANCH  15  16
BRANCH  15  18
ATOM     18  C   UNL     1      -1.797   2.656   0.897  0.00  0.00    +0.118 C 
BRANCH  18  19
ATOM     19  N   UNL     1      -3.148   2.032   0.811  0.00  0.00    -0.289 NA
ATOM     20  C   UNL     1      -4.399   2.868   0.793  0.00  0.00    +0.143 C 
ATOM     21  C   UNL     1      -4.810   3.470   2.147  0.00  0.00    +0.032 C 
ATOM     22  C   UNL     1      -4.974   2.405   3.227  0.00  0.00    -0.005 C 
ATOM     23  C   UNL     1      -3.693   1.589   3.347  0.00  0.00    +0.006 C 
ATOM     24  C   UNL     1      -2.596   2.276   4.194  0.00  0.00    +0.005 C 
ATOM     25  C   UNL     1      -2.912   3.617   4.883  0.00  0.00    +0.000 C 
ATOM     26  C   UNL     1      -4.374   4.022   5.067  0.00  0.00    +0.000 C 
ATOM     27  C   UNL     1      -5.369   2.985   4.584  0.00  0.00    +0.004 C 
ATOM     28  C   UNL     1      -3.277   1.055   1.940  0.00  0.00    +0.089 C 
BRANCH  20  29
ATOM     29  C   UNL     1      -4.576   3.964  -0.282  0.00  0.00    +0.231 C 
ATOM     30  N   UNL     1      -4.350   3.604  -1.597  0.00  0.00    -0.309 N 
ATOM     31  H   UNL     1      -3.819   2.753  -1.735  0.00  0.00    +0.149 HD
ATOM     32  O   UNL     1      -5.036   5.073   0.005  0.00  0.00    -0.274 OA
BRANCH  30  33
ATOM     33  C   UNL     1      -4.552   4.549  -2.712  0.00  0.00    +0.026 C 
ATOM     34  C   UNL     1      -6.011   5.027  -2.810  0.00  0.00    +0.031 C 
ATOM     35  C   UNL     1      -4.164   3.871  -4.037  0.00  0.00    +0.031 C 
ATOM     36  C   UNL     1      -3.661   5.780  -2.563  0.00  0.00    +0.031 C 
ENDBRANCH  30  33
ENDBRANCH  20  29
ENDBRANCH  18  19
ENDBRANCH  15  18
ENDBRANCH   1  15
BRANCH   1  37
ATOM     37  C   UNL     1       0.556   5.087  -1.219  0.00  0.00    +0.099 C 
BRANCH  37  38
ATOM     38  S   UNL     1      -0.306   6.708  -1.168  0.00  0.00    -0.123 S 
BRANCH  38  39
ATOM     39  C   UNL     1       0.099   7.338  -2.781  0.00  0.00    +0.008 A 
ATOM     40  C   UNL     1       1.393   7.779  -3.046  0.00  0.00    +0.015 A 
ATOM     41  C   UNL     1       1.711   8.306  -4.298  0.00  0.00    +0.001 A 
ATOM     42  C   UNL     1       0.743   8.384  -5.302  0.00  0.00    +0.000 A 
ATOM     43  C   UNL     1      -0.553   7.959  -5.045  0.00  0.00    +0.001 A 
ATOM     44  C   UNL     1      -0.871   7.463  -3.781  0.00  0.00    +0.015 A 
ENDBRANCH  38  39
ENDBRANCH  37  38
ENDBRANCH   1  37
TORSDOF 12
REMARK  Name = 
REMARK  18 active torsions:
REMARK  status: ('A' for Active; 'I' for Inactive)
REMARK    1  A    between atoms: C_1  and  C_2
REMARK    2  A    between atoms: C_3  and  C_9
REMARK    3  A    between atoms: C_7  and  O_8
REMARK    4  A    between atoms: N_11  and  C_12
REMARK    5  A    between atoms: C_12  and  C_14
REMARK    6  A    between atoms: C_12  and  C_22
REMARK    7  A    between atoms: C_14  and  S_15
REMARK    8  A    between atoms: S_15  and  C_16
REMARK    9  A    between atoms: C_22  and  C_24
REMARK   10  A    between atoms: C_22  and  O_45
REMARK   11  A    between atoms: C_24  and  N_25
REMARK   12  A    between atoms: C_36  and  C_38
REMARK   13  A    between atoms: N_40  and  C_41
REMARK   14  A    between atoms: C_41  and  C_42
REMARK   15  A    between atoms: C_41  and  C_43
REMARK   16  A    between atoms: C_41  and  C_44
REMARK   17  A    between atoms: C_46  and  S_47
REMARK   18  A    between atoms: S_47  and  O_50
REMARK                            x       y       z     vdW  Elec       q    Type
REMARK                         _______ _______ _______ _____ _____    ______ ____
ROOT
ATOM      1  C   UNL     1       1.371  -2.079   0.950  0.00  0.00    +0.228 C 
ATOM      2  S   UNL     1       2.609  -1.669   2.167  0.00  0.00    +0.077 S 
ATOM      3  O   UNL     1       3.922  -1.855   1.610  0.00  0.00    -0.148 OA
ATOM      4  O   UNL     1       2.219  -2.245   3.430  0.00  0.00    -0.148 OA
ENDROOT
BRANCH   2   5
ATOM      5  O   UNL     1       2.310  -0.086   2.248  0.00  0.00    -0.254 OA
ATOM      6  H   UNL     1       3.117   0.371   2.576  0.00  0.00    +0.244 HD
ENDBRANCH   2   5
TORSDOF 1
