REMARK  Name = 
REMARK  18 active torsions:
REMARK  status: ('A' for Active; 'I' for Inactive)
REMARK    1  A    between atoms: C_1  and  C_2
REMARK    2  A    between atoms: C_3  and  C_9
REMARK    3  A    between atoms: C_7  and  O_8
REMARK    4  A    between atoms: N_11  and  C_12
REMARK    5  A    between atoms: C_12  and  C_14
REMARK    6  A    between atoms: C_12  and  C_22
REMARK    7  A    between atoms: C_14  and  S_15
REMARK    8  A    between atoms: S_15  and  C_16
REMARK    9  A    between atoms: C_22  and  C_24
REMARK   10  A    between atoms: C_22  and  O_45
REMARK   11  A    between atoms: C_24  and  N_25
REMARK   12  A    between atoms: C_36  and  C_38
REMARK   13  A    between atoms: N_40  and  C_41
REMARK   14  A    between atoms: C_41  and  C_42
REMARK   15  A    between atoms: C_41  and  C_43
REMARK   16  A    between atoms: C_41  and  C_44
REMARK   17  A    between atoms: C_46  and  S_47
REMARK   18  A    between atoms: S_47  and  O_50
REMARK                            x       y       z     vdW  Elec       q    Type
REMARK                         _______ _______ _______ _____ _____    ______ ____
ROOT
ATOM      1  C   UNL     1       0.309   4.016  -0.257  0.00  0.00    +0.113 C 
ENDROOT
BRANCH   1   3
ATOM      2  C   UNL     1       2.526   2.805  -0.302  0.00  0.00    +0.245 C 
ATOM      3  N   UNL     1       1.141   2.817  -0.487  0.00  0.00    -0.305 N 
ATOM      4  H   UNL     1       0.715   2.113  -1.061  0.00  0.00    +0.149 HD
ATOM      5  O   UNL     1       3.101   3.775   0.177  0.00  0.00    -0.270 OA
BRANCH   2  12
ATOM      6  C   UNL     1       5.588   2.521  -0.128  0.00  0.00    +0.048 C 
ATOM      7  C   UNL     1       4.699   1.463  -0.734  0.00  0.00    +0.003 A 
ATOM      8  C   UNL     1       5.299   0.278  -1.218  0.00  0.00    +0.120 A 
ATOM      9  C   UNL     1       4.553  -0.769  -1.754  0.00  0.00    +0.046 A 
ATOM     10  C   UNL     1       3.175  -0.660  -1.805  0.00  0.00    +0.004 A 
ATOM     11  C   UNL     1       2.550   0.486  -1.312  0.00  0.00    +0.013 A 
ATOM     12  C   UNL     1       3.282   1.573  -0.784  0.00  0.00    +0.043 A 
BRANCH   8  13
ATOM     13  O   UNL     1       6.662   0.143  -1.165  0.00  0.00    -0.506 OA
ATOM     14  H   UNL     1       6.927  -0.637  -1.678  0.00  0.00    +0.292 HD
ENDBRANCH   8  13
ENDBRANCH   2  12
ENDBRANCH   1   3
BRANCH   1  15
ATOM     15  C   UNL     1      -1.226   3.669  -0.246  0.00  0.00    +0.149 C 
BRANCH  15  16
ATOM     16  O   UNL     1      -1.963   4.833   0.090  0.00  0.00    -0.389 OA
ATOM     17  H   UNL     1      -1.760   5.543  -0.543  0.00  0.00    +0.210 HD
ENDBRANCH  15  16
BRANCH  15  18
ATOM     18  C   UNL     1      -1.658   2.654   0.832  0.00  0.00    +0.118 C 
BRANCH  18  19
ATOM     19  N   UNL     1      -3.035   2.080   0.791  0.00  0.00    -0.289 NA
ATOM     20  C   UNL     1      -4.246   2.975   0.890  0.00  0.00    +0.143 C 
ATOM     21  C   UNL     1      -4.522   3.549   2.291  0.00  0.00    +0.032 C 
ATOM     22  C   UNL     1      -4.662   2.454   3.346  0.00  0.00    -0.005 C 
ATOM     23  C   UNL     1      -3.421   1.568   3.341  0.00  0.00    +0.006 C 
ATOM     24  C   UNL     1      -2.230   2.169   4.125  0.00  0.00    +0.005 C 
ATOM     25  C   UNL     1      -2.420   3.511   4.857  0.00  0.00    +0.000 C 
ATOM     26  C   UNL     1      -3.841   3.972   5.183  0.00  0.00    +0.000 C 
ATOM     27  C   UNL     1      -4.920   2.999   4.749  0.00  0.00    +0.004 C 
ATOM     28  C   UNL     1      -3.145   1.066   1.890  0.00  0.00    +0.089 C 
BRANCH  20  29
ATOM     29  C   UNL     1      -4.443   4.111  -0.141  0.00  0.00    +0.231 C 
ATOM     30  N   UNL     1      -4.327   3.775  -1.478  0.00  0.00    -0.309 N 
ATOM     31  H   UNL     1      -3.844   2.907  -1.669  0.00  0.00    +0.149 HD
ATOM     32  O   UNL     1      -4.821   5.233   0.207  0.00  0.00    -0.274 OA
BRANCH  30  33
ATOM     33  C   UNL     1      -4.553   4.755  -2.558  0.00  0.00    +0.026 C 
ATOM     34  C   UNL     1      -5.977   5.337  -2.517  0.00  0.00    +0.031 C 
ATOM     35  C   UNL     1      -4.338   4.075  -3.920  0.00  0.00    +0.031 C 
ATOM     36  C   UNL     1      -3.561   5.916  -2.481  0.00  0.00    +0.031 C 
ENDBRANCH  30  33
ENDBRANCH  20  29
ENDBRANCH  18  19
ENDBRANCH  15  18
ENDBRANCH   1  15
BRANCH   1  37
ATOM     37  C   UNL     1       0.646   5.078  -1.353  0.00  0.00    +0.099 C 
BRANCH  37  38
ATOM     38  S   UNL     1      -0.177   6.710  -1.150  0.00  0.00    -0.123 S 
BRANCH  38  39
ATOM     39  C   UNL     1       0.215   7.455  -2.710  0.00  0.00    +0.008 A 
ATOM     40  C   UNL     1       1.518   7.860  -2.965  0.00  0.00    +0.015 A 
ATOM     41  C   UNL     1       1.838   8.465  -4.176  0.00  0.00    +0.001 A 
ATOM     42  C   UNL     1       0.861   8.667  -5.151  0.00  0.00    +0.000 A 
ATOM     43  C   UNL     1      -0.446   8.284  -4.899  0.00  0.00    +0.001 A 
ATOM     44  C   UNL     1      -0.769   7.697  -3.674  0.00  0.00    +0.015 A 
ENDBRANCH  38  39
ENDBRANCH  37  38
ENDBRANCH   1  37
TORSDOF 12
REMARK  Name = 
REMARK  18 active torsions:
REMARK  status: ('A' for Active; 'I' for Inactive)
REMARK    1  A    between atoms: C_1  and  C_2
REMARK    2  A    between atoms: C_3  and  C_9
REMARK    3  A    between atoms: C_7  and  O_8
REMARK    4  A    between atoms: N_11  and  C_12
REMARK    5  A    between atoms: C_12  and  C_14
REMARK    6  A    between atoms: C_12  and  C_22
REMARK    7  A    between atoms: C_14  and  S_15
REMARK    8  A    between atoms: S_15  and  C_16
REMARK    9  A    between atoms: C_22  and  C_24
REMARK   10  A    between atoms: C_22  and  O_45
REMARK   11  A    between atoms: C_24  and  N_25
REMARK   12  A    between atoms: C_36  and  C_38
REMARK   13  A    between atoms: N_40  and  C_41
REMARK   14  A    between atoms: C_41  and  C_42
REMARK   15  A    between atoms: C_41  and  C_43
REMARK   16  A    between atoms: C_41  and  C_44
REMARK   17  A    between atoms: C_46  and  S_47
REMARK   18  A    between atoms: S_47  and  O_50
REMARK                            x       y       z     vdW  Elec       q    Type
REMARK                         _______ _______ _______ _____ _____    ______ ____
ROOT
ATOM      1  C   UNL     1       1.343  -1.691   1.113  0.00  0.00    +0.228 C 
ATOM      2  S   UNL     1       2.611  -1.301   2.296  0.00  0.00    +0.077 S 
ATOM      3  O   UNL     1       1.992  -0.982   3.554  0.00  0.00    -0.148 OA
ATOM      4  O   UNL     1       3.620  -0.479   1.682  0.00  0.00    -0.148 OA
ENDROOT
BRANCH   2   5
ATOM      5  O   UNL     1       3.245  -2.786   2.374  0.00  0.00    -0.254 OA
ATOM      6  H   UNL     1       4.084  -2.788   1.860  0.00  0.00    +0.244 HD
ENDBRANCH   2   5
TORSDOF 1
