REMARK  Name = 
REMARK  4 active torsions:
REMARK  status: ('A' for Active; 'I' for Inactive)
REMARK    1  A    between atoms: C1*_2  and  N_11
REMARK    2  A    between atoms: C4*_5  and  C5*_9
REMARK    3  A    between atoms: C3*_7  and  O3*_8
REMARK    4  A    between atoms: C5*_9  and  O5*_10
REMARK                            x       y       z     vdW  Elec       q    Type
REMARK                         _______ _______ _______ _____ _____    ______ ____
ROOT
ATOM      1  C2* UNL     1      -0.778  -1.096  -0.197  0.00  0.00    +0.088 C 
ATOM      2  C3* UNL     1       0.711  -1.102   0.103  0.00  0.00    +0.150 C 
ATOM      3  C4* UNL     1       1.130   0.373  -0.011  0.00  0.00    +0.175 C 
ATOM      4  O4* UNL     1      -0.071   1.116  -0.344  0.00  0.00    -0.348 OA
ATOM      5  C1* UNL     1      -1.165   0.327   0.158  0.00  0.00    +0.226 C 
ENDROOT
BRANCH   5   6
ATOM      6  N   UNL     1      -2.434   0.759  -0.406  0.00  0.00    -0.273 N 
ATOM      7  C   UNL     1      -3.576   0.493   0.339  0.00  0.00    +0.331 A 
ATOM      8  O   UNL     1      -3.570  -0.103   1.412  0.00  0.00    -0.246 OA
ATOM      9  N   UNL     1      -4.750   0.946  -0.198  0.00  0.00    -0.274 N 
ATOM     10  H   UNL     1      -5.588   0.793   0.345  0.00  0.00    +0.173 HD
ATOM     11  C   UNL     1      -4.902   1.617  -1.382  0.00  0.00    +0.267 A 
ATOM     12  O   UNL     1      -6.005   2.009  -1.749  0.00  0.00    -0.267 OA
ATOM     13  C   UNL     1      -3.653   1.822  -2.168  0.00  0.00    +0.094 A 
ATOM     14  I   UNL     1      -3.733   2.764  -3.981  0.00  0.00    -0.037 I 
ATOM     15  C   UNL     1      -2.503   1.383  -1.640  0.00  0.00    +0.113 A 
ENDBRANCH   5   6
BRANCH   2  16
ATOM     16  O3* UNL     1       1.409  -1.990  -0.756  0.00  0.00    -0.389 OA
ATOM     17  H3* UNL     1       1.208  -1.772  -1.683  0.00  0.00    +0.210 HD
ENDBRANCH   2  16
BRANCH   3  18
ATOM     18  C5* UNL     1       2.214   0.686  -1.037  0.00  0.00    +0.190 C 
BRANCH  18  19
ATOM     19  O5* UNL     1       2.504   2.084  -1.027  0.00  0.00    -0.392 OA
ATOM     20  H5* UNL     1       1.644   2.541  -1.094  0.00  0.00    +0.210 HD
ENDBRANCH  18  19
ENDBRANCH   3  18
TORSDOF 4
