REMARK  Name = 
REMARK  4 active torsions:
REMARK  status: ('A' for Active; 'I' for Inactive)
REMARK    1  A    between atoms: C1*_2  and  N_11
REMARK    2  A    between atoms: C4*_5  and  C5*_9
REMARK    3  A    between atoms: C3*_7  and  O3*_8
REMARK    4  A    between atoms: C5*_9  and  O5*_10
REMARK                            x       y       z     vdW  Elec       q    Type
REMARK                         _______ _______ _______ _____ _____    ______ ____
ROOT
ATOM      1  C2* UNL     1      -0.774  -1.098  -0.193  0.00  0.00    +0.088 C 
ATOM      2  C3* UNL     1       0.715  -1.100   0.105  0.00  0.00    +0.150 C 
ATOM      3  C4* UNL     1       1.131   0.376  -0.014  0.00  0.00    +0.175 C 
ATOM      4  O4* UNL     1      -0.073   1.115  -0.349  0.00  0.00    -0.348 OA
ATOM      5  C1* UNL     1      -1.164   0.326   0.158  0.00  0.00    +0.226 C 
ENDROOT
BRANCH   5   6
ATOM      6  N   UNL     1      -2.435   0.754  -0.405  0.00  0.00    -0.273 N 
ATOM      7  C   UNL     1      -3.573   0.493   0.348  0.00  0.00    +0.331 A 
ATOM      8  O   UNL     1      -3.561  -0.098   1.424  0.00  0.00    -0.246 OA
ATOM      9  N   UNL     1      -4.750   0.945  -0.185  0.00  0.00    -0.274 N 
ATOM     10  H   UNL     1      -5.583   0.801   0.365  0.00  0.00    +0.173 HD
ATOM     11  C   UNL     1      -4.903   1.622  -1.367  0.00  0.00    +0.267 A 
ATOM     12  O   UNL     1      -6.005   2.026  -1.721  0.00  0.00    -0.267 OA
ATOM     13  C   UNL     1      -3.660   1.816  -2.163  0.00  0.00    +0.094 A 
ATOM     14  I   UNL     1      -3.747   2.749  -3.979  0.00  0.00    -0.037 I 
ATOM     15  C   UNL     1      -2.509   1.375  -1.640  0.00  0.00    +0.113 A 
ENDBRANCH   5   6
BRANCH   2  16
ATOM     16  O3* UNL     1       1.414  -1.989  -0.752  0.00  0.00    -0.389 OA
ATOM     17  H3* UNL     1       1.216  -1.770  -1.679  0.00  0.00    +0.210 HD
ENDBRANCH   2  16
BRANCH   3  18
ATOM     18  C5* UNL     1       2.214   0.689  -1.040  0.00  0.00    +0.190 C 
BRANCH  18  19
ATOM     19  O5* UNL     1       2.498   2.088  -1.035  0.00  0.00    -0.392 OA
ATOM     20  H5* UNL     1       1.637   2.541  -1.106  0.00  0.00    +0.210 HD
ENDBRANCH  18  19
ENDBRANCH   3  18
TORSDOF 4
