REMARK  Name = 
REMARK  6 active torsions:
REMARK  status: ('A' for Active; 'I' for Inactive)
REMARK    1  A    between atoms: C6_3  and  N6_22
REMARK    2  A    between atoms: N9_7  and  C1*_10
REMARK    3  A    between atoms: C2*_11  and  O2*_21
REMARK    4  A    between atoms: C3*_13  and  O3*_20
REMARK    5  A    between atoms: C4*_15  and  C5*_18
REMARK    6  A    between atoms: C5*_18  and  O5*_19
REMARK                            x       y       z     vdW  Elec       q    Type
REMARK                         _______ _______ _______ _____ _____    ______ ____
ROOT
ATOM      1  C2    A A   1      -1.697   0.526  -1.401  0.00  0.00    +0.225 A 
ATOM      2  N3    A A   1      -0.704   1.366  -1.028  0.00  0.00    -0.216 NA
ATOM      3  C4    A A   1       0.298   0.691  -0.433  0.00  0.00    +0.167 A 
ATOM      4  N9    A A   1       1.457   1.186   0.098  0.00  0.00    -0.286 N 
ATOM      5  C8    A A   1       2.161   0.112   0.599  0.00  0.00    +0.203 A 
ATOM      6  N7    A A   1       1.531  -1.028   0.419  0.00  0.00    -0.231 NA
ATOM      7  C5    A A   1       0.364  -0.680  -0.225  0.00  0.00    +0.147 A 
ATOM      8  C6    A A   1      -0.721  -1.447  -0.682  0.00  0.00    +0.147 A 
ATOM      9  N1    A A   1      -1.763  -0.814  -1.259  0.00  0.00    -0.219 NA
ENDROOT
BRANCH   4  10
ATOM     10  C1*   A A   1       1.995   2.525   0.057  0.00  0.00    +0.253 C 
ATOM     11  O4*   A A   1       2.406   2.906   1.389  0.00  0.00    -0.346 OA
ATOM     12  C4*   A A   1       2.464   4.353   1.430  0.00  0.00    +0.177 C 
ATOM     13  C3*   A A   1       1.987   4.862   0.061  0.00  0.00    +0.178 C 
ATOM     14  C2*   A A   1       1.181   3.697  -0.506  0.00  0.00    +0.195 C 
BRANCH  13  15
ATOM     15  O3*   A A   1       1.248   6.070   0.105  0.00  0.00    -0.386 OA
ATOM     16  H3*   A A   1       0.355   5.792   0.415  0.00  0.00    +0.210 HD
ENDBRANCH  13  15
BRANCH  14  17
ATOM     17  O2*   A A   1      -0.161   3.827  -0.032  0.00  0.00    -0.385 OA
ATOM     18  H2*   A A   1      -0.638   3.013  -0.290  0.00  0.00    +0.210 HD
ENDBRANCH  14  17
BRANCH  12  19
ATOM     19  C5*   A A   1       1.724   4.873   2.668  0.00  0.00    +0.190 C 
BRANCH  19  20
ATOM     20  O5*   A A   1       0.332   4.590   2.619  0.00  0.00    -0.392 OA
ATOM     21  H5*   A A   1       0.001   4.579   3.533  0.00  0.00    +0.210 HD
ENDBRANCH  19  20
ENDBRANCH  12  19
ENDBRANCH   4  10
BRANCH   8  22
ATOM     22  N6    A A   1      -0.779  -2.830  -0.554  0.00  0.00    -0.341 N 
ATOM     23  H61   A A   1      -0.157  -3.189   0.161  0.00  0.00    +0.144 HD
ATOM     24  H62   A A   1      -1.728  -3.174  -0.566  0.00  0.00    +0.144 HD
ENDBRANCH   8  22
TORSDOF 6
