REMARK  Name = 
REMARK  8 active torsions:
REMARK  status: ('A' for Active; 'I' for Inactive)
REMARK    1  A    between atoms: C_1  and  N_2
REMARK    2  A    between atoms: N_2  and  C_3
REMARK    3  A    between atoms: N_2  and  C_4
REMARK    4  A    between atoms: C_4  and  C_5
REMARK    5  A    between atoms: C_5  and  O_6
REMARK    6  A    between atoms: O_6  and  C_7
REMARK    7  A    between atoms: C_7  and  C_8
REMARK    8  A    between atoms: N_10  and  C_11
REMARK                            x       y       z     vdW  Elec       q    Type
REMARK                         _______ _______ _______ _____ _____    ______ ____
ROOT
ATOM      1  C   UNL     1       8.586  -2.043  -3.073  0.00  0.00    +0.239 C 
ATOM      2  N   UNL     1       8.338  -3.375  -2.800  0.00  0.00    -0.308 N 
ATOM      3  H   UNL     1       8.045  -3.578  -1.852  0.00  0.00    +0.149 HD
ATOM      4  O   UNL     1       9.155  -1.629  -4.081  0.00  0.00    -0.273 OA
ENDROOT
BRANCH   2   5
ATOM      5  C   UNL     1       8.764  -4.477  -3.662  0.00  0.00    +0.035 C 
ATOM      6  C   UNL     1       8.246  -5.819  -3.072  0.00  0.00    +0.029 C 
ATOM      7  C   UNL     1       8.656  -7.005  -3.965  0.00  0.00    -0.008 C 
ATOM      8  C   UNL     1      10.189  -7.061  -4.064  0.00  0.00    +0.007 C 
ATOM      9  C   UNL     1      10.726  -5.747  -4.652  0.00  0.00    -0.008 C 
ATOM     10  C   UNL     1      10.132  -5.546  -6.057  0.00  0.00    +0.007 C 
ATOM     11  C   UNL     1       8.596  -5.504  -5.982  0.00  0.00    -0.008 C 
ATOM     12  C   UNL     1       8.068  -6.810  -5.371  0.00  0.00    +0.007 C 
ATOM     13  C   UNL     1       8.173  -4.329  -5.089  0.00  0.00    +0.029 C 
ATOM     14  C   UNL     1      10.306  -4.574  -3.749  0.00  0.00    +0.029 C 
ENDBRANCH   2   5
BRANCH   1  15
ATOM     15  C   UNL     1       8.024  -1.090  -2.028  0.00  0.00    +0.255 C 
BRANCH  15  16
ATOM     16  O   UNL     1       8.460  -1.450  -0.721  0.00  0.00    -0.369 OA
BRANCH  16  17
ATOM     17  C   UNL     1       8.104  -0.438   0.227  0.00  0.00    +0.175 C 
BRANCH  17  18
ATOM     18  C   UNL     1       8.761  -0.757   1.577  0.00  0.00    +0.112 C 
BRANCH  18  20
ATOM     19  C   UNL     1       8.986  -0.304   3.926  0.00  0.00    +0.104 C 
ATOM     20  N   UNL     1       8.363   0.142   2.676  0.00  0.00    -0.306 NA
ATOM     21  C   UNL     1       8.729   1.535   2.414  0.00  0.00    +0.104 C 
ENDBRANCH  18  20
ENDBRANCH  17  18
ENDBRANCH  16  17
ENDBRANCH  15  16
ENDBRANCH   1  15
TORSDOF 6
