REMARK  Name = 
REMARK  8 active torsions:
REMARK  status: ('A' for Active; 'I' for Inactive)
REMARK    1  A    between atoms: C_1  and  N_2
REMARK    2  A    between atoms: N_2  and  C_3
REMARK    3  A    between atoms: N_2  and  C_4
REMARK    4  A    between atoms: C_4  and  C_5
REMARK    5  A    between atoms: C_5  and  O_6
REMARK    6  A    between atoms: O_6  and  C_7
REMARK    7  A    between atoms: C_7  and  C_8
REMARK    8  A    between atoms: N_10  and  C_11
REMARK                            x       y       z     vdW  Elec       q    Type
REMARK                         _______ _______ _______ _____ _____    ______ ____
ROOT
ATOM      1  C   UNL     1       8.504  -1.205   3.635  0.00  0.00    +0.239 C 
ATOM      2  N   UNL     1       8.282  -2.566   3.742  0.00  0.00    -0.308 N 
ATOM      3  H   UNL     1       7.510  -2.910   3.179  0.00  0.00    +0.149 HD
ATOM      4  O   UNL     1       9.179  -0.542   4.416  0.00  0.00    -0.273 OA
ENDROOT
BRANCH   2   5
ATOM      5  C   UNL     1       8.702  -3.369   4.894  0.00  0.00    +0.035 C 
ATOM      6  C   UNL     1       8.336  -4.857   4.639  0.00  0.00    +0.029 C 
ATOM      7  C   UNL     1       8.739  -5.734   5.839  0.00  0.00    -0.008 C 
ATOM      8  C   UNL     1       8.010  -5.237   7.097  0.00  0.00    +0.007 C 
ATOM      9  C   UNL     1       8.386  -3.774   7.379  0.00  0.00    -0.008 C 
ATOM     10  C   UNL     1       9.908  -3.664   7.578  0.00  0.00    +0.007 C 
ATOM     11  C   UNL     1      10.644  -4.166   6.325  0.00  0.00    -0.008 C 
ATOM     12  C   UNL     1      10.257  -5.628   6.059  0.00  0.00    +0.007 C 
ATOM     13  C   UNL     1      10.235  -3.305   5.118  0.00  0.00    +0.029 C 
ATOM     14  C   UNL     1       7.972  -2.907   6.179  0.00  0.00    +0.029 C 
ENDBRANCH   2   5
BRANCH   1  15
ATOM     15  C   UNL     1       7.869  -0.580   2.397  0.00  0.00    +0.255 C 
BRANCH  15  16
ATOM     16  O   UNL     1       6.479  -0.887   2.312  0.00  0.00    -0.369 OA
BRANCH  16  17
ATOM     17  C   UNL     1       5.868  -0.144   1.248  0.00  0.00    +0.175 C 
BRANCH  17  18
ATOM     18  C   UNL     1       4.345  -0.346   1.290  0.00  0.00    +0.112 C 
BRANCH  18  20
ATOM     19  C   UNL     1       2.194  -0.062   0.253  0.00  0.00    +0.104 C 
ATOM     20  N   UNL     1       3.620   0.260   0.156  0.00  0.00    -0.306 NA
ATOM     21  C   UNL     1       3.793   1.713   0.100  0.00  0.00    +0.104 C 
ENDBRANCH  18  20
ENDBRANCH  17  18
ENDBRANCH  16  17
ENDBRANCH  15  16
ENDBRANCH   1  15
TORSDOF 6
