REMARK  Name = 
REMARK  7 active torsions:
REMARK  status: ('A' for Active; 'I' for Inactive)
REMARK    1  A    between atoms: C_1  and  C_2
REMARK    2  A    between atoms: C_4  and  C_25
REMARK    3  A    between atoms: C_6  and  C_24
REMARK    4  A    between atoms: C_7  and  N_8
REMARK    5  A    between atoms: N_15  and  C_16
REMARK    6  A    between atoms: C_19  and  C_22
REMARK    7  A    between atoms: C_26  and  C_27
REMARK                            x       y       z     vdW  Elec       q    Type
REMARK                         _______ _______ _______ _____ _____    ______ ____
ROOT
ATOM      1  N   UNL     1       2.509  -2.321  -0.001  0.00  0.00    -0.299 N 
ATOM      2  H   UNL     1       2.996  -3.153   0.308  0.00  0.00    +0.154 HD
ATOM      3  C   UNL     1       1.115  -2.534   0.092  0.00  0.00    +0.128 A 
ATOM      4  C   UNL     1       0.571  -3.651  -0.508  0.00  0.00    +0.063 A 
ATOM      5  C   UNL     1      -0.791  -3.806  -0.395  0.00  0.00    +0.118 A 
ATOM      6  N   UNL     1      -1.588  -2.940   0.257  0.00  0.00    -0.223 NA
ATOM      7  C   UNL     1      -0.988  -1.876   0.809  0.00  0.00    +0.221 A 
ATOM      8  N   UNL     1      -1.819  -0.958   1.455  0.00  0.00    -0.284 N 
ATOM      9  H   UNL     1      -2.778  -1.267   1.399  0.00  0.00    +0.155 HD
ATOM     10  N   UNL     1       0.336  -1.671   0.748  0.00  0.00    -0.199 NA
ENDROOT
BRANCH   1  13
ATOM     11  C   UNL     1       1.759   0.303  -1.324  0.00  0.00    +0.046 C 
ATOM     12  C   UNL     1       2.992   0.067  -0.494  0.00  0.00    -0.028 A 
ATOM     13  C   UNL     1       3.281  -1.140   0.180  0.00  0.00    +0.038 A 
ATOM     14  C   UNL     1       4.450  -1.179   0.994  0.00  0.00    -0.028 A 
ATOM     15  C   UNL     1       4.745  -2.342   1.911  0.00  0.00    +0.046 C 
ATOM     16  C   UNL     1       5.372  -0.103   0.985  0.00  0.00    +0.013 A 
ATOM     17  C   UNL     1       5.143   1.038   0.219  0.00  0.00    -0.024 A 
ATOM     18  C   UNL     1       3.941   1.113  -0.488  0.00  0.00    +0.013 A 
BRANCH  17  19
ATOM     19  C   UNL     1       6.100   2.144   0.048  0.00  0.00    +0.019 C 
ATOM     20  C   UNL     1       6.977   2.593   0.960  0.00  0.00    +0.089 C 
BRANCH  20  21
ATOM     21  C   UNL     1       7.817   3.711   0.689  0.00  0.00    +0.091 C 
ATOM     22  N   UNL     1       8.494   4.627   0.463  0.00  0.00    -0.191 NA
ENDBRANCH  20  21
ENDBRANCH  17  19
ENDBRANCH   1  13
BRANCH   8  23
ATOM     23  C   UNL     1      -1.575   0.347   1.906  0.00  0.00    +0.034 A 
ATOM     24  C   UNL     1      -2.642   1.131   2.368  0.00  0.00    +0.024 A 
ATOM     25  C   UNL     1      -2.441   2.456   2.773  0.00  0.00    +0.020 A 
ATOM     26  C   UNL     1      -1.166   3.025   2.731  0.00  0.00    +0.052 A 
ATOM     27  C   UNL     1      -0.089   2.247   2.317  0.00  0.00    +0.020 A 
ATOM     28  C   UNL     1      -0.298   0.924   1.926  0.00  0.00    +0.024 A 
BRANCH  26  29
ATOM     29  C   UNL     1      -0.955   4.389   3.100  0.00  0.00    +0.099 C 
ATOM     30  N   UNL     1      -0.776   5.499   3.389  0.00  0.00    -0.191 NA
ENDBRANCH  26  29
ENDBRANCH   8  23
TORSDOF 5
