REMARK  Name = 
REMARK  7 active torsions:
REMARK  status: ('A' for Active; 'I' for Inactive)
REMARK    1  A    between atoms: C_1  and  C_2
REMARK    2  A    between atoms: C_4  and  C_25
REMARK    3  A    between atoms: C_6  and  C_24
REMARK    4  A    between atoms: C_7  and  N_8
REMARK    5  A    between atoms: N_15  and  C_16
REMARK    6  A    between atoms: C_19  and  C_22
REMARK    7  A    between atoms: C_26  and  C_27
REMARK                            x       y       z     vdW  Elec       q    Type
REMARK                         _______ _______ _______ _____ _____    ______ ____
ROOT
ATOM      1  N   UNL     1       2.307  -2.512  -0.074  0.00  0.00    -0.299 N 
ATOM      2  H   UNL     1       2.828  -3.344   0.169  0.00  0.00    +0.154 HD
ATOM      3  C   UNL     1       0.920  -2.732   0.018  0.00  0.00    +0.128 A 
ATOM      4  C   UNL     1       0.391  -3.858  -0.572  0.00  0.00    +0.063 A 
ATOM      5  C   UNL     1      -0.974  -3.995  -0.511  0.00  0.00    +0.118 A 
ATOM      6  N   UNL     1      -1.785  -3.101   0.084  0.00  0.00    -0.223 NA
ATOM      7  C   UNL     1      -1.197  -2.029   0.633  0.00  0.00    +0.221 A 
ATOM      8  N   UNL     1      -2.046  -1.085   1.211  0.00  0.00    -0.284 N 
ATOM      9  H   UNL     1      -3.003  -1.396   1.131  0.00  0.00    +0.155 HD
ATOM     10  N   UNL     1       0.129  -1.841   0.626  0.00  0.00    -0.199 NA
ENDROOT
BRANCH   1  13
ATOM     11  C   UNL     1       1.545   0.052  -1.527  0.00  0.00    +0.046 C 
ATOM     12  C   UNL     1       2.763  -0.150  -0.669  0.00  0.00    -0.028 A 
ATOM     13  C   UNL     1       3.061  -1.322   0.063  0.00  0.00    +0.038 A 
ATOM     14  C   UNL     1       4.205  -1.315   0.907  0.00  0.00    -0.028 A 
ATOM     15  C   UNL     1       4.469  -2.414   1.907  0.00  0.00    +0.046 C 
ATOM     16  C   UNL     1       5.124  -0.247   0.837  0.00  0.00    +0.013 A 
ATOM     17  C   UNL     1       4.900   0.844  -0.006  0.00  0.00    -0.024 A 
ATOM     18  C   UNL     1       3.705   0.892  -0.714  0.00  0.00    +0.013 A 
BRANCH  17  19
ATOM     19  C   UNL     1       5.827   1.962  -0.211  0.00  0.00    +0.019 C 
ATOM     20  C   UNL     1       6.611   2.417   0.764  0.00  0.00    +0.089 C 
BRANCH  20  21
ATOM     21  C   UNL     1       7.461   3.673   0.660  0.00  0.00    +0.091 C 
ATOM     22  N   UNL     1       8.166   4.715   0.573  0.00  0.00    -0.191 NA
ENDBRANCH  20  21
ENDBRANCH  17  19
ENDBRANCH   1  13
BRANCH   8  23
ATOM     23  C   UNL     1      -1.820   0.232   1.638  0.00  0.00    +0.034 A 
ATOM     24  C   UNL     1      -2.908   1.005   2.072  0.00  0.00    +0.024 A 
ATOM     25  C   UNL     1      -2.736   2.333   2.480  0.00  0.00    +0.020 A 
ATOM     26  C   UNL     1      -1.468   2.918   2.461  0.00  0.00    +0.052 A 
ATOM     27  C   UNL     1      -0.373   2.157   2.068  0.00  0.00    +0.020 A 
ATOM     28  C   UNL     1      -0.554   0.828   1.670  0.00  0.00    +0.024 A 
BRANCH  26  29
ATOM     29  C   UNL     1      -1.290   4.283   2.851  0.00  0.00    +0.099 C 
ATOM     30  N   UNL     1      -1.139   5.393   3.160  0.00  0.00    -0.191 NA
ENDBRANCH  26  29
ENDBRANCH   8  23
TORSDOF 5
