REMARK  Name = 
REMARK  5 active torsions:
REMARK  status: ('A' for Active; 'I' for Inactive)
REMARK    1  A    between atoms: C3*_2  and  O3*_22
REMARK    2  A    between atoms: C4*_4  and  C5*_20
REMARK    3  A    between atoms: C1*_7  and  N_9
REMARK    4  A    between atoms: C_11  and  C_17
REMARK    5  A    between atoms: C5*_20  and  O5*_21
REMARK                            x       y       z     vdW  Elec       q    Type
REMARK                         _______ _______ _______ _____ _____    ______ ____
ROOT
ATOM      1  N   UNL     1       1.341  -1.783  -1.086  0.00  0.00    -0.273 N 
ATOM      2  C   UNL     1       1.005  -3.125  -1.219  0.00  0.00    +0.331 A 
ATOM      3  O   UNL     1       0.216  -3.713  -0.487  0.00  0.00    -0.246 OA
ATOM      4  N   UNL     1       1.572  -3.772  -2.282  0.00  0.00    -0.274 N 
ATOM      5  H   UNL     1       1.248  -4.711  -2.454  0.00  0.00    +0.173 HD
ATOM      6  C   UNL     1       2.301  -3.186  -3.277  0.00  0.00    +0.261 A 
ATOM      7  O   UNL     1       2.539  -3.775  -4.328  0.00  0.00    -0.267 OA
ATOM      8  C   UNL     1       2.764  -1.791  -3.019  0.00  0.00    +0.056 A 
ATOM      9  C   UNL     1       2.240  -1.177  -1.949  0.00  0.00    +0.106 A 
ENDROOT
BRANCH   1  11
ATOM     10  C2* UNL     1      -0.841  -0.999  -0.165  0.00  0.00    +0.088 C 
ATOM     11  C1* UNL     1       0.684  -1.027  -0.014  0.00  0.00    +0.226 C 
ATOM     12  O4* UNL     1       1.135   0.342  -0.001  0.00  0.00    -0.348 OA
ATOM     13  C4* UNL     1      -0.005   1.212  -0.172  0.00  0.00    +0.175 C 
ATOM     14  C3* UNL     1      -1.213   0.396   0.266  0.00  0.00    +0.150 C 
BRANCH  14  15
ATOM     15  O3* UNL     1      -1.340   0.437   1.687  0.00  0.00    -0.389 OA
ATOM     16  H3* UNL     1      -2.093  -0.127   1.938  0.00  0.00    +0.210 HD
ENDBRANCH  14  15
BRANCH  13  17
ATOM     17  C5* UNL     1      -0.104   1.643  -1.646  0.00  0.00    +0.190 C 
BRANCH  17  18
ATOM     18  O5* UNL     1       1.030   2.411  -2.048  0.00  0.00    -0.392 OA
ATOM     19  H5* UNL     1       1.170   3.108  -1.383  0.00  0.00    +0.210 HD
ENDBRANCH  17  18
ENDBRANCH  13  17
ENDBRANCH   1  11
BRANCH   8  20
ATOM     20  C   UNL     1       3.621  -1.131  -3.990  0.00  0.00    +0.022 C 
ATOM     21  C   UNL     1       4.510  -0.167  -3.724  0.00  0.00    +0.052 C 
ATOM     22 BR   UNL     1       5.551   0.661  -5.019  0.00  0.00    -0.059 Br
ENDBRANCH   8  20
TORSDOF 5
