REMARK  Name = 
REMARK  5 active torsions:
REMARK  status: ('A' for Active; 'I' for Inactive)
REMARK    1  A    between atoms: C3*_2  and  O3*_22
REMARK    2  A    between atoms: C4*_4  and  C5*_20
REMARK    3  A    between atoms: C1*_7  and  N_9
REMARK    4  A    between atoms: C_11  and  C_17
REMARK    5  A    between atoms: C5*_20  and  O5*_21
REMARK                            x       y       z     vdW  Elec       q    Type
REMARK                         _______ _______ _______ _____ _____    ______ ____
ROOT
ATOM      1  N   UNL     1       1.340  -1.781  -1.091  0.00  0.00    -0.273 N 
ATOM      2  C   UNL     1       1.004  -3.122  -1.224  0.00  0.00    +0.331 A 
ATOM      3  O   UNL     1       0.220  -3.714  -0.486  0.00  0.00    -0.246 OA
ATOM      4  N   UNL     1       1.565  -3.769  -2.290  0.00  0.00    -0.274 N 
ATOM      5  H   UNL     1       1.245  -4.709  -2.460  0.00  0.00    +0.173 HD
ATOM      6  C   UNL     1       2.302  -3.187  -3.280  0.00  0.00    +0.261 A 
ATOM      7  O   UNL     1       2.554  -3.780  -4.324  0.00  0.00    -0.267 OA
ATOM      8  C   UNL     1       2.760  -1.788  -3.025  0.00  0.00    +0.056 A 
ATOM      9  C   UNL     1       2.235  -1.173  -1.955  0.00  0.00    +0.106 A 
ENDROOT
BRANCH   1  11
ATOM     10  C2* UNL     1      -0.840  -0.999  -0.163  0.00  0.00    +0.088 C 
ATOM     11  C1* UNL     1       0.685  -1.027  -0.016  0.00  0.00    +0.226 C 
ATOM     12  O4* UNL     1       1.137   0.342  -0.001  0.00  0.00    -0.348 OA
ATOM     13  C4* UNL     1      -0.003   1.212  -0.171  0.00  0.00    +0.175 C 
ATOM     14  C3* UNL     1      -1.211   0.396   0.268  0.00  0.00    +0.150 C 
BRANCH  14  15
ATOM     15  O3* UNL     1      -1.338   0.436   1.689  0.00  0.00    -0.389 OA
ATOM     16  H3* UNL     1      -2.092  -0.127   1.939  0.00  0.00    +0.210 HD
ENDBRANCH  14  15
BRANCH  13  17
ATOM     17  C5* UNL     1      -0.103   1.643  -1.645  0.00  0.00    +0.190 C 
BRANCH  17  18
ATOM     18  O5* UNL     1       1.031   2.409  -2.047  0.00  0.00    -0.392 OA
ATOM     19  H5* UNL     1       1.176   3.103  -1.381  0.00  0.00    +0.210 HD
ENDBRANCH  17  18
ENDBRANCH  13  17
ENDBRANCH   1  11
BRANCH   8  20
ATOM     20  C   UNL     1       3.617  -1.130  -3.997  0.00  0.00    +0.022 C 
ATOM     21  C   UNL     1       4.503  -0.163  -3.734  0.00  0.00    +0.052 C 
ATOM     22 BR   UNL     1       5.546   0.662  -5.028  0.00  0.00    -0.059 Br
ENDBRANCH   8  20
TORSDOF 5
