REMARK  Name = 
REMARK  5 active torsions:
REMARK  status: ('A' for Active; 'I' for Inactive)
REMARK    1  A    between atoms: C3*_2  and  O3*_22
REMARK    2  A    between atoms: C4*_4  and  C5*_20
REMARK    3  A    between atoms: C1*_7  and  N_9
REMARK    4  A    between atoms: C_11  and  C_17
REMARK    5  A    between atoms: C5*_20  and  O5*_21
REMARK                            x       y       z     vdW  Elec       q    Type
REMARK                         _______ _______ _______ _____ _____    ______ ____
ROOT
ATOM      1  N   UNL     1       1.083  -1.653   1.383  0.00  0.00    -0.273 N 
ATOM      2  C   UNL     1       1.237  -3.029   1.416  0.00  0.00    +0.331 A 
ATOM      3  O   UNL     1       1.050  -3.767   0.450  0.00  0.00    -0.246 OA
ATOM      4  N   UNL     1       1.612  -3.556   2.620  0.00  0.00    -0.274 N 
ATOM      5  H   UNL     1       1.752  -4.553   2.657  0.00  0.00    +0.173 HD
ATOM      6  C   UNL     1       1.784  -2.862   3.784  0.00  0.00    +0.261 A 
ATOM      7  O   UNL     1       2.118  -3.429   4.820  0.00  0.00    -0.267 OA
ATOM      8  C   UNL     1       1.530  -1.392   3.724  0.00  0.00    +0.056 A 
ATOM      9  C   UNL     1       1.219  -0.882   2.523  0.00  0.00    +0.106 A 
ENDROOT
BRANCH   1  11
ATOM     10  C2* UNL     1      -0.860  -1.089  -0.076  0.00  0.00    +0.088 C 
ATOM     11  C1* UNL     1       0.655  -1.067   0.114  0.00  0.00    +0.226 C 
ATOM     12  O4* UNL     1       1.109   0.296   0.002  0.00  0.00    -0.348 OA
ATOM     13  C4* UNL     1      -0.038   1.152  -0.206  0.00  0.00    +0.175 C 
ATOM     14  C3* UNL     1      -1.267   0.338   0.193  0.00  0.00    +0.150 C 
BRANCH  14  15
ATOM     15  O3* UNL     1      -1.517   0.501   1.595  0.00  0.00    -0.389 OA
ATOM     16  H3* UNL     1      -2.282  -0.060   1.821  0.00  0.00    +0.210 HD
ENDBRANCH  14  15
BRANCH  13  17
ATOM     17  C5* UNL     1      -0.047   1.601  -1.671  0.00  0.00    +0.190 C 
BRANCH  17  18
ATOM     18  O5* UNL     1      -0.095   0.492  -2.565  0.00  0.00    -0.392 OA
ATOM     19  H5* UNL     1       0.776   0.057  -2.504  0.00  0.00    +0.210 HD
ENDBRANCH  17  18
ENDBRANCH  13  17
ENDBRANCH   1  11
BRANCH   8  20
ATOM     20  C   UNL     1       1.698  -0.595   4.928  0.00  0.00    +0.022 C 
ATOM     21  C   UNL     1       1.030   0.529   5.220  0.00  0.00    +0.052 C 
ATOM     22 BR   UNL     1       1.280   1.503   6.780  0.00  0.00    -0.059 Br
ENDBRANCH   8  20
TORSDOF 5
