REMARK  Name = 
REMARK  5 active torsions:
REMARK  status: ('A' for Active; 'I' for Inactive)
REMARK    1  A    between atoms: C3*_2  and  O3*_22
REMARK    2  A    between atoms: C4*_4  and  C5*_20
REMARK    3  A    between atoms: C1*_7  and  N_9
REMARK    4  A    between atoms: C_11  and  C_17
REMARK    5  A    between atoms: C5*_20  and  O5*_21
REMARK                            x       y       z     vdW  Elec       q    Type
REMARK                         _______ _______ _______ _____ _____    ______ ____
ROOT
ATOM      1  N   UNL     1       1.012  -1.676   1.390  0.00  0.00    -0.273 N 
ATOM      2  C   UNL     1       0.787  -3.040   1.532  0.00  0.00    +0.331 A 
ATOM      3  O   UNL     1       0.311  -3.755   0.653  0.00  0.00    -0.246 OA
ATOM      4  N   UNL     1       1.124  -3.575   2.742  0.00  0.00    -0.274 N 
ATOM      5  H   UNL     1       0.943  -4.558   2.870  0.00  0.00    +0.173 HD
ATOM      6  C   UNL     1       1.765  -2.927   3.757  0.00  0.00    +0.261 A 
ATOM      7  O   UNL     1       2.070  -3.513   4.793  0.00  0.00    -0.267 OA
ATOM      8  C   UNL     1       2.070  -1.479   3.541  0.00  0.00    +0.056 A 
ATOM      9  C   UNL     1       1.638  -0.944   2.387  0.00  0.00    +0.106 A 
ENDROOT
BRANCH   1  11
ATOM     10  C2* UNL     1      -0.821  -1.123  -0.237  0.00  0.00    +0.088 C 
ATOM     11  C1* UNL     1       0.676  -1.091   0.087  0.00  0.00    +0.226 C 
ATOM     12  O4* UNL     1       1.083   0.297   0.019  0.00  0.00    -0.348 OA
ATOM     13  C4* UNL     1      -0.076   1.087  -0.288  0.00  0.00    +0.175 C 
ATOM     14  C3* UNL     1      -1.261   0.257   0.177  0.00  0.00    +0.150 C 
BRANCH  14  15
ATOM     15  O3* UNL     1      -2.490   0.659  -0.400  0.00  0.00    -0.389 OA
ATOM     16  H3* UNL     1      -2.414   0.610  -1.371  0.00  0.00    +0.210 HD
ENDBRANCH  14  15
BRANCH  13  17
ATOM     17  C5* UNL     1      -0.037   2.466   0.367  0.00  0.00    +0.190 C 
BRANCH  17  18
ATOM     18  O5* UNL     1      -1.180   3.242   0.021  0.00  0.00    -0.392 OA
ATOM     19  H5* UNL     1      -1.977   2.703   0.203  0.00  0.00    +0.210 HD
ENDBRANCH  17  18
ENDBRANCH  13  17
ENDBRANCH   1  11
BRANCH   8  20
ATOM     20  C   UNL     1       2.715  -0.748   4.620  0.00  0.00    +0.022 C 
ATOM     21  C   UNL     1       3.599   0.258   4.586  0.00  0.00    +0.052 C 
ATOM     22 BR   UNL     1       4.347   1.113   3.127  0.00  0.00    -0.059 Br
ENDBRANCH   8  20
TORSDOF 5
