REMARK  Name = 
REMARK  5 active torsions:
REMARK  status: ('A' for Active; 'I' for Inactive)
REMARK    1  A    between atoms: C3*_2  and  O3*_22
REMARK    2  A    between atoms: C4*_4  and  C5*_20
REMARK    3  A    between atoms: C1*_7  and  N_9
REMARK    4  A    between atoms: C_11  and  C_17
REMARK    5  A    between atoms: C5*_20  and  O5*_21
REMARK                            x       y       z     vdW  Elec       q    Type
REMARK                         _______ _______ _______ _____ _____    ______ ____
ROOT
ATOM      1  N   UNL     1       0.978  -1.666   1.388  0.00  0.00    -0.273 N 
ATOM      2  C   UNL     1       0.667  -3.007   1.570  0.00  0.00    +0.331 A 
ATOM      3  O   UNL     1       0.106  -3.705   0.728  0.00  0.00    -0.246 OA
ATOM      4  N   UNL     1       1.018  -3.540   2.777  0.00  0.00    -0.274 N 
ATOM      5  H   UNL     1       0.772  -4.505   2.937  0.00  0.00    +0.173 HD
ATOM      6  C   UNL     1       1.745  -2.920   3.750  0.00  0.00    +0.261 A 
ATOM      7  O   UNL     1       2.047  -3.501   4.790  0.00  0.00    -0.267 OA
ATOM      8  C   UNL     1       2.149  -1.506   3.481  0.00  0.00    +0.056 A 
ATOM      9  C   UNL     1       1.704  -0.963   2.338  0.00  0.00    +0.106 A 
ENDROOT
BRANCH   1  11
ATOM     10  C2* UNL     1      -0.870  -1.018  -0.187  0.00  0.00    +0.088 C 
ATOM     11  C1* UNL     1       0.635  -1.084   0.086  0.00  0.00    +0.226 C 
ATOM     12  O4* UNL     1       1.136   0.268  -0.025  0.00  0.00    -0.348 OA
ATOM     13  C4* UNL     1       0.026   1.139  -0.285  0.00  0.00    +0.175 C 
ATOM     14  C3* UNL     1      -1.204   0.394   0.214  0.00  0.00    +0.150 C 
BRANCH  14  15
ATOM     15  O3* UNL     1      -2.410   0.879  -0.350  0.00  0.00    -0.389 OA
ATOM     16  H3* UNL     1      -2.414   0.678  -1.304  0.00  0.00    +0.210 HD
ENDBRANCH  14  15
BRANCH  13  17
ATOM     17  C5* UNL     1       0.188   2.499   0.389  0.00  0.00    +0.190 C 
BRANCH  17  18
ATOM     18  O5* UNL     1      -0.883   3.377   0.055  0.00  0.00    -0.392 OA
ATOM     19  H5* UNL     1      -1.722   2.885   0.157  0.00  0.00    +0.210 HD
ENDBRANCH  17  18
ENDBRANCH  13  17
ENDBRANCH   1  11
BRANCH   8  20
ATOM     20  C   UNL     1       2.905  -0.802   4.506  0.00  0.00    +0.022 C 
ATOM     21  C   UNL     1       3.890   0.098   4.389  0.00  0.00    +0.052 C 
ATOM     22 BR   UNL     1       4.662   0.790   2.855  0.00  0.00    -0.059 Br
ENDBRANCH   8  20
TORSDOF 5
