REMARK  Name = 
REMARK  16 active torsions:
REMARK  status: ('A' for Active; 'I' for Inactive)
REMARK    1  A    between atoms: C_1  and  C_2
REMARK    2  A    between atoms: C_2  and  C_3
REMARK    3  A    between atoms: C_2  and  C_4
REMARK    4  A    between atoms: C_4  and  N_5
REMARK    5  A    between atoms: N_5  and  C_6
REMARK    6  A    between atoms: N_5  and  S_29
REMARK    7  A    between atoms: C_6  and  C_7
REMARK    8  A    between atoms: C_7  and  C_9
REMARK    9  A    between atoms: C_7  and  O_28
REMARK   10  A    between atoms: C_9  and  C_11
REMARK   11  A    between atoms: C_9  and  N_18
REMARK   12  A    between atoms: C_11  and  C_12
REMARK   13  A    between atoms: C_19  and  O_21
REMARK   14  A    between atoms: O_21  and  C_22
REMARK   15  A    between atoms: S_29  and  C_32
REMARK   16  A    between atoms: C_35  and  N_38
REMARK                            x       y       z     vdW  Elec       q    Type
REMARK                         _______ _______ _______ _____ _____    ______ ____
ROOT
ATOM      1  C   UNL     1       2.620  -0.052  -2.078  0.00  0.00    +0.151 C 
ENDROOT
BRANCH   1   2
ATOM      2  O   UNL     1       3.716   0.805  -2.451  0.00  0.00    -0.389 OA
ATOM      3  H   UNL     1       3.623   1.012  -3.398  0.00  0.00    +0.210 HD
ENDBRANCH   1   2
BRANCH   1   4
ATOM      4  C   UNL     1       1.320   0.799  -2.145  0.00  0.00    +0.142 C 
BRANCH   4   5
ATOM      5  N   UNL     1      -0.007   0.121  -1.938  0.00  0.00    -0.174 NA
BRANCH   5   6
ATOM      6  S   UNL     1      -0.323  -1.132  -3.076  0.00  0.00    +0.061 S 
ATOM      7  O   UNL     1       0.321  -2.323  -2.553  0.00  0.00    -0.153 OA
ATOM      8  O   UNL     1       0.008  -0.631  -4.392  0.00  0.00    -0.153 OA
BRANCH   6   9
ATOM      9  C   UNL     1      -2.087  -1.374  -3.028  0.00  0.00    +0.106 A 
ATOM     10  C   UNL     1      -2.616  -2.601  -2.619  0.00  0.00    +0.030 A 
ATOM     11  C   UNL     1      -4.005  -2.784  -2.592  0.00  0.00    +0.024 A 
ATOM     12  C   UNL     1      -4.872  -1.743  -2.936  0.00  0.00    +0.025 A 
ATOM     13  C   UNL     1      -4.326  -0.559  -3.444  0.00  0.00    +0.024 A 
ATOM     14  C   UNL     1      -2.939  -0.361  -3.475  0.00  0.00    +0.030 A 
BRANCH  12  15
ATOM     15  N   UNL     1      -6.252  -1.967  -2.994  0.00  0.00    -0.358 N 
ATOM     16  H   UNL     1      -6.582  -2.675  -2.345  0.00  0.00    +0.142 HD
ATOM     17  H   UNL     1      -6.810  -1.120  -2.946  0.00  0.00    +0.142 HD
ENDBRANCH  12  15
ENDBRANCH   6   9
ENDBRANCH   5   6
BRANCH   5  18
ATOM     18  C   UNL     1      -0.418  -0.175  -0.530  0.00  0.00    +0.112 C 
BRANCH  18  20
ATOM     19  C   UNL     1      -1.306   2.105   0.201  0.00  0.00    +0.008 C 
ATOM     20  C   UNL     1      -0.276   1.006   0.448  0.00  0.00    -0.001 C 
ATOM     21  C   UNL     1      -0.391   0.502   1.889  0.00  0.00    +0.008 C 
ENDBRANCH  18  20
ENDBRANCH   5  18
ENDBRANCH   4   5
ENDBRANCH   1   4
BRANCH   1  22
ATOM     22  C   UNL     1       2.970  -0.735  -0.716  0.00  0.00    +0.110 C 
BRANCH  22  23
ATOM     23  N   UNL     1       3.948  -1.824  -0.923  0.00  0.00    -0.275 N 
ATOM     24  H   UNL     1       3.647  -2.643  -1.433  0.00  0.00    +0.152 HD
ATOM     25  C   UNL     1       5.276  -1.790  -0.638  0.00  0.00    +0.401 C 
ATOM     26  O   UNL     1       5.885  -0.883  -0.095  0.00  0.00    -0.226 OA
BRANCH  25  27
ATOM     27  O   UNL     1       5.858  -2.958  -1.025  0.00  0.00    -0.445 OA
BRANCH  27  28
ATOM     28  C   UNL     1       7.247  -3.028  -0.679  0.00  0.00    +0.206 C 
ATOM     29  C   UNL     1       8.118  -2.008  -1.417  0.00  0.00    +0.204 C 
ATOM     30  O   UNL     1       9.309  -2.683  -1.857  0.00  0.00    -0.376 OA
ATOM     31  C   UNL     1       9.310  -3.977  -1.247  0.00  0.00    +0.163 C 
ATOM     32  C   UNL     1       7.854  -4.349  -1.104  0.00  0.00    +0.075 C 
ENDBRANCH  27  28
ENDBRANCH  25  27
ENDBRANCH  22  23
BRANCH  22  33
ATOM     33  C   UNL     1       3.348   0.269   0.411  0.00  0.00    +0.060 C 
BRANCH  33  34
ATOM     34  C   UNL     1       3.247  -0.189   1.861  0.00  0.00    -0.046 A 
ATOM     35  C   UNL     1       3.412   0.781   2.869  0.00  0.00    +0.004 A 
ATOM     36  C   UNL     1       3.229   0.465   4.219  0.00  0.00    +0.000 A 
ATOM     37  C   UNL     1       2.888  -0.835   4.588  0.00  0.00    +0.000 A 
ATOM     38  C   UNL     1       2.767  -1.815   3.613  0.00  0.00    +0.000 A 
ATOM     39  C   UNL     1       2.952  -1.499   2.256  0.00  0.00    +0.004 A 
ENDBRANCH  33  34
ENDBRANCH  22  33
ENDBRANCH   1  22
TORSDOF 14
