REMARK  Name = 
REMARK  16 active torsions:
REMARK  status: ('A' for Active; 'I' for Inactive)
REMARK    1  A    between atoms: C_1  and  C_2
REMARK    2  A    between atoms: C_2  and  C_3
REMARK    3  A    between atoms: C_2  and  C_4
REMARK    4  A    between atoms: C_4  and  N_5
REMARK    5  A    between atoms: N_5  and  C_6
REMARK    6  A    between atoms: N_5  and  S_29
REMARK    7  A    between atoms: C_6  and  C_7
REMARK    8  A    between atoms: C_7  and  C_9
REMARK    9  A    between atoms: C_7  and  O_28
REMARK   10  A    between atoms: C_9  and  C_11
REMARK   11  A    between atoms: C_9  and  N_18
REMARK   12  A    between atoms: C_11  and  C_12
REMARK   13  A    between atoms: C_19  and  O_21
REMARK   14  A    between atoms: O_21  and  C_22
REMARK   15  A    between atoms: S_29  and  C_32
REMARK   16  A    between atoms: C_35  and  N_38
REMARK                            x       y       z     vdW  Elec       q    Type
REMARK                         _______ _______ _______ _____ _____    ______ ____
ROOT
ATOM      1  C   UNL     1       2.130  -2.454  -0.222  0.00  0.00    +0.151 C 
ENDROOT
BRANCH   1   2
ATOM      2  O   UNL     1       0.885  -2.031  -0.800  0.00  0.00    -0.389 OA
ATOM      3  H   UNL     1       0.690  -2.627  -1.546  0.00  0.00    +0.210 HD
ENDBRANCH   1   2
BRANCH   1   4
ATOM      4  C   UNL     1       1.839  -3.772   0.562  0.00  0.00    +0.142 C 
BRANCH   4   5
ATOM      5  N   UNL     1       2.966  -4.472   1.287  0.00  0.00    -0.174 NA
BRANCH   5   6
ATOM      6  S   UNL     1       4.305  -4.775   0.250  0.00  0.00    +0.061 S 
ATOM      7  O   UNL     1       5.050  -3.538   0.166  0.00  0.00    -0.153 OA
ATOM      8  O   UNL     1       3.781  -5.391  -0.956  0.00  0.00    -0.153 OA
BRANCH   6   9
ATOM      9  C   UNL     1       5.367  -5.985   1.026  0.00  0.00    +0.106 A 
ATOM     10  C   UNL     1       6.674  -5.615   1.367  0.00  0.00    +0.030 A 
ATOM     11  C   UNL     1       7.618  -6.599   1.687  0.00  0.00    +0.024 A 
ATOM     12  C   UNL     1       7.269  -7.951   1.707  0.00  0.00    +0.025 A 
ATOM     13  C   UNL     1       5.960  -8.308   1.358  0.00  0.00    +0.024 A 
ATOM     14  C   UNL     1       5.007  -7.334   1.025  0.00  0.00    +0.030 A 
BRANCH  12  15
ATOM     15  N   UNL     1       8.267  -8.927   1.799  0.00  0.00    -0.358 N 
ATOM     16  H   UNL     1       9.111  -8.638   2.282  0.00  0.00    +0.142 HD
ATOM     17  H   UNL     1       7.947  -9.847   2.078  0.00  0.00    +0.142 HD
ENDBRANCH  12  15
ENDBRANCH   6   9
ENDBRANCH   5   6
BRANCH   5  18
ATOM     18  C   UNL     1       3.283  -3.978   2.667  0.00  0.00    +0.112 C 
BRANCH  18  20
ATOM     19  C   UNL     1       1.463  -5.197   4.003  0.00  0.00    +0.008 C 
ATOM     20  C   UNL     1       2.070  -3.850   3.624  0.00  0.00    -0.001 C 
ATOM     21  C   UNL     1       2.478  -3.100   4.898  0.00  0.00    +0.008 C 
ENDBRANCH  18  20
ENDBRANCH   5  18
ENDBRANCH   4   5
ENDBRANCH   1   4
BRANCH   1  22
ATOM     22  C   UNL     1       2.758  -1.282   0.569  0.00  0.00    +0.110 C 
BRANCH  22  23
ATOM     23  N   UNL     1       3.319  -0.234  -0.309  0.00  0.00    -0.275 N 
ATOM     24  H   UNL     1       4.323  -0.197  -0.412  0.00  0.00    +0.152 HD
ATOM     25  C   UNL     1       2.659   0.910  -0.643  0.00  0.00    +0.401 C 
ATOM     26  O   UNL     1       1.446   1.071  -0.671  0.00  0.00    -0.226 OA
BRANCH  25  27
ATOM     27  O   UNL     1       3.567   1.909  -0.819  0.00  0.00    -0.445 OA
BRANCH  27  28
ATOM     28  C   UNL     1       2.981   3.202  -0.991  0.00  0.00    +0.206 C 
ATOM     29  C   UNL     1       4.039   4.242  -1.328  0.00  0.00    +0.204 C 
ATOM     30  O   UNL     1       3.543   5.516  -0.880  0.00  0.00    -0.376 OA
ATOM     31  C   UNL     1       2.365   5.276  -0.091  0.00  0.00    +0.163 C 
ATOM     32  C   UNL     1       2.380   3.806   0.266  0.00  0.00    +0.075 C 
ENDBRANCH  27  28
ENDBRANCH  25  27
ENDBRANCH  22  23
BRANCH  22  33
ATOM     33  C   UNL     1       1.898  -0.674   1.708  0.00  0.00    +0.060 C 
BRANCH  33  34
ATOM     34  C   UNL     1       2.656   0.119   2.772  0.00  0.00    -0.046 A 
ATOM     35  C   UNL     1       1.944   0.615   3.876  0.00  0.00    +0.004 A 
ATOM     36  C   UNL     1       2.615   1.185   4.963  0.00  0.00    +0.000 A 
ATOM     37  C   UNL     1       4.003   1.293   4.953  0.00  0.00    +0.000 A 
ATOM     38  C   UNL     1       4.716   0.881   3.835  0.00  0.00    +0.000 A 
ATOM     39  C   UNL     1       4.047   0.310   2.753  0.00  0.00    +0.004 A 
ENDBRANCH  33  34
ENDBRANCH  22  33
ENDBRANCH   1  22
TORSDOF 14
