REMARK  Name = 
REMARK  13 active torsions:
REMARK  status: ('A' for Active; 'I' for Inactive)
REMARK    1  A    between atoms: C_1  and  C_2
REMARK    2  A    between atoms: C_2  and  C_3
REMARK    3  A    between atoms: C_3  and  C_4
REMARK    4  A    between atoms: C_3  and  O_6
REMARK    5  A    between atoms: C_4  and  C_5
REMARK    6  A    between atoms: O_6  and  C_7
REMARK    7  A    between atoms: C_10  and  C_21
REMARK    8  A    between atoms: C_12  and  N_20
REMARK    9  A    between atoms: C_14  and  N_16
REMARK   10  A    between atoms: C_17  and  C_19
REMARK   11  A    between atoms: C_21  and  O_23
REMARK   12  A    between atoms: O_23  and  C_24
REMARK   13  A    between atoms: C_24  and  C_25
REMARK                            x       y       z     vdW  Elec       q    Type
REMARK                         _______ _______ _______ _____ _____    ______ ____
ROOT
ATOM      1  C   UNL     1       4.977  -1.502   2.542  0.00  0.00    +0.164 C 
ATOM      2  C   UNL     1       5.053  -2.953   1.962  0.00  0.00    +0.122 C 
ATOM      3  C   UNL     1       4.490  -4.104   2.841  0.00  0.00    +0.078 C 
ATOM      4  C   UNL     1       3.391  -3.728   3.841  0.00  0.00    +0.062 C 
ATOM      5  C   UNL     1       3.329  -2.297   4.279  0.00  0.00    +0.037 C 
ATOM      6  C   UNL     1       4.058  -1.320   3.721  0.00  0.00    +0.016 C 
ENDROOT
BRANCH   2   7
ATOM      7  N   UNL     1       4.557  -3.033   0.576  0.00  0.00    -0.308 N 
ATOM      8  H   UNL     1       5.202  -3.386  -0.120  0.00  0.00    +0.149 HD
ATOM      9  C   UNL     1       3.245  -2.830   0.228  0.00  0.00    +0.210 C 
ATOM     10  C   UNL     1       2.970  -2.985  -1.245  0.00  0.00    +0.109 C 
ATOM     11  O   UNL     1       2.370  -2.539   1.033  0.00  0.00    -0.276 OA
ENDBRANCH   2   7
BRANCH   3  12
ATOM     12  N   UNL     1       5.596  -4.814   3.529  0.00  0.00    -0.325 NA
ATOM     13  H   UNL     1       5.924  -4.245   4.311  0.00  0.00    +0.119 HD
ATOM     14  H   UNL     1       5.227  -5.670   3.947  0.00  0.00    +0.119 HD
ENDBRANCH   3  12
BRANCH   5  15
ATOM     15  C   UNL     1       2.288  -2.062   5.323  0.00  0.00    +0.335 C 
ATOM     16  O   UNL     1       1.721  -2.985   5.899  0.00  0.00    -0.245 OA
BRANCH  15  17
ATOM     17  O   UNL     1       1.953  -0.754   5.427  0.00  0.00    -0.462 OA
BRANCH  17  18
ATOM     18  C   UNL     1       0.644  -0.510   5.972  0.00  0.00    +0.229 C 
ATOM     19  C   UNL     1      -0.315  -0.370   4.804  0.00  0.00    +0.048 C 
ENDBRANCH  17  18
ENDBRANCH  15  17
ENDBRANCH   5  15
BRANCH   1  20
ATOM     20  O   UNL     1       6.251  -0.951   2.936  0.00  0.00    -0.367 OA
BRANCH  20  21
ATOM     21  C   UNL     1       7.325  -0.944   1.979  0.00  0.00    +0.119 C 
BRANCH  21  23
ATOM     22  C   UNL     1       8.063  -0.356  -0.404  0.00  0.00    +0.006 C 
ATOM     23  C   UNL     1       6.955  -0.275   0.642  0.00  0.00    +0.028 C 
ENDBRANCH  21  23
BRANCH  21  24
ATOM     24  C   UNL     1       8.533  -0.238   2.628  0.00  0.00    +0.028 C 
ATOM     25  C   UNL     1       8.979  -0.904   3.924  0.00  0.00    +0.006 C 
ENDBRANCH  21  24
ENDBRANCH  20  21
ENDBRANCH   1  20
TORSDOF 9
