REMARK  Name = 
REMARK  5 active torsions:
REMARK  status: ('A' for Active; 'I' for Inactive)
REMARK    1  A    between atoms: C_3  and  N_4
REMARK    2  A    between atoms: N_4  and  C_5
REMARK    3  A    between atoms: N_12  and  C_15
REMARK    4  A    between atoms: C_17  and  C_21
REMARK    5  A    between atoms: C_21  and  O_22
REMARK                            x       y       z     vdW  Elec       q    Type
REMARK                         _______ _______ _______ _____ _____    ______ ____
ROOT
ATOM      1  C   UNL     1       2.949  -0.710   1.181  0.00  0.00    +0.152 A 
ATOM      2  N   UNL     1       3.632   0.464   1.111  0.00  0.00    -0.198 NA
ATOM      3  C   UNL     1       4.975   0.452   1.062  0.00  0.00    +0.216 A 
ATOM      4  N   UNL     1       5.585   1.689   0.991  0.00  0.00    -0.327 N 
ATOM      5  H   UNL     1       4.954   2.389   1.357  0.00  0.00    +0.145 HD
ATOM      6  H   UNL     1       6.510   1.644   1.394  0.00  0.00    +0.145 HD
ATOM      7  N   UNL     1       5.777  -0.625   1.108  0.00  0.00    -0.195 NA
ATOM      8  C   UNL     1       5.075  -1.767   1.164  0.00  0.00    +0.168 A 
ATOM      9  N   UNL     1       5.552  -3.053   1.192  0.00  0.00    -0.308 N 
ATOM     10  C   UNL     1       4.463  -3.888   1.204  0.00  0.00    +0.202 A 
ATOM     11  N   UNL     1       3.326  -3.223   1.222  0.00  0.00    -0.231 NA
ATOM     12  C   UNL     1       3.698  -1.897   1.200  0.00  0.00    +0.148 A 
ENDROOT
BRANCH   9  13
ATOM     13  C   UNL     1       6.958  -3.426   1.219  0.00  0.00    +0.113 C 
ATOM     14  C   UNL     1       7.204  -4.751   1.887  0.00  0.00    -0.006 C 
ATOM     15  C   UNL     1       7.513  -5.710   1.007  0.00  0.00    -0.023 C 
ATOM     16  C   UNL     1       7.542  -5.183  -0.403  0.00  0.00    +0.039 C 
ATOM     17  C   UNL     1       7.566  -3.660  -0.176  0.00  0.00    +0.039 C 
BRANCH  16  18
ATOM     18  C   UNL     1       8.748  -5.671  -1.208  0.00  0.00    +0.163 C 
BRANCH  18  19
ATOM     19  O   UNL     1       8.639  -7.064  -1.483  0.00  0.00    -0.394 OA
ATOM     20  H   UNL     1       8.790  -7.541  -0.649  0.00  0.00    +0.209 HD
ENDBRANCH  18  19
ENDBRANCH  16  18
ENDBRANCH   9  13
BRANCH   1  21
ATOM     21  N   UNL     1       1.540  -0.738   1.205  0.00  0.00    -0.324 N 
ATOM     22  H   UNL     1       1.220  -1.692   1.040  0.00  0.00    +0.148 HD
BRANCH  21  24
ATOM     23  C   UNL     1       0.148   1.422   1.412  0.00  0.00    +0.024 C 
ATOM     24  C   UNL     1       0.813   0.363   0.581  0.00  0.00    +0.072 C 
ATOM     25  C   UNL     1      -0.686   0.424   0.664  0.00  0.00    +0.024 C 
ENDBRANCH  21  24
ENDBRANCH   1  21
TORSDOF 5
