REMARK  Name = 
REMARK  7 active torsions:
REMARK  status: ('A' for Active; 'I' for Inactive)
REMARK    1  A    between atoms: C_3  and  N_4
REMARK    2  A    between atoms: N_4  and  C_5
REMARK    3  A    between atoms: N_12  and  C_15
REMARK    4  A    between atoms: C_17  and  C_21
REMARK    5  A    between atoms: C_21  and  O_22
REMARK    6  A    between atoms: O_23  and  S_24
REMARK    7  A    between atoms: S_24  and  O_27
REMARK                            x       y       z     vdW  Elec       q    Type
REMARK                         _______ _______ _______ _____ _____    ______ ____
ROOT
ATOM      1  C   UNL     1       2.657  -1.101   1.995  0.00  0.00    +0.152 A 
ATOM      2  N   UNL     1       3.284   0.104   2.144  0.00  0.00    -0.198 NA
ATOM      3  C   UNL     1       4.629   0.169   2.216  0.00  0.00    +0.216 A 
ATOM      4  N   UNL     1       5.178   1.436   2.229  0.00  0.00    -0.327 N 
ATOM      5  H   UNL     1       4.522   2.107   1.849  0.00  0.00    +0.145 HD
ATOM      6  H   UNL     1       6.084   1.419   1.776  0.00  0.00    +0.145 HD
ATOM      7  N   UNL     1       5.481  -0.847   2.032  0.00  0.00    -0.195 NA
ATOM      8  C   UNL     1       4.850  -2.007   1.802  0.00  0.00    +0.168 A 
ATOM      9  N   UNL     1       5.401  -3.212   1.447  0.00  0.00    -0.308 N 
ATOM     10  C   UNL     1       4.357  -4.082   1.242  0.00  0.00    +0.202 A 
ATOM     11  N   UNL     1       3.186  -3.524   1.464  0.00  0.00    -0.231 NA
ATOM     12  C   UNL     1       3.482  -2.221   1.784  0.00  0.00    +0.148 A 
ENDROOT
BRANCH   9  13
ATOM     13  C   UNL     1       6.823  -3.478   1.281  0.00  0.00    +0.113 C 
ATOM     14  C   UNL     1       7.159  -4.935   1.467  0.00  0.00    -0.006 C 
ATOM     15  C   UNL     1       7.360  -5.553   0.295  0.00  0.00    -0.023 C 
ATOM     16  C   UNL     1       7.234  -4.599  -0.865  0.00  0.00    +0.039 C 
ATOM     17  C   UNL     1       7.349  -3.239  -0.150  0.00  0.00    +0.039 C 
BRANCH  16  18
ATOM     18  C   UNL     1       8.305  -4.811  -1.937  0.00  0.00    +0.163 C 
BRANCH  18  19
ATOM     19  O   UNL     1       8.055  -6.017  -2.655  0.00  0.00    -0.394 OA
ATOM     20  H   UNL     1       8.191  -6.760  -2.043  0.00  0.00    +0.209 HD
ENDBRANCH  18  19
ENDBRANCH  16  18
ENDBRANCH   9  13
BRANCH   1  21
ATOM     21  N   UNL     1       1.258  -1.187   1.832  0.00  0.00    -0.324 N 
ATOM     22  H   UNL     1       0.989  -2.172   1.815  0.00  0.00    +0.148 HD
BRANCH  21  24
ATOM     23  C   UNL     1      -1.035  -0.070   2.053  0.00  0.00    +0.024 C 
ATOM     24  C   UNL     1       0.378  -0.262   2.543  0.00  0.00    +0.072 C 
ATOM     25  C   UNL     1      -0.053   1.060   1.974  0.00  0.00    +0.024 C 
ENDBRANCH  21  24
ENDBRANCH   1  21
TORSDOF 5
REMARK  Name = 
REMARK  7 active torsions:
REMARK  status: ('A' for Active; 'I' for Inactive)
REMARK    1  A    between atoms: C_3  and  N_4
REMARK    2  A    between atoms: N_4  and  C_5
REMARK    3  A    between atoms: N_12  and  C_15
REMARK    4  A    between atoms: C_17  and  C_21
REMARK    5  A    between atoms: C_21  and  O_22
REMARK    6  A    between atoms: O_23  and  S_24
REMARK    7  A    between atoms: S_24  and  O_27
REMARK                            x       y       z     vdW  Elec       q    Type
REMARK                         _______ _______ _______ _____ _____    ______ ____
ROOT
ATOM      1  S   UNL     1       3.642   0.946  -1.755  0.00  0.00    +0.205 S 
ATOM      2  O   UNL     1       4.711   1.837  -1.383  0.00  0.00    -0.118 OA
ATOM      3  O   UNL     1       3.399   0.506  -3.109  0.00  0.00    -0.118 OA
ENDROOT
BRANCH   1   4
ATOM      4  O   UNL     1       2.266   1.545  -1.199  0.00  0.00    -0.231 OA
ATOM      5  H   UNL     1       1.545   0.936  -1.460  0.00  0.00    +0.247 HD
ENDBRANCH   1   4
BRANCH   1   6
ATOM      6  O   UNL     1       3.766  -0.349  -0.833  0.00  0.00    -0.231 OA
ATOM      7  H   UNL     1       3.574  -0.044   0.077  0.00  0.00    +0.247 HD
ENDBRANCH   1   6
TORSDOF 2
