REMARK  Name = 
REMARK  7 active torsions:
REMARK  status: ('A' for Active; 'I' for Inactive)
REMARK    1  A    between atoms: C_3  and  N_4
REMARK    2  A    between atoms: N_4  and  C_5
REMARK    3  A    between atoms: N_12  and  C_15
REMARK    4  A    between atoms: C_17  and  C_21
REMARK    5  A    between atoms: C_21  and  O_22
REMARK    6  A    between atoms: O_23  and  S_24
REMARK    7  A    between atoms: S_24  and  O_27
REMARK                            x       y       z     vdW  Elec       q    Type
REMARK                         _______ _______ _______ _____ _____    ______ ____
ROOT
ATOM      1  C   UNL     1       2.621  -1.099   1.962  0.00  0.00    +0.152 A 
ATOM      2  N   UNL     1       3.246   0.104   2.119  0.00  0.00    -0.198 NA
ATOM      3  C   UNL     1       4.592   0.171   2.180  0.00  0.00    +0.216 A 
ATOM      4  N   UNL     1       5.142   1.435   2.219  0.00  0.00    -0.327 N 
ATOM      5  H   UNL     1       4.485   2.112   1.849  0.00  0.00    +0.145 HD
ATOM      6  H   UNL     1       6.049   1.425   1.769  0.00  0.00    +0.145 HD
ATOM      7  N   UNL     1       5.443  -0.846   1.992  0.00  0.00    -0.195 NA
ATOM      8  C   UNL     1       4.811  -2.005   1.760  0.00  0.00    +0.168 A 
ATOM      9  N   UNL     1       5.363  -3.210   1.408  0.00  0.00    -0.308 N 
ATOM     10  C   UNL     1       4.320  -4.078   1.194  0.00  0.00    +0.202 A 
ATOM     11  N   UNL     1       3.147  -3.520   1.415  0.00  0.00    -0.231 NA
ATOM     12  C   UNL     1       3.442  -2.216   1.741  0.00  0.00    +0.148 A 
ENDROOT
BRANCH   9  13
ATOM     13  C   UNL     1       6.786  -3.480   1.264  0.00  0.00    +0.113 C 
ATOM     14  C   UNL     1       7.118  -4.936   1.443  0.00  0.00    -0.006 C 
ATOM     15  C   UNL     1       7.368  -5.543   0.280  0.00  0.00    -0.023 C 
ATOM     16  C   UNL     1       7.277  -4.582  -0.876  0.00  0.00    +0.039 C 
ATOM     17  C   UNL     1       7.341  -3.223  -0.151  0.00  0.00    +0.039 C 
BRANCH  16  18
ATOM     18  C   UNL     1       8.400  -4.767  -1.901  0.00  0.00    +0.163 C 
BRANCH  18  19
ATOM     19  O   UNL     1       8.209  -5.974  -2.633  0.00  0.00    -0.394 OA
ATOM     20  H   UNL     1       8.343  -6.716  -2.022  0.00  0.00    +0.209 HD
ENDBRANCH  18  19
ENDBRANCH  16  18
ENDBRANCH   9  13
BRANCH   1  21
ATOM     21  N   UNL     1       1.221  -1.183   1.810  0.00  0.00    -0.324 N 
ATOM     22  H   UNL     1       0.949  -2.167   1.783  0.00  0.00    +0.148 HD
BRANCH  21  24
ATOM     23  C   UNL     1      -1.062  -0.053   2.037  0.00  0.00    +0.024 C 
ATOM     24  C   UNL     1       0.347  -0.261   2.530  0.00  0.00    +0.072 C 
ATOM     25  C   UNL     1      -0.071   1.071   1.977  0.00  0.00    +0.024 C 
ENDBRANCH  21  24
ENDBRANCH   1  21
TORSDOF 5
REMARK  Name = 
REMARK  7 active torsions:
REMARK  status: ('A' for Active; 'I' for Inactive)
REMARK    1  A    between atoms: C_3  and  N_4
REMARK    2  A    between atoms: N_4  and  C_5
REMARK    3  A    between atoms: N_12  and  C_15
REMARK    4  A    between atoms: C_17  and  C_21
REMARK    5  A    between atoms: C_21  and  O_22
REMARK    6  A    between atoms: O_23  and  S_24
REMARK    7  A    between atoms: S_24  and  O_27
REMARK                            x       y       z     vdW  Elec       q    Type
REMARK                         _______ _______ _______ _____ _____    ______ ____
ROOT
ATOM      1  S   UNL     1       3.710   0.978  -1.777  0.00  0.00    +0.205 S 
ATOM      2  O   UNL     1       4.869   1.763  -1.430  0.00  0.00    -0.118 OA
ATOM      3  O   UNL     1       3.350   0.629  -3.129  0.00  0.00    -0.118 OA
ENDROOT
BRANCH   1   4
ATOM      4  O   UNL     1       2.421   1.675  -1.125  0.00  0.00    -0.231 OA
ATOM      5  H   UNL     1       1.631   1.311  -1.577  0.00  0.00    +0.247 HD
ENDBRANCH   1   4
BRANCH   1   6
ATOM      6  O   UNL     1       3.764  -0.367  -0.917  0.00  0.00    -0.231 OA
ATOM      7  H   UNL     1       3.509  -0.111  -0.006  0.00  0.00    +0.247 HD
ENDBRANCH   1   6
TORSDOF 2
