REMARK  Name = 
REMARK  5 active torsions:
REMARK  status: ('A' for Active; 'I' for Inactive)
REMARK    1  A    between atoms: C_3  and  N_4
REMARK    2  A    between atoms: N_4  and  C_5
REMARK    3  A    between atoms: N_12  and  C_15
REMARK    4  A    between atoms: C_17  and  C_21
REMARK    5  A    between atoms: C_21  and  O_22
REMARK                            x       y       z     vdW  Elec       q    Type
REMARK                         _______ _______ _______ _____ _____    ______ ____
ROOT
ATOM      1  C   UNL     1       2.953  -0.708   1.181  0.00  0.00    +0.152 A 
ATOM      2  N   UNL     1       3.638   0.465   1.113  0.00  0.00    -0.198 NA
ATOM      3  C   UNL     1       4.981   0.450   1.064  0.00  0.00    +0.216 A 
ATOM      4  N   UNL     1       5.598   1.685   0.995  0.00  0.00    -0.327 N 
ATOM      5  H   UNL     1       4.967   2.386   1.360  0.00  0.00    +0.145 HD
ATOM      6  H   UNL     1       6.522   1.635   1.397  0.00  0.00    +0.145 HD
ATOM      7  N   UNL     1       5.781  -0.630   1.107  0.00  0.00    -0.195 NA
ATOM      8  C   UNL     1       5.076  -1.770   1.159  0.00  0.00    +0.168 A 
ATOM      9  N   UNL     1       5.552  -3.056   1.188  0.00  0.00    -0.308 N 
ATOM     10  C   UNL     1       4.460  -3.889   1.201  0.00  0.00    +0.202 A 
ATOM     11  N   UNL     1       3.325  -3.223   1.219  0.00  0.00    -0.231 NA
ATOM     12  C   UNL     1       3.700  -1.897   1.197  0.00  0.00    +0.148 A 
ENDROOT
BRANCH   9  13
ATOM     13  C   UNL     1       6.957  -3.431   1.217  0.00  0.00    +0.113 C 
ATOM     14  C   UNL     1       7.198  -4.757   1.882  0.00  0.00    -0.006 C 
ATOM     15  C   UNL     1       7.506  -5.714   0.999  0.00  0.00    -0.023 C 
ATOM     16  C   UNL     1       7.544  -5.183  -0.408  0.00  0.00    +0.039 C 
ATOM     17  C   UNL     1       7.569  -3.661  -0.177  0.00  0.00    +0.039 C 
BRANCH  16  18
ATOM     18  C   UNL     1       8.755  -5.669  -1.208  0.00  0.00    +0.163 C 
BRANCH  18  19
ATOM     19  O   UNL     1       8.643  -7.061  -1.492  0.00  0.00    -0.394 OA
ATOM     20  H   UNL     1       8.781  -7.543  -0.659  0.00  0.00    +0.209 HD
ENDBRANCH  18  19
ENDBRANCH  16  18
ENDBRANCH   9  13
BRANCH   1  21
ATOM     21  N   UNL     1       1.544  -0.734   1.204  0.00  0.00    -0.324 N 
ATOM     22  H   UNL     1       1.222  -1.687   1.039  0.00  0.00    +0.148 HD
BRANCH  21  24
ATOM     23  C   UNL     1       0.158   1.429   1.413  0.00  0.00    +0.024 C 
ATOM     24  C   UNL     1       0.819   0.369   0.581  0.00  0.00    +0.072 C 
ATOM     25  C   UNL     1      -0.680   0.435   0.664  0.00  0.00    +0.024 C 
ENDBRANCH  21  24
ENDBRANCH   1  21
TORSDOF 5
