REMARK  Name = 
REMARK  3 active torsions:
REMARK  status: ('A' for Active; 'I' for Inactive)
REMARK    1  A    between atoms: C_2  and  N_10
REMARK    2  A    between atoms: C_5  and  C_8
REMARK    3  A    between atoms: C_8  and  O_9
REMARK                            x       y       z     vdW  Elec       q    Type
REMARK                         _______ _______ _______ _____ _____    ______ ____
ROOT
ATOM      1  N   UNL     1      -1.193   0.360   1.834  0.00  0.00    -0.272 N 
ATOM      2  C   UNL     1      -2.300  -0.301   2.385  0.00  0.00    +0.352 A 
ATOM      3  O   UNL     1      -3.093  -0.905   1.666  0.00  0.00    -0.244 OA
ATOM      4  N   UNL     1      -2.488  -0.255   3.747  0.00  0.00    -0.178 NA
ATOM      5  C   UNL     1      -1.713   0.476   4.484  0.00  0.00    +0.123 A 
ATOM      6  N   UNL     1      -1.966   0.512   5.826  0.00  0.00    -0.343 N 
ATOM      7  H   UNL     1      -2.599  -0.219   6.134  0.00  0.00    +0.144 HD
ATOM      8  H   UNL     1      -1.191   0.683   6.454  0.00  0.00    +0.144 HD
ATOM      9  C   UNL     1      -0.597   1.264   3.941  0.00  0.00    +0.061 A 
ATOM     10  C   UNL     1      -0.411   1.177   2.625  0.00  0.00    +0.096 A 
ENDROOT
BRANCH   1  15
ATOM     11  C   UNL     1      -0.933  -1.055  -0.289  0.00  0.00    +0.126 C 
ATOM     12  S   UNL     1       0.804  -1.501  -0.110  0.00  0.00    -0.123 S 
ATOM     13  C   UNL     1       1.289   0.236   0.030  0.00  0.00    +0.203 C 
ATOM     14  O   UNL     1       0.122   1.074  -0.050  0.00  0.00    -0.340 OA
ATOM     15  C   UNL     1      -1.042   0.331   0.370  0.00  0.00    +0.235 C 
BRANCH  13  16
ATOM     16  C   UNL     1       2.287   0.638  -1.065  0.00  0.00    +0.198 C 
BRANCH  16  17
ATOM     17  O   UNL     1       1.778   0.404  -2.380  0.00  0.00    -0.392 OA
ATOM     18  H   UNL     1       1.419  -0.502  -2.379  0.00  0.00    +0.210 HD
ENDBRANCH  16  17
ENDBRANCH  13  16
ENDBRANCH   1  15
TORSDOF 3
