REMARK  Name = 
REMARK  3 active torsions:
REMARK  status: ('A' for Active; 'I' for Inactive)
REMARK    1  A    between atoms: C_2  and  N_10
REMARK    2  A    between atoms: C_5  and  C_8
REMARK    3  A    between atoms: C_8  and  O_9
REMARK                            x       y       z     vdW  Elec       q    Type
REMARK                         _______ _______ _______ _____ _____    ______ ____
ROOT
ATOM      1  N   UNL     1      -1.189   0.352   1.840  0.00  0.00    -0.272 N 
ATOM      2  C   UNL     1      -2.291  -0.318   2.391  0.00  0.00    +0.352 A 
ATOM      3  O   UNL     1      -3.082  -0.926   1.674  0.00  0.00    -0.244 OA
ATOM      4  N   UNL     1      -2.476  -0.276   3.754  0.00  0.00    -0.178 NA
ATOM      5  C   UNL     1      -1.701   0.455   4.491  0.00  0.00    +0.123 A 
ATOM      6  N   UNL     1      -1.953   0.490   5.832  0.00  0.00    -0.343 N 
ATOM      7  H   UNL     1      -2.586  -0.241   6.138  0.00  0.00    +0.144 HD
ATOM      8  H   UNL     1      -1.179   0.659   6.461  0.00  0.00    +0.144 HD
ATOM      9  C   UNL     1      -0.588   1.249   3.947  0.00  0.00    +0.061 A 
ATOM     10  C   UNL     1      -0.409   1.171   2.630  0.00  0.00    +0.096 A 
ENDROOT
BRANCH   1  15
ATOM     11  C   UNL     1      -0.934  -1.057  -0.291  0.00  0.00    +0.126 C 
ATOM     12  S   UNL     1       0.804  -1.503  -0.118  0.00  0.00    -0.123 S 
ATOM     13  C   UNL     1       1.287   0.233   0.030  0.00  0.00    +0.203 C 
ATOM     14  O   UNL     1       0.122   1.070  -0.049  0.00  0.00    -0.340 OA
ATOM     15  C   UNL     1      -1.042   0.327   0.375  0.00  0.00    +0.235 C 
BRANCH  13  16
ATOM     16  C   UNL     1       2.286   0.640  -1.063  0.00  0.00    +0.198 C 
BRANCH  16  17
ATOM     17  O   UNL     1       1.777   0.415  -2.379  0.00  0.00    -0.392 OA
ATOM     18  H   UNL     1       1.417  -0.492  -2.382  0.00  0.00    +0.210 HD
ENDBRANCH  16  17
ENDBRANCH  13  16
ENDBRANCH   1  15
TORSDOF 3
