REMARK  Name = 
REMARK  27 active torsions:
REMARK  status: ('A' for Active; 'I' for Inactive)
REMARK    1  A    between atoms: C_1  and  C_2
REMARK    2  A    between atoms: C_2  and  C_3
REMARK    3  A    between atoms: C_2  and  C_4
REMARK    4  A    between atoms: C_2  and  C_5
REMARK    5  A    between atoms: C_5  and  C_7
REMARK    6  A    between atoms: C_5  and  N_50
REMARK    7  A    between atoms: N_9  and  C_10
REMARK    8  A    between atoms: C_10  and  C_11
REMARK    9  A    between atoms: C_10  and  C_18
REMARK   10  A    between atoms: C_11  and  C_12
REMARK   11  A    between atoms: C_18  and  C_20
REMARK   12  A    between atoms: C_18  and  O_49
REMARK   13  A    between atoms: C_20  and  N_21
REMARK   14  A    between atoms: N_21  and  C_22
REMARK   15  A    between atoms: N_21  and  N_35
REMARK   16  A    between atoms: C_22  and  C_23
REMARK   17  A    between atoms: C_26  and  C_29
REMARK   18  A    between atoms: C_36  and  C_38
REMARK   19  A    between atoms: C_38  and  C_40
REMARK   20  A    between atoms: C_38  and  N_44
REMARK   21  A    between atoms: C_40  and  C_41
REMARK   22  A    between atoms: C_40  and  C_42
REMARK   23  A    between atoms: C_40  and  C_43
REMARK   24  A    between atoms: C_45  and  O_47
REMARK   25  A    between atoms: O_47  and  C_48
REMARK   26  A    between atoms: C_51  and  O_53
REMARK   27  A    between atoms: O_53  and  C_54
REMARK                            x       y       z     vdW  Elec       q    Type
REMARK                         _______ _______ _______ _____ _____    ______ ____
ROOT
ATOM      1  N   UNL     1      -1.950   2.070  -5.548  0.00  0.00    -0.220 NA
ENDROOT
BRANCH   1   2
ATOM      2  N   UNL     1      -2.119   1.833  -4.120  0.00  0.00    -0.246 N 
ATOM      3  H   UNL     1      -1.999   0.866  -3.825  0.00  0.00    +0.169 HD
ATOM      4  C   UNL     1      -1.834   2.774  -3.117  0.00  0.00    +0.248 C 
ATOM      5  O   UNL     1      -1.538   3.950  -3.328  0.00  0.00    -0.272 OA
BRANCH   4   6
ATOM      6  C   UNL     1      -1.928   2.213  -1.634  0.00  0.00    +0.169 C 
BRANCH   6   7
ATOM      7  C   UNL     1      -3.366   1.759  -1.180  0.00  0.00    -0.011 C 
ATOM      8  C   UNL     1      -3.381   1.242   0.284  0.00  0.00    +0.013 C 
ATOM      9  C   UNL     1      -3.889   0.589  -2.035  0.00  0.00    +0.013 C 
ATOM     10  C   UNL     1      -4.351   2.938  -1.272  0.00  0.00    +0.013 C 
ENDBRANCH   6   7
BRANCH   6  11
ATOM     11  N   UNL     1      -1.413   3.255  -0.729  0.00  0.00    -0.269 N 
ATOM     12  H   UNL     1      -1.696   4.214  -0.887  0.00  0.00    +0.153 HD
ATOM     13  C   UNL     1      -0.634   3.016   0.363  0.00  0.00    +0.401 C 
ATOM     14  O   UNL     1      -0.178   1.926   0.667  0.00  0.00    -0.226 OA
BRANCH  13  15
ATOM     15  O   UNL     1      -0.489   4.157   1.083  0.00  0.00    -0.454 OA
ATOM     16  C   UNL     1       0.239   3.996   2.304  0.00  0.00    +0.282 C 
ENDBRANCH  13  15
ENDBRANCH   6  11
ENDBRANCH   4   6
ENDBRANCH   1   2
BRANCH   1  17
ATOM     17  C   UNL     1      -2.109   0.830  -6.349  0.00  0.00    +0.139 C 
BRANCH  17  18
ATOM     18  C   UNL     1      -1.578   0.618  -7.844  0.00  0.00    +0.151 C 
BRANCH  18  19
ATOM     19  O   UNL     1      -1.959  -0.735  -8.205  0.00  0.00    -0.389 OA
ATOM     20  H   UNL     1      -2.934  -0.757  -8.236  0.00  0.00    +0.210 HD
ENDBRANCH  18  19
BRANCH  18  21
ATOM     21  C   UNL     1      -0.028   0.789  -8.191  0.00  0.00    +0.107 C 
BRANCH  21  23
ATOM     22  C   UNL     1       0.110   1.525 -10.647  0.00  0.00    +0.234 C 
ATOM     23  N   UNL     1       0.318   0.584  -9.665  0.00  0.00    -0.308 N 
ATOM     24  H   UNL     1       0.846  -0.246  -9.937  0.00  0.00    +0.149 HD
ATOM     25  O   UNL     1      -0.561   2.530 -10.370  0.00  0.00    -0.274 OA
BRANCH  22  26
ATOM     26  C   UNL     1       0.595   1.335 -12.146  0.00  0.00    +0.167 C 
BRANCH  26  28
ATOM     27  C   UNL     1      -1.764   0.713 -12.841  0.00  0.00    +0.013 C 
ATOM     28  C   UNL     1      -0.275   0.337 -12.998  0.00  0.00    -0.011 C 
ATOM     29  C   UNL     1       0.037   0.414 -14.518  0.00  0.00    +0.013 C 
ATOM     30  C   UNL     1      -0.049  -1.123 -12.571  0.00  0.00    +0.013 C 
ENDBRANCH  26  28
BRANCH  26  31
ATOM     31  N   UNL     1       2.043   1.134 -12.333  0.00  0.00    -0.269 N 
ATOM     32  H   UNL     1       2.560   0.484 -11.763  0.00  0.00    +0.153 HD
ATOM     33  C   UNL     1       2.755   1.752 -13.334  0.00  0.00    +0.401 C 
ATOM     34  O   UNL     1       2.304   2.575 -14.121  0.00  0.00    -0.226 OA
BRANCH  33  35
ATOM     35  O   UNL     1       4.034   1.297 -13.348  0.00  0.00    -0.454 OA
ATOM     36  C   UNL     1       4.892   1.850 -14.362  0.00  0.00    +0.282 C 
ENDBRANCH  33  35
ENDBRANCH  26  31
ENDBRANCH  22  26
ENDBRANCH  21  23
BRANCH  21  37
ATOM     37  C   UNL     1       0.909  -0.117  -7.334  0.00  0.00    +0.060 C 
BRANCH  37  38
ATOM     38  C   UNL     1       2.385   0.258  -7.455  0.00  0.00    -0.046 A 
ATOM     39  C   UNL     1       3.345  -0.647  -7.940  0.00  0.00    +0.004 A 
ATOM     40  C   UNL     1       4.688  -0.269  -8.066  0.00  0.00    +0.000 A 
ATOM     41  C   UNL     1       5.094   1.015  -7.703  0.00  0.00    +0.000 A 
ATOM     42  C   UNL     1       4.164   1.909  -7.194  0.00  0.00    +0.000 A 
ATOM     43  C   UNL     1       2.822   1.531  -7.059  0.00  0.00    +0.004 A 
ENDBRANCH  37  38
ENDBRANCH  21  37
ENDBRANCH  18  21
ENDBRANCH  17  18
ENDBRANCH   1  17
BRANCH   1  44
ATOM     44  C   UNL     1      -2.518   3.330  -6.113  0.00  0.00    +0.140 C 
BRANCH  44  45
ATOM     45  C   UNL     1      -3.970   3.832  -6.018  0.00  0.00    -0.032 A 
ATOM     46  C   UNL     1      -4.250   5.081  -6.638  0.00  0.00    +0.005 A 
ATOM     47  C   UNL     1      -5.453   5.805  -6.435  0.00  0.00    +0.010 A 
ATOM     48  C   UNL     1      -6.457   5.313  -5.596  0.00  0.00    +0.000 A 
ATOM     49  C   UNL     1      -6.237   3.993  -5.118  0.00  0.00    +0.010 A 
ATOM     50  C   UNL     1      -5.029   3.274  -5.308  0.00  0.00    +0.005 A 
BRANCH  48  51
ATOM     51  C   UNL     1      -7.588   6.135  -5.041  0.00  0.00    +0.071 A 
ATOM     52  N   UNL     1      -8.439   5.444  -4.232  0.00  0.00    -0.255 NA
ATOM     53  C   UNL     1      -9.204   6.126  -3.352  0.00  0.00    +0.111 A 
ATOM     54  C   UNL     1      -9.192   7.499  -3.227  0.00  0.00    +0.020 A 
ATOM     55  C   UNL     1      -8.438   8.217  -4.143  0.00  0.00    +0.004 A 
ATOM     56  C   UNL     1      -7.649   7.534  -5.082  0.00  0.00    +0.028 A 
ENDBRANCH  48  51
ENDBRANCH  44  45
ENDBRANCH   1  44
TORSDOF 19
