REMARK  Name = 
REMARK  27 active torsions:
REMARK  status: ('A' for Active; 'I' for Inactive)
REMARK    1  A    between atoms: C_1  and  C_2
REMARK    2  A    between atoms: C_2  and  C_3
REMARK    3  A    between atoms: C_2  and  C_4
REMARK    4  A    between atoms: C_2  and  C_5
REMARK    5  A    between atoms: C_5  and  C_7
REMARK    6  A    between atoms: C_5  and  N_50
REMARK    7  A    between atoms: N_9  and  C_10
REMARK    8  A    between atoms: C_10  and  C_11
REMARK    9  A    between atoms: C_10  and  C_18
REMARK   10  A    between atoms: C_11  and  C_12
REMARK   11  A    between atoms: C_18  and  C_20
REMARK   12  A    between atoms: C_18  and  O_49
REMARK   13  A    between atoms: C_20  and  N_21
REMARK   14  A    between atoms: N_21  and  C_22
REMARK   15  A    between atoms: N_21  and  N_35
REMARK   16  A    between atoms: C_22  and  C_23
REMARK   17  A    between atoms: C_26  and  C_29
REMARK   18  A    between atoms: C_36  and  C_38
REMARK   19  A    between atoms: C_38  and  C_40
REMARK   20  A    between atoms: C_38  and  N_44
REMARK   21  A    between atoms: C_40  and  C_41
REMARK   22  A    between atoms: C_40  and  C_42
REMARK   23  A    between atoms: C_40  and  C_43
REMARK   24  A    between atoms: C_45  and  O_47
REMARK   25  A    between atoms: O_47  and  C_48
REMARK   26  A    between atoms: C_51  and  O_53
REMARK   27  A    between atoms: O_53  and  C_54
REMARK                            x       y       z     vdW  Elec       q    Type
REMARK                         _______ _______ _______ _____ _____    ______ ____
ROOT
ATOM      1  N   UNL     1      -1.975  -1.075   5.643  0.00  0.00    -0.220 NA
ENDROOT
BRANCH   1   2
ATOM      2  N   UNL     1      -2.107  -1.142   4.210  0.00  0.00    -0.246 N 
ATOM      3  H   UNL     1      -1.705  -0.392   3.661  0.00  0.00    +0.169 HD
ATOM      4  C   UNL     1      -2.344  -2.323   3.496  0.00  0.00    +0.248 C 
ATOM      5  O   UNL     1      -2.446  -3.446   3.989  0.00  0.00    -0.272 OA
BRANCH   4   6
ATOM      6  C   UNL     1      -2.327  -2.156   1.947  0.00  0.00    +0.169 C 
BRANCH   6   7
ATOM      7  C   UNL     1      -0.971  -2.634   1.331  0.00  0.00    -0.011 C 
ATOM      8  C   UNL     1      -1.064  -2.650  -0.210  0.00  0.00    +0.013 C 
ATOM      9  C   UNL     1      -0.660  -4.083   1.773  0.00  0.00    +0.013 C 
ATOM     10  C   UNL     1       0.203  -1.732   1.750  0.00  0.00    +0.013 C 
ENDBRANCH   6   7
BRANCH   6  11
ATOM     11  N   UNL     1      -2.694  -0.794   1.552  0.00  0.00    -0.269 N 
ATOM     12  H   UNL     1      -2.017  -0.124   1.216  0.00  0.00    +0.153 HD
ATOM     13  C   UNL     1      -4.000  -0.400   1.480  0.00  0.00    +0.401 C 
ATOM     14  O   UNL     1      -4.966  -1.103   1.728  0.00  0.00    -0.226 OA
BRANCH  13  15
ATOM     15  O   UNL     1      -4.045   0.905   1.104  0.00  0.00    -0.454 OA
ATOM     16  C   UNL     1      -5.371   1.443   1.065  0.00  0.00    +0.282 C 
ENDBRANCH  13  15
ENDBRANCH   6  11
ENDBRANCH   4   6
ENDBRANCH   1   2
BRANCH   1  17
ATOM     17  C   UNL     1      -2.142   0.331   6.174  0.00  0.00    +0.139 C 
BRANCH  17  18
ATOM     18  C   UNL     1      -1.303   1.508   5.605  0.00  0.00    +0.151 C 
BRANCH  18  19
ATOM     19  O   UNL     1       0.094   1.295   5.860  0.00  0.00    -0.389 OA
ATOM     20  H   UNL     1       0.288   0.381   5.579  0.00  0.00    +0.210 HD
ENDBRANCH  18  19
BRANCH  18  21
ATOM     21  C   UNL     1      -1.714   2.975   6.097  0.00  0.00    +0.107 C 
BRANCH  21  23
ATOM     22  C   UNL     1      -2.633   2.831   8.477  0.00  0.00    +0.234 C 
ATOM     23  N   UNL     1      -1.670   3.210   7.567  0.00  0.00    -0.308 N 
ATOM     24  H   UNL     1      -0.877   3.742   7.903  0.00  0.00    +0.149 HD
ATOM     25  O   UNL     1      -3.657   2.236   8.123  0.00  0.00    -0.274 OA
BRANCH  22  26
ATOM     26  C   UNL     1      -2.368   3.099  10.011  0.00  0.00    +0.167 C 
BRANCH  26  27
ATOM     27  N   UNL     1      -3.678   2.924  10.650  0.00  0.00    -0.269 N 
ATOM     28  H   UNL     1      -4.351   2.338  10.171  0.00  0.00    +0.153 HD
ATOM     29  C   UNL     1      -4.126   3.506  11.795  0.00  0.00    +0.401 C 
ATOM     30  O   UNL     1      -3.508   4.294  12.489  0.00  0.00    -0.226 OA
BRANCH  29  31
ATOM     31  O   UNL     1      -5.371   3.021  12.053  0.00  0.00    -0.454 OA
ATOM     32  C   UNL     1      -6.016   3.472  13.252  0.00  0.00    +0.282 C 
ENDBRANCH  29  31
ENDBRANCH  26  27
BRANCH  26  34
ATOM     33  C   UNL     1       0.096   2.458  10.015  0.00  0.00    +0.013 C 
ATOM     34  C   UNL     1      -1.291   2.118  10.598  0.00  0.00    -0.011 C 
ATOM     35  C   UNL     1      -1.158   2.194  12.135  0.00  0.00    +0.013 C 
ATOM     36  C   UNL     1      -1.669   0.661  10.272  0.00  0.00    +0.013 C 
ENDBRANCH  26  34
ENDBRANCH  22  26
ENDBRANCH  21  23
BRANCH  21  37
ATOM     37  C   UNL     1      -3.029   3.452   5.413  0.00  0.00    +0.060 C 
BRANCH  37  38
ATOM     38  C   UNL     1      -3.354   4.941   5.417  0.00  0.00    -0.046 A 
ATOM     39  C   UNL     1      -4.469   5.407   6.133  0.00  0.00    +0.004 A 
ATOM     40  C   UNL     1      -4.897   6.735   6.021  0.00  0.00    +0.000 A 
ATOM     41  C   UNL     1      -4.219   7.622   5.190  0.00  0.00    +0.000 A 
ATOM     42  C   UNL     1      -3.092   7.186   4.496  0.00  0.00    +0.000 A 
ATOM     43  C   UNL     1      -2.658   5.858   4.609  0.00  0.00    +0.004 A 
ENDBRANCH  37  38
ENDBRANCH  21  37
ENDBRANCH  18  21
ENDBRANCH  17  18
ENDBRANCH   1  17
BRANCH   1  44
ATOM     44  C   UNL     1      -2.950  -1.995   6.381  0.00  0.00    +0.140 C 
BRANCH  44  45
ATOM     45  C   UNL     1      -4.433  -1.707   6.132  0.00  0.00    -0.032 A 
ATOM     46  C   UNL     1      -5.063  -0.664   6.811  0.00  0.00    +0.005 A 
ATOM     47  C   UNL     1      -6.196  -0.042   6.264  0.00  0.00    +0.010 A 
ATOM     48  C   UNL     1      -6.791  -0.482   5.067  0.00  0.00    +0.000 A 
ATOM     49  C   UNL     1      -6.320  -1.716   4.585  0.00  0.00    +0.010 A 
ATOM     50  C   UNL     1      -5.160  -2.323   5.110  0.00  0.00    +0.005 A 
BRANCH  48  51
ATOM     51  C   UNL     1      -7.753   0.394   4.322  0.00  0.00    +0.071 A 
ATOM     52  N   UNL     1      -7.873   1.665   4.803  0.00  0.00    -0.255 NA
ATOM     53  C   UNL     1      -8.583   2.571   4.086  0.00  0.00    +0.111 A 
ATOM     54  C   UNL     1      -9.192   2.297   2.881  0.00  0.00    +0.020 A 
ATOM     55  C   UNL     1      -9.100   1.003   2.394  0.00  0.00    +0.004 A 
ATOM     56  C   UNL     1      -8.387   0.042   3.125  0.00  0.00    +0.028 A 
ENDBRANCH  48  51
ENDBRANCH  44  45
ENDBRANCH   1  44
TORSDOF 19
