REMARK  Name = 
REMARK  6 active torsions:
REMARK  status: ('A' for Active; 'I' for Inactive)
REMARK    1  A    between atoms: C_3  and  C_19
REMARK    2  A    between atoms: N_5  and  C1*_6
REMARK    3  A    between atoms: C2*_8  and  O2*_18
REMARK    4  A    between atoms: C3*_10  and  O3*_17
REMARK    5  A    between atoms: C4*_12  and  C5*_15
REMARK    6  A    between atoms: C5*_15  and  O5*_16
REMARK                            x       y       z     vdW  Elec       q    Type
REMARK                         _______ _______ _______ _____ _____    ______ ____
ROOT
ATOM      1  C1* UNL     1      -0.812  -2.685  -0.109  0.00  0.00    +0.270 C 
ATOM      2  O4* UNL     1      -1.210  -3.102   1.223  0.00  0.00    -0.344 OA
ATOM      3  C4* UNL     1      -1.061  -4.541   1.317  0.00  0.00    +0.177 C 
ATOM      4  C3* UNL     1      -0.538  -5.031  -0.037  0.00  0.00    +0.178 C 
ATOM      5  C2* UNL     1       0.074  -3.794  -0.673  0.00  0.00    +0.196 C 
ENDROOT
BRANCH   1   7
ATOM      6  C   UNL     1      -3.297  -2.627  -0.653  0.00  0.00    +0.223 A 
ATOM      7  N   UNL     1      -1.983  -2.435  -0.941  0.00  0.00    -0.220 N 
ATOM      8  N   UNL     1      -1.823  -2.008  -2.208  0.00  0.00    -0.142 NA
ATOM      9  C   UNL     1      -3.089  -1.984  -2.666  0.00  0.00    +0.236 A 
ATOM     10  N   UNL     1      -4.024  -2.373  -1.716  0.00  0.00    -0.211 NA
BRANCH   9  11
ATOM     11  C   UNL     1      -3.467  -1.612  -4.045  0.00  0.00    +0.281 C 
ATOM     12  N   UNL     1      -4.806  -1.738  -4.311  0.00  0.00    -0.323 N 
ATOM     13  H   UNL     1      -5.140  -1.537  -5.242  0.00  0.00    +0.145 HD
ATOM     14  H   UNL     1      -5.432  -2.081  -3.594  0.00  0.00    +0.145 HD
ATOM     15  O   UNL     1      -2.685  -1.233  -4.914  0.00  0.00    -0.267 OA
ENDBRANCH   9  11
ENDBRANCH   1   7
BRANCH   4  16
ATOM     16  O3* UNL     1       0.369  -6.116   0.034  0.00  0.00    -0.386 OA
ATOM     17  H3* UNL     1       1.204  -5.733   0.383  0.00  0.00    +0.210 HD
ENDBRANCH   4  16
BRANCH   5  18
ATOM     18  O2* UNL     1       1.434  -3.641  -0.234  0.00  0.00    -0.385 OA
ATOM     19  H2* UNL     1       1.850  -2.969  -0.805  0.00  0.00    +0.210 HD
ENDBRANCH   5  18
BRANCH   3  20
ATOM     20  C5* UNL     1      -0.234  -4.922   2.552  0.00  0.00    +0.190 C 
BRANCH  20  21
ATOM     21  O5* UNL     1       1.115  -4.476   2.480  0.00  0.00    -0.392 OA
ATOM     22  H5* UNL     1       1.098  -3.503   2.491  0.00  0.00    +0.210 HD
ENDBRANCH  20  21
ENDBRANCH   3  20
TORSDOF 6
