REMARK  Name = 
REMARK  5 active torsions:
REMARK  status: ('A' for Active; 'I' for Inactive)
REMARK    1  A    between atoms: C3*_2  and  O3*_22
REMARK    2  A    between atoms: C4*_4  and  C5*_20
REMARK    3  A    between atoms: C1*_7  and  N_9
REMARK    4  A    between atoms: C_11  and  C_17
REMARK    5  A    between atoms: C5*_20  and  O5*_21
REMARK                            x       y       z     vdW  Elec       q    Type
REMARK                         _______ _______ _______ _____ _____    ______ ____
ROOT
ATOM      1  N   UNL     1       1.028  -1.676   1.355  0.00  0.00    -0.273 N 
ATOM      2  C   UNL     1       1.184  -3.053   1.419  0.00  0.00    +0.331 A 
ATOM      3  O   UNL     1       1.026  -3.810   0.463  0.00  0.00    -0.246 OA
ATOM      4  N   UNL     1       1.543  -3.550   2.639  0.00  0.00    -0.274 N 
ATOM      5  H   UNL     1       1.705  -4.543   2.694  0.00  0.00    +0.173 HD
ATOM      6  C   UNL     1       1.744  -2.826   3.776  0.00  0.00    +0.261 A 
ATOM      7  O   UNL     1       2.124  -3.361   4.815  0.00  0.00    -0.267 OA
ATOM      8  C   UNL     1       1.491  -1.353   3.689  0.00  0.00    +0.056 A 
ATOM      9  C   UNL     1       1.182  -0.877   2.475  0.00  0.00    +0.106 A 
ENDROOT
BRANCH   1  11
ATOM     10  C2* UNL     1      -0.879  -1.104  -0.140  0.00  0.00    +0.088 C 
ATOM     11  C1* UNL     1       0.630  -1.118   0.064  0.00  0.00    +0.226 C 
ATOM     12  O4* UNL     1       1.112   0.235  -0.067  0.00  0.00    -0.348 OA
ATOM     13  C4* UNL     1      -0.019   1.118  -0.243  0.00  0.00    +0.175 C 
ATOM     14  C3* UNL     1      -1.245   0.321   0.200  0.00  0.00    +0.150 C 
BRANCH  14  15
ATOM     15  O3* UNL     1      -2.468   0.731  -0.382  0.00  0.00    -0.389 OA
ATOM     16  H3* UNL     1      -2.436   0.528  -1.335  0.00  0.00    +0.210 HD
ENDBRANCH  14  15
BRANCH  13  17
ATOM     17  C5* UNL     1      -0.031   1.614  -1.692  0.00  0.00    +0.190 C 
BRANCH  17  18
ATOM     18  O5* UNL     1      -0.128   0.528  -2.612  0.00  0.00    -0.392 OA
ATOM     19  H5* UNL     1       0.734   0.070  -2.578  0.00  0.00    +0.210 HD
ENDBRANCH  17  18
ENDBRANCH  13  17
ENDBRANCH   1  11
BRANCH   8  20
ATOM     20  C   UNL     1       1.722  -0.537   4.870  0.00  0.00    +0.022 C 
ATOM     21  C   UNL     1       1.104   0.574   5.293  0.00  0.00    +0.052 C 
ATOM     22 BR   UNL     1      -0.311   1.490   4.527  0.00  0.00    -0.059 Br
ENDBRANCH   8  20
TORSDOF 5
