REMARK  Name = 
REMARK  6 active torsions:
REMARK  status: ('A' for Active; 'I' for Inactive)
REMARK    1  A    between atoms: C_3  and  C_19
REMARK    2  A    between atoms: N_5  and  C1*_6
REMARK    3  A    between atoms: C2*_8  and  O2*_18
REMARK    4  A    between atoms: C3*_10  and  O3*_17
REMARK    5  A    between atoms: C4*_12  and  C5*_15
REMARK    6  A    between atoms: C5*_15  and  O5*_16
REMARK                            x       y       z     vdW  Elec       q    Type
REMARK                         _______ _______ _______ _____ _____    ______ ____
ROOT
ATOM      1  C1* UNL     1      -0.909  -2.465  -0.016  0.00  0.00    +0.270 C 
ATOM      2  O4* UNL     1      -1.306  -2.895   1.305  0.00  0.00    -0.344 OA
ATOM      3  C4* UNL     1      -1.129  -4.326   1.378  0.00  0.00    +0.177 C 
ATOM      4  C3* UNL     1      -0.705  -4.809  -0.012  0.00  0.00    +0.178 C 
ATOM      5  C2* UNL     1      -0.021  -3.577  -0.582  0.00  0.00    +0.196 C 
ENDROOT
BRANCH   1   7
ATOM      6  C   UNL     1       0.441  -0.653   1.119  0.00  0.00    +0.223 A 
ATOM      7  N   UNL     1      -0.261  -1.169   0.077  0.00  0.00    -0.220 N 
ATOM      8  N   UNL     1      -0.405  -0.260  -0.908  0.00  0.00    -0.142 NA
ATOM      9  C   UNL     1       0.228   0.814  -0.399  0.00  0.00    +0.236 A 
ATOM     10  N   UNL     1       0.778   0.588   0.858  0.00  0.00    -0.211 NA
BRANCH   9  11
ATOM     11  C   UNL     1       0.325   2.122  -1.075  0.00  0.00    +0.281 C 
ATOM     12  N   UNL     1       0.984   3.081  -0.343  0.00  0.00    -0.323 N 
ATOM     13  H   UNL     1       1.073   4.009  -0.724  0.00  0.00    +0.145 HD
ATOM     14  H   UNL     1       1.334   2.853   0.578  0.00  0.00    +0.145 HD
ATOM     15  O   UNL     1      -0.133   2.388  -2.182  0.00  0.00    -0.267 OA
ENDBRANCH   9  11
ENDBRANCH   1   7
BRANCH   4  16
ATOM     16  O3* UNL     1      -1.835  -5.152  -0.827  0.00  0.00    -0.386 OA
ATOM     17  H3* UNL     1      -1.471  -5.539  -1.648  0.00  0.00    +0.210 HD
ENDBRANCH   4  16
BRANCH   5  18
ATOM     18  O2* UNL     1       0.050  -3.661  -2.003  0.00  0.00    -0.385 OA
ATOM     19  H2* UNL     1      -0.838  -3.477  -2.364  0.00  0.00    +0.210 HD
ENDBRANCH   5  18
BRANCH   3  20
ATOM     20  C5* UNL     1      -2.408  -4.963   1.912  0.00  0.00    +0.190 C 
BRANCH  20  21
ATOM     21  O5* UNL     1      -2.303  -6.379   1.943  0.00  0.00    -0.392 OA
ATOM     22  H5* UNL     1      -2.438  -6.680   1.025  0.00  0.00    +0.210 HD
ENDBRANCH  20  21
ENDBRANCH   3  20
TORSDOF 6
