REMARK  Name = 
REMARK  5 active torsions:
REMARK  status: ('A' for Active; 'I' for Inactive)
REMARK    1  A    between atoms: C3*_2  and  O3*_22
REMARK    2  A    between atoms: C4*_4  and  C5*_20
REMARK    3  A    between atoms: C1*_7  and  N_9
REMARK    4  A    between atoms: C_11  and  C_17
REMARK    5  A    between atoms: C5*_20  and  O5*_21
REMARK                            x       y       z     vdW  Elec       q    Type
REMARK                         _______ _______ _______ _____ _____    ______ ____
ROOT
ATOM      1  N   UNL     1       1.037  -1.677   1.354  0.00  0.00    -0.273 N 
ATOM      2  C   UNL     1       1.197  -3.054   1.414  0.00  0.00    +0.331 A 
ATOM      3  O   UNL     1       1.045  -3.809   0.458  0.00  0.00    -0.246 OA
ATOM      4  N   UNL     1       1.554  -3.553   2.636  0.00  0.00    -0.274 N 
ATOM      5  H   UNL     1       1.724  -4.544   2.687  0.00  0.00    +0.173 HD
ATOM      6  C   UNL     1       1.765  -2.828   3.772  0.00  0.00    +0.261 A 
ATOM      7  O   UNL     1       2.162  -3.362   4.806  0.00  0.00    -0.267 OA
ATOM      8  C   UNL     1       1.499  -1.358   3.689  0.00  0.00    +0.056 A 
ATOM      9  C   UNL     1       1.185  -0.880   2.476  0.00  0.00    +0.106 A 
ENDROOT
BRANCH   1  11
ATOM     10  C2* UNL     1      -0.873  -1.105  -0.138  0.00  0.00    +0.088 C 
ATOM     11  C1* UNL     1       0.636  -1.116   0.065  0.00  0.00    +0.226 C 
ATOM     12  O4* UNL     1       1.115   0.238  -0.064  0.00  0.00    -0.348 OA
ATOM     13  C4* UNL     1      -0.017   1.119  -0.240  0.00  0.00    +0.175 C 
ATOM     14  C3* UNL     1      -1.242   0.318   0.201  0.00  0.00    +0.150 C 
BRANCH  14  15
ATOM     15  O3* UNL     1      -2.465   0.726  -0.383  0.00  0.00    -0.389 OA
ATOM     16  H3* UNL     1      -2.430   0.524  -1.338  0.00  0.00    +0.210 HD
ENDBRANCH  14  15
BRANCH  13  17
ATOM     17  C5* UNL     1      -0.030   1.615  -1.689  0.00  0.00    +0.190 C 
BRANCH  17  18
ATOM     18  O5* UNL     1      -0.127   0.530  -2.609  0.00  0.00    -0.392 OA
ATOM     19  H5* UNL     1       0.735   0.073  -2.576  0.00  0.00    +0.210 HD
ENDBRANCH  17  18
ENDBRANCH  13  17
ENDBRANCH   1  11
BRANCH   8  20
ATOM     20  C   UNL     1       1.728  -0.541   4.871  0.00  0.00    +0.022 C 
ATOM     21  C   UNL     1       1.104   0.564   5.297  0.00  0.00    +0.052 C 
ATOM     22 BR   UNL     1      -0.320   1.473   4.537  0.00  0.00    -0.059 Br
ENDBRANCH   8  20
TORSDOF 5
