REMARK  Name = 
REMARK  6 active torsions:
REMARK  status: ('A' for Active; 'I' for Inactive)
REMARK    1  A    between atoms: C_3  and  C_19
REMARK    2  A    between atoms: N_5  and  C1*_6
REMARK    3  A    between atoms: C2*_8  and  O2*_18
REMARK    4  A    between atoms: C3*_10  and  O3*_17
REMARK    5  A    between atoms: C4*_12  and  C5*_15
REMARK    6  A    between atoms: C5*_15  and  O5*_16
REMARK                            x       y       z     vdW  Elec       q    Type
REMARK                         _______ _______ _______ _____ _____    ______ ____
ROOT
ATOM      1  C1* UNL     1      -0.915  -2.465  -0.021  0.00  0.00    +0.270 C 
ATOM      2  O4* UNL     1      -1.313  -2.892   1.300  0.00  0.00    -0.344 OA
ATOM      3  C4* UNL     1      -1.130  -4.322   1.377  0.00  0.00    +0.177 C 
ATOM      4  C3* UNL     1      -0.704  -4.807  -0.011  0.00  0.00    +0.178 C 
ATOM      5  C2* UNL     1      -0.023  -3.574  -0.584  0.00  0.00    +0.196 C 
ENDROOT
BRANCH   1   7
ATOM      6  C   UNL     1       0.433  -0.649   1.113  0.00  0.00    +0.223 A 
ATOM      7  N   UNL     1      -0.270  -1.166   0.070  0.00  0.00    -0.220 N 
ATOM      8  N   UNL     1      -0.413  -0.257  -0.915  0.00  0.00    -0.142 NA
ATOM      9  C   UNL     1       0.218   0.817  -0.406  0.00  0.00    +0.236 A 
ATOM     10  N   UNL     1       0.769   0.592   0.850  0.00  0.00    -0.211 NA
BRANCH   9  11
ATOM     11  C   UNL     1       0.314   2.128  -1.082  0.00  0.00    +0.281 C 
ATOM     12  N   UNL     1       0.971   3.085  -0.349  0.00  0.00    -0.323 N 
ATOM     13  H   UNL     1       1.057   4.018  -0.725  0.00  0.00    +0.145 HD
ATOM     14  H   UNL     1       1.318   2.857   0.574  0.00  0.00    +0.145 HD
ATOM     15  O   UNL     1      -0.145   2.392  -2.190  0.00  0.00    -0.267 OA
ENDBRANCH   9  11
ENDBRANCH   1   7
BRANCH   4  16
ATOM     16  O3* UNL     1      -1.832  -5.155  -0.827  0.00  0.00    -0.386 OA
ATOM     17  H3* UNL     1      -1.464  -5.533  -1.650  0.00  0.00    +0.210 HD
ENDBRANCH   4  16
BRANCH   5  18
ATOM     18  O2* UNL     1       0.050  -3.661  -2.004  0.00  0.00    -0.385 OA
ATOM     19  H2* UNL     1      -0.834  -3.465  -2.369  0.00  0.00    +0.210 HD
ENDBRANCH   5  18
BRANCH   3  20
ATOM     20  C5* UNL     1      -2.406  -4.964   1.914  0.00  0.00    +0.190 C 
BRANCH  20  21
ATOM     21  O5* UNL     1      -2.296  -6.380   1.943  0.00  0.00    -0.392 OA
ATOM     22  H5* UNL     1      -2.441  -6.681   1.026  0.00  0.00    +0.210 HD
ENDBRANCH  20  21
ENDBRANCH   3  20
TORSDOF 6
