REMARK  Name = 
REMARK  17 active torsions:
REMARK  status: ('A' for Active; 'I' for Inactive)
REMARK    1  A    between atoms: C_1  and  C_2
REMARK    2  A    between atoms: C_2  and  C_3
REMARK    3  A    between atoms: C_2  and  C_4
REMARK    4  A    between atoms: C_2  and  N_5
REMARK    5  A    between atoms: C_6  and  C_8
REMARK    6  A    between atoms: N_20  and  C_21
REMARK    7  A    between atoms: C_21  and  C_22
REMARK    8  A    between atoms: C_22  and  C_24
REMARK    9  A    between atoms: C_22  and  O_55
REMARK   10  A    between atoms: C_24  and  C_26
REMARK   11  A    between atoms: C_24  and  N_33
REMARK   12  A    between atoms: C_26  and  C_27
REMARK   13  A    between atoms: C_34  and  C_36
REMARK   14  A    between atoms: C_36  and  C_38
REMARK   15  A    between atoms: C_36  and  N_42
REMARK   16  A    between atoms: C_38  and  C_39
REMARK   17  A    between atoms: C_43  and  C_45
REMARK                            x       y       z     vdW  Elec       q    Type
REMARK                         _______ _______ _______ _____ _____    ______ ____
ROOT
ATOM      1  C   UNL     1       4.687   5.690   1.099  0.00  0.00    +0.107 C 
ENDROOT
BRANCH   1   2
ATOM      2  N   UNL     1       4.304   5.525   2.595  0.00  0.00    -0.308 N 
ATOM      3  H   UNL     1       3.671   6.203   3.002  0.00  0.00    +0.149 HD
ATOM      4  C   UNL     1       4.594   4.386   3.352  0.00  0.00    +0.234 C 
ATOM      5  O   UNL     1       5.236   3.473   2.835  0.00  0.00    -0.274 OA
BRANCH   4   6
ATOM      6  C   UNL     1       4.302   4.280   5.001  0.00  0.00    +0.168 C 
BRANCH   6   7
ATOM      7  N   UNL     1       3.230   4.854   5.978  0.00  0.00    -0.298 N 
ATOM      8  H   UNL     1       3.493   5.671   6.520  0.00  0.00    +0.150 HD
ATOM      9  C   UNL     1       2.154   4.059   6.461  0.00  0.00    +0.263 C 
ATOM     10  O   UNL     1       1.857   3.052   5.802  0.00  0.00    -0.269 OA
BRANCH   9  11
ATOM     11  C   UNL     1       1.309   4.292   7.787  0.00  0.00    +0.126 A 
ATOM     12  C   UNL     1       0.288   3.350   7.993  0.00  0.00    +0.033 A 
ATOM     13  C   UNL     1      -0.411   3.285   9.205  0.00  0.00    +0.012 A 
ATOM     14  C   UNL     1      -0.127   4.168  10.230  0.00  0.00    +0.000 A 
ATOM     15  C   UNL     1       0.832   5.180   9.956  0.00  0.00    +0.072 A 
ATOM     16  C   UNL     1       0.952   6.099  11.033  0.00  0.00    +0.028 A 
ATOM     17  C   UNL     1       0.293   5.974  12.279  0.00  0.00    +0.002 A 
ATOM     18  C   UNL     1      -0.563   4.903  12.522  0.00  0.00    +0.001 A 
ATOM     19  C   UNL     1      -0.786   4.021  11.475  0.00  0.00    +0.010 A 
ATOM     20  N   UNL     1       1.561   5.233   8.752  0.00  0.00    -0.242 NA
ENDBRANCH   9  11
ENDBRANCH   6   7
BRANCH   6  21
ATOM     21  C   UNL     1       5.710   4.382   5.656  0.00  0.00    +0.127 C 
BRANCH  21  22
ATOM     22  C   UNL     1       6.267   5.784   5.569  0.00  0.00    +0.213 C 
ATOM     23  N   UNL     1       7.617   5.887   5.750  0.00  0.00    -0.329 N 
ATOM     24  H   UNL     1       7.999   6.811   5.583  0.00  0.00    +0.145 HD
ATOM     25  H   UNL     1       8.235   5.104   5.589  0.00  0.00    +0.145 HD
ATOM     26  O   UNL     1       5.570   6.777   5.418  0.00  0.00    -0.276 OA
ENDBRANCH  21  22
ENDBRANCH   6  21
ENDBRANCH   4   6
ENDBRANCH   1   2
BRANCH   1  27
ATOM     27  C   UNL     1       6.198   6.182   0.847  0.00  0.00    +0.149 C 
BRANCH  27  28
ATOM     28  O   UNL     1       7.167   5.330   1.474  0.00  0.00    -0.389 OA
ATOM     29  H   UNL     1       8.023   5.683   1.155  0.00  0.00    +0.210 HD
ENDBRANCH  27  28
BRANCH  27  30
ATOM     30  C   UNL     1       6.673   6.332  -0.675  0.00  0.00    +0.118 C 
BRANCH  30  32
ATOM     31  C   UNL     1       8.894   6.180  -1.881  0.00  0.00    +0.143 C 
ATOM     32  N   UNL     1       8.103   6.707  -0.745  0.00  0.00    -0.289 NA
ATOM     33  C   UNL     1       8.424   8.107  -0.446  0.00  0.00    +0.089 C 
ATOM     34  C   UNL     1       8.525   9.067  -1.648  0.00  0.00    +0.006 C 
ATOM     35  C   UNL     1       9.415   8.516  -2.770  0.00  0.00    -0.005 C 
ATOM     36  C   UNL     1       9.436   9.489  -3.964  0.00  0.00    +0.004 C 
ATOM     37  C   UNL     1       9.968  10.859  -3.525  0.00  0.00    +0.000 C 
ATOM     38  C   UNL     1       9.188  11.419  -2.337  0.00  0.00    +0.000 C 
ATOM     39  C   UNL     1       9.097  10.419  -1.187  0.00  0.00    +0.005 C 
ATOM     40  C   UNL     1       8.970   7.095  -3.129  0.00  0.00    +0.032 C 
BRANCH  31  43
ATOM     41  N   UNL     1      10.325   5.089  -0.192  0.00  0.00    -0.309 N 
ATOM     42  H   UNL     1       9.460   4.589  -0.013  0.00  0.00    +0.149 HD
ATOM     43  C   UNL     1      10.323   5.882  -1.332  0.00  0.00    +0.231 C 
ATOM     44  O   UNL     1      11.349   6.301  -1.860  0.00  0.00    -0.274 OA
BRANCH  41  46
ATOM     45  C   UNL     1      12.508   5.692   0.835  0.00  0.00    +0.031 C 
ATOM     46  C   UNL     1      11.558   4.559   0.401  0.00  0.00    +0.026 C 
ATOM     47  C   UNL     1      11.210   3.769   1.676  0.00  0.00    +0.031 C 
ATOM     48  C   UNL     1      12.229   3.636  -0.628  0.00  0.00    +0.031 C 
ENDBRANCH  41  46
ENDBRANCH  31  43
ENDBRANCH  30  32
ENDBRANCH  27  30
ENDBRANCH   1  27
BRANCH   1  49
ATOM     49  C   UNL     1       3.815   6.751   0.346  0.00  0.00    +0.060 C 
BRANCH  49  50
ATOM     50  C   UNL     1       2.328   6.676   0.112  0.00  0.00    -0.046 A 
ATOM     51  C   UNL     1       1.738   7.725  -0.635  0.00  0.00    +0.004 A 
ATOM     52  C   UNL     1       0.381   7.721  -0.952  0.00  0.00    +0.000 A 
ATOM     53  C   UNL     1      -0.414   6.665  -0.526  0.00  0.00    +0.000 A 
ATOM     54  C   UNL     1       0.156   5.620   0.205  0.00  0.00    +0.000 A 
ATOM     55  C   UNL     1       1.520   5.620   0.519  0.00  0.00    +0.004 A 
ENDBRANCH  49  50
ENDBRANCH   1  49
TORSDOF 14
