REMARK  Name = 
REMARK  4 active torsions:
REMARK  status: ('A' for Active; 'I' for Inactive)
REMARK    1  A    between atoms: C3*_2  and  O3*_20
REMARK    2  A    between atoms: C4*_4  and  C5*_18
REMARK    3  A    between atoms: C1*_7  and  N_9
REMARK    4  A    between atoms: C5*_18  and  O5*_19
REMARK                            x       y       z     vdW  Elec       q    Type
REMARK                         _______ _______ _______ _____ _____    ______ ____
ROOT
ATOM      1  C2* UNL     1      -0.782  -0.998  -0.212  0.00  0.00    +0.088 C 
ATOM      2  C1* UNL     1       0.736  -0.986  -0.049  0.00  0.00    +0.226 C 
ATOM      3  O4* UNL     1       1.165   0.387  -0.122  0.00  0.00    -0.348 OA
ATOM      4  C4* UNL     1       0.002   1.236  -0.228  0.00  0.00    +0.175 C 
ATOM      5  C3* UNL     1      -1.168   0.385   0.255  0.00  0.00    +0.150 C 
ENDROOT
BRANCH   2   6
ATOM      6  N   UNL     1       1.401  -1.796  -1.067  0.00  0.00    -0.273 N 
ATOM      7  C   UNL     1       1.415  -3.170  -0.870  0.00  0.00    +0.331 A 
ATOM      8  O   UNL     1       0.946  -3.726   0.121  0.00  0.00    -0.246 OA
ATOM      9  N   UNL     1       1.956  -3.908  -1.888  0.00  0.00    -0.274 N 
ATOM     10  H   UNL     1       1.911  -4.910  -1.785  0.00  0.00    +0.173 HD
ATOM     11  C   UNL     1       2.259  -3.442  -3.139  0.00  0.00    +0.267 A 
ATOM     12  O   UNL     1       2.471  -4.218  -4.066  0.00  0.00    -0.267 OA
ATOM     13  C   UNL     1       2.277  -1.964  -3.289  0.00  0.00    +0.094 A 
ATOM     14  I   UNL     1       2.844  -1.112  -5.056  0.00  0.00    -0.037 I 
ATOM     15  C   UNL     1       1.856  -1.233  -2.247  0.00  0.00    +0.113 A 
ENDBRANCH   2   6
BRANCH   5  16
ATOM     16  O3* UNL     1      -2.436   0.802  -0.215  0.00  0.00    -0.389 OA
ATOM     17  H3* UNL     1      -2.577   0.476  -1.121  0.00  0.00    +0.210 HD
ENDBRANCH   5  16
BRANCH   4  18
ATOM     18  C5* UNL     1      -0.149   1.738  -1.673  0.00  0.00    +0.190 C 
BRANCH  18  19
ATOM     19  O5* UNL     1       1.002   2.465  -2.099  0.00  0.00    -0.392 OA
ATOM     20  H5* UNL     1       1.172   3.164  -1.444  0.00  0.00    +0.210 HD
ENDBRANCH  18  19
ENDBRANCH   4  18
TORSDOF 4
