REMARK  Name = 
REMARK  17 active torsions:
REMARK  status: ('A' for Active; 'I' for Inactive)
REMARK    1  A    between atoms: C_1  and  C_2
REMARK    2  A    between atoms: C_2  and  C_3
REMARK    3  A    between atoms: C_2  and  C_4
REMARK    4  A    between atoms: C_2  and  N_5
REMARK    5  A    between atoms: C_6  and  C_8
REMARK    6  A    between atoms: N_20  and  C_21
REMARK    7  A    between atoms: C_21  and  C_22
REMARK    8  A    between atoms: C_22  and  C_24
REMARK    9  A    between atoms: C_22  and  O_55
REMARK   10  A    between atoms: C_24  and  C_26
REMARK   11  A    between atoms: C_24  and  N_33
REMARK   12  A    between atoms: C_26  and  C_27
REMARK   13  A    between atoms: C_34  and  C_36
REMARK   14  A    between atoms: C_36  and  C_38
REMARK   15  A    between atoms: C_36  and  N_42
REMARK   16  A    between atoms: C_38  and  C_39
REMARK   17  A    between atoms: C_43  and  C_45
REMARK                            x       y       z     vdW  Elec       q    Type
REMARK                         _______ _______ _______ _____ _____    ______ ____
ROOT
ATOM      1  C   UNL     1       8.579  -3.295   2.137  0.00  0.00    +0.107 C 
ENDROOT
BRANCH   1   2
ATOM      2  N   UNL     1       8.538  -3.011   3.591  0.00  0.00    -0.308 N 
ATOM      3  H   UNL     1       9.397  -2.908   4.126  0.00  0.00    +0.149 HD
ATOM      4  C   UNL     1       7.337  -2.976   4.281  0.00  0.00    +0.234 C 
ATOM      5  O   UNL     1       6.251  -3.145   3.723  0.00  0.00    -0.274 OA
BRANCH   4   6
ATOM      6  C   UNL     1       7.413  -2.694   5.803  0.00  0.00    +0.168 C 
BRANCH   6   7
ATOM      7  N   UNL     1       7.679  -3.918   6.564  0.00  0.00    -0.298 N 
ATOM      8  H   UNL     1       6.911  -4.510   6.871  0.00  0.00    +0.150 HD
ATOM      9  C   UNL     1       8.944  -4.338   6.910  0.00  0.00    +0.263 C 
ATOM     10  O   UNL     1       9.966  -3.786   6.514  0.00  0.00    -0.269 OA
BRANCH   9  11
ATOM     11  C   UNL     1       8.994  -5.548   7.810  0.00  0.00    +0.126 A 
ATOM     12  C   UNL     1      10.221  -6.081   8.169  0.00  0.00    +0.033 A 
ATOM     13  C   UNL     1      10.237  -7.213   8.979  0.00  0.00    +0.012 A 
ATOM     14  C   UNL     1       9.032  -7.775   9.417  0.00  0.00    +0.000 A 
ATOM     15  C   UNL     1       7.827  -7.150   9.024  0.00  0.00    +0.072 A 
ATOM     16  C   UNL     1       6.635  -7.704   9.485  0.00  0.00    +0.028 A 
ATOM     17  C   UNL     1       6.611  -8.842  10.299  0.00  0.00    +0.002 A 
ATOM     18  C   UNL     1       7.805  -9.456  10.669  0.00  0.00    +0.001 A 
ATOM     19  C   UNL     1       9.011  -8.918  10.231  0.00  0.00    +0.010 A 
ATOM     20  N   UNL     1       7.797  -6.062   8.224  0.00  0.00    -0.242 NA
ENDBRANCH   9  11
ENDBRANCH   6   7
BRANCH   6  21
ATOM     21  C   UNL     1       6.052  -2.103   6.188  0.00  0.00    +0.127 C 
BRANCH  21  22
ATOM     22  C   UNL     1       6.003  -1.564   7.584  0.00  0.00    +0.213 C 
ATOM     23  N   UNL     1       4.752  -1.591   8.150  0.00  0.00    -0.329 N 
ATOM     24  H   UNL     1       4.650  -1.251   9.096  0.00  0.00    +0.145 HD
ATOM     25  H   UNL     1       3.959  -2.030   7.701  0.00  0.00    +0.145 HD
ATOM     26  O   UNL     1       6.949  -1.079   8.190  0.00  0.00    -0.276 OA
ENDBRANCH  21  22
ENDBRANCH   6  21
ENDBRANCH   4   6
ENDBRANCH   1   2
BRANCH   1  27
ATOM     27  C   UNL     1       8.395  -4.830   1.818  0.00  0.00    +0.149 C 
BRANCH  27  28
ATOM     28  O   UNL     1       7.434  -5.455   2.676  0.00  0.00    -0.389 OA
ATOM     29  H   UNL     1       7.392  -6.400   2.459  0.00  0.00    +0.210 HD
ENDBRANCH  27  28
BRANCH  27  30
ATOM     30  C   UNL     1       8.100  -5.257   0.332  0.00  0.00    +0.118 C 
BRANCH  30  32
ATOM     31  C   UNL     1       5.709  -5.913  -0.250  0.00  0.00    +0.143 C 
ATOM     32  N   UNL     1       6.867  -5.007  -0.428  0.00  0.00    -0.289 NA
ATOM     33  C   UNL     1       6.487  -3.628  -0.703  0.00  0.00    +0.089 C 
ATOM     34  C   UNL     1       5.433  -3.059   0.253  0.00  0.00    +0.006 C 
ATOM     35  C   UNL     1       4.210  -3.965   0.438  0.00  0.00    -0.005 C 
ATOM     36  C   UNL     1       3.320  -3.391   1.556  0.00  0.00    +0.004 C 
ATOM     37  C   UNL     1       2.914  -1.943   1.268  0.00  0.00    +0.000 C 
ATOM     38  C   UNL     1       4.106  -1.050   0.922  0.00  0.00    +0.000 C 
ATOM     39  C   UNL     1       4.974  -1.663  -0.175  0.00  0.00    +0.005 C 
ATOM     40  C   UNL     1       4.655  -5.399   0.745  0.00  0.00    +0.032 C 
BRANCH  31  43
ATOM     41  N   UNL     1       5.988  -6.582  -2.608  0.00  0.00    -0.309 N 
ATOM     42  H   UNL     1       6.941  -6.337  -2.355  0.00  0.00    +0.149 HD
ATOM     43  C   UNL     1       5.062  -6.193  -1.654  0.00  0.00    +0.231 C 
ATOM     44  O   UNL     1       3.856  -6.126  -1.876  0.00  0.00    -0.274 OA
BRANCH  41  46
ATOM     45  C   UNL     1       5.256  -5.592  -4.770  0.00  0.00    +0.031 C 
ATOM     46  C   UNL     1       5.698  -6.864  -4.026  0.00  0.00    +0.026 C 
ATOM     47  C   UNL     1       6.996  -7.379  -4.675  0.00  0.00    +0.031 C 
ATOM     48  C   UNL     1       4.620  -7.952  -4.179  0.00  0.00    +0.031 C 
ENDBRANCH  41  46
ENDBRANCH  31  43
ENDBRANCH  30  32
ENDBRANCH  27  30
ENDBRANCH   1  27
BRANCH   1  49
ATOM     49  C   UNL     1       9.875  -2.715   1.495  0.00  0.00    +0.060 C 
BRANCH  49  50
ATOM     50  C   UNL     1      10.019  -1.202   1.385  0.00  0.00    -0.046 A 
ATOM     51  C   UNL     1       8.933  -0.360   1.104  0.00  0.00    +0.004 A 
ATOM     52  C   UNL     1       9.121   1.022   0.912  0.00  0.00    +0.000 A 
ATOM     53  C   UNL     1      10.392   1.576   0.985  0.00  0.00    +0.000 A 
ATOM     54  C   UNL     1      11.483   0.758   1.247  0.00  0.00    +0.000 A 
ATOM     55  C   UNL     1      11.299  -0.622   1.440  0.00  0.00    +0.004 A 
ENDBRANCH  49  50
ENDBRANCH   1  49
TORSDOF 14
