REMARK  Name = 
REMARK  6 active torsions:
REMARK  status: ('A' for Active; 'I' for Inactive)
REMARK    1  A    between atoms: C_3  and  C_19
REMARK    2  A    between atoms: N_5  and  C1*_6
REMARK    3  A    between atoms: C2*_8  and  O2*_18
REMARK    4  A    between atoms: C3*_10  and  O3*_17
REMARK    5  A    between atoms: C4*_12  and  C5*_15
REMARK    6  A    between atoms: C5*_15  and  O5*_16
REMARK                            x       y       z     vdW  Elec       q    Type
REMARK                         _______ _______ _______ _____ _____    ______ ____
ROOT
ATOM      1  C1* UNL     1      -0.935  -2.620  -0.178  0.00  0.00    +0.270 C 
ATOM      2  O4* UNL     1      -1.496  -2.968   1.104  0.00  0.00    -0.344 OA
ATOM      3  C4* UNL     1      -1.163  -4.341   1.387  0.00  0.00    +0.177 C 
ATOM      4  C3* UNL     1      -0.607  -4.964   0.101  0.00  0.00    +0.178 C 
ATOM      5  C2* UNL     1      -0.014  -3.765  -0.618  0.00  0.00    +0.196 C 
ENDROOT
BRANCH   1   7
ATOM      6  C   UNL     1      -3.356  -2.390  -0.895  0.00  0.00    +0.223 A 
ATOM      7  N   UNL     1      -2.015  -2.357  -1.118  0.00  0.00    -0.220 N 
ATOM      8  N   UNL     1      -1.742  -1.968  -2.381  0.00  0.00    -0.142 NA
ATOM      9  C   UNL     1      -2.976  -1.798  -2.894  0.00  0.00    +0.236 A 
ATOM     10  N   UNL     1      -3.996  -2.059  -1.991  0.00  0.00    -0.211 NA
BRANCH   9  11
ATOM     11  C   UNL     1      -3.253  -1.380  -4.282  0.00  0.00    +0.281 C 
ATOM     12  N   UNL     1      -4.589  -1.325  -4.588  0.00  0.00    -0.323 N 
ATOM     13  H   UNL     1      -4.872  -1.056  -5.517  0.00  0.00    +0.145 HD
ATOM     14  H   UNL     1      -5.274  -1.566  -3.881  0.00  0.00    +0.145 HD
ATOM     15  O   UNL     1      -2.402  -1.107  -5.123  0.00  0.00    -0.267 OA
ENDBRANCH   9  11
ENDBRANCH   1   7
BRANCH   4  16
ATOM     16  O3* UNL     1      -1.641  -5.552  -0.691  0.00  0.00    -0.386 OA
ATOM     17  H3* UNL     1      -1.215  -5.967  -1.465  0.00  0.00    +0.210 HD
ENDBRANCH   4  16
BRANCH   5  18
ATOM     18  O2* UNL     1       1.329  -3.565  -0.156  0.00  0.00    -0.385 OA
ATOM     19  H2* UNL     1       1.724  -2.860  -0.702  0.00  0.00    +0.210 HD
ENDBRANCH   5  18
BRANCH   3  20
ATOM     20  C5* UNL     1      -2.394  -5.048   1.955  0.00  0.00    +0.190 C 
BRANCH  20  21
ATOM     21  O5* UNL     1      -2.130  -6.419   2.225  0.00  0.00    -0.392 OA
ATOM     22  H5* UNL     1      -2.123  -6.869   1.360  0.00  0.00    +0.210 HD
ENDBRANCH  20  21
ENDBRANCH   3  20
TORSDOF 6
