REMARK  Name = 
REMARK  6 active torsions:
REMARK  status: ('A' for Active; 'I' for Inactive)
REMARK    1  A    between atoms: C_3  and  C_19
REMARK    2  A    between atoms: N_5  and  C1*_6
REMARK    3  A    between atoms: C2*_8  and  O2*_18
REMARK    4  A    between atoms: C3*_10  and  O3*_17
REMARK    5  A    between atoms: C4*_12  and  C5*_15
REMARK    6  A    between atoms: C5*_15  and  O5*_16
REMARK                            x       y       z     vdW  Elec       q    Type
REMARK                         _______ _______ _______ _____ _____    ______ ____
ROOT
ATOM      1  C1* UNL     1      -0.930  -2.622  -0.173  0.00  0.00    +0.270 C 
ATOM      2  O4* UNL     1      -1.488  -2.970   1.111  0.00  0.00    -0.344 OA
ATOM      3  C4* UNL     1      -1.160  -4.345   1.390  0.00  0.00    +0.177 C 
ATOM      4  C3* UNL     1      -0.605  -4.966   0.103  0.00  0.00    +0.178 C 
ATOM      5  C2* UNL     1      -0.013  -3.767  -0.616  0.00  0.00    +0.196 C 
ENDROOT
BRANCH   1   7
ATOM      6  C   UNL     1      -3.355  -2.389  -0.879  0.00  0.00    +0.223 A 
ATOM      7  N   UNL     1      -2.016  -2.359  -1.110  0.00  0.00    -0.220 N 
ATOM      8  N   UNL     1      -1.748  -1.972  -2.374  0.00  0.00    -0.142 NA
ATOM      9  C   UNL     1      -2.984  -1.798  -2.881  0.00  0.00    +0.236 A 
ATOM     10  N   UNL     1      -4.000  -2.056  -1.971  0.00  0.00    -0.211 NA
BRANCH   9  11
ATOM     11  C   UNL     1      -3.266  -1.380  -4.266  0.00  0.00    +0.281 C 
ATOM     12  N   UNL     1      -4.604  -1.323  -4.565  0.00  0.00    -0.323 N 
ATOM     13  H   UNL     1      -4.892  -1.056  -5.494  0.00  0.00    +0.145 HD
ATOM     14  H   UNL     1      -5.286  -1.570  -3.858  0.00  0.00    +0.145 HD
ATOM     15  O   UNL     1      -2.420  -1.105  -5.113  0.00  0.00    -0.267 OA
ENDBRANCH   9  11
ENDBRANCH   1   7
BRANCH   4  16
ATOM     16  O3* UNL     1      -1.640  -5.554  -0.687  0.00  0.00    -0.386 OA
ATOM     17  H3* UNL     1      -1.215  -5.968  -1.463  0.00  0.00    +0.210 HD
ENDBRANCH   4  16
BRANCH   5  18
ATOM     18  O2* UNL     1       1.332  -3.569  -0.156  0.00  0.00    -0.385 OA
ATOM     19  H2* UNL     1       1.726  -2.863  -0.701  0.00  0.00    +0.210 HD
ENDBRANCH   5  18
BRANCH   3  20
ATOM     20  C5* UNL     1      -2.392  -5.049   1.957  0.00  0.00    +0.190 C 
BRANCH  20  21
ATOM     21  O5* UNL     1      -2.136  -6.420   2.225  0.00  0.00    -0.392 OA
ATOM     22  H5* UNL     1      -2.127  -6.869   1.359  0.00  0.00    +0.210 HD
ENDBRANCH  20  21
ENDBRANCH   3  20
TORSDOF 6
