REMARK  Name = 
REMARK  5 active torsions:
REMARK  status: ('A' for Active; 'I' for Inactive)
REMARK    1  A    between atoms: C_1  and  C_2
REMARK    2  A    between atoms: N_4  and  C_10
REMARK    3  A    between atoms: C_13  and  N_20
REMARK    4  A    between atoms: C_15  and  C_18
REMARK    5  A    between atoms: C_18  and  O_19
REMARK                            x       y       z     vdW  Elec       q    Type
REMARK                         _______ _______ _______ _____ _____    ______ ____
ROOT
ATOM      1  C   UNL     1       5.238   2.658  -0.529  0.00  0.00    +0.226 C 
ATOM      2  O   UNL     1       6.415   2.528   0.290  0.00  0.00    -0.349 OA
ATOM      3  C   UNL     1       6.671   3.787   0.941  0.00  0.00    +0.178 C 
ATOM      4  C   UNL     1       5.744   4.833   0.319  0.00  0.00    +0.230 C 
ATOM      5  C   UNL     1       4.576   3.970  -0.107  0.00  0.00    +0.091 C 
ENDROOT
BRANCH   1  14
ATOM      6  C   UNL     1       8.541   1.560  -4.092  0.00  0.00    +0.051 C 
ATOM      7  C   UNL     1       7.192   2.007  -3.635  0.00  0.00    +0.030 A 
ATOM      8  C   UNL     1       6.130   2.148  -4.654  0.00  0.00    +0.257 A 
ATOM      9  O   UNL     1       6.332   1.918  -5.842  0.00  0.00    -0.267 OA
ATOM     10  N   UNL     1       4.906   2.525  -4.187  0.00  0.00    -0.275 N 
ATOM     11  H   UNL     1       4.156   2.553  -4.859  0.00  0.00    +0.173 HD
ATOM     12  C   UNL     1       4.547   2.610  -2.869  0.00  0.00    +0.331 A 
ATOM     13  O   UNL     1       3.359   2.706  -2.562  0.00  0.00    -0.246 OA
ATOM     14  N   UNL     1       5.587   2.565  -1.951  0.00  0.00    -0.274 N 
ATOM     15  C   UNL     1       6.871   2.246  -2.358  0.00  0.00    +0.101 A 
ENDBRANCH   1  14
BRANCH   4  16
ATOM     16  N   UNL     1       6.349   5.480  -0.862  0.00  0.00    +0.125 NA
ATOM     17  N   UNL     1       5.850   6.565  -1.193  0.00  0.00    +0.219 NA
ATOM     18  N   UNL     1       5.355   7.649  -1.517  0.00  0.00    +0.104 NA
ATOM     19  H   UNL     1       5.436   7.790  -2.529  0.00  0.00    +0.288 HD
ENDBRANCH   4  16
BRANCH   3  20
ATOM     20  C   UNL     1       8.163   4.115   0.900  0.00  0.00    +0.189 C 
BRANCH  20  21
ATOM     21  O   UNL     1       8.454   5.315   1.603  0.00  0.00    -0.392 OA
ATOM     22  H   UNL     1       8.203   6.052   1.021  0.00  0.00    +0.210 HD
ENDBRANCH  20  21
ENDBRANCH   3  20
TORSDOF 4
