REMARK  Name = 
REMARK  4 active torsions:
REMARK  status: ('A' for Active; 'I' for Inactive)
REMARK    1  A    between atoms: C3*_2  and  O3*_20
REMARK    2  A    between atoms: C4*_4  and  C5*_18
REMARK    3  A    between atoms: C1*_7  and  N_9
REMARK    4  A    between atoms: C5*_18  and  O5*_19
REMARK                            x       y       z     vdW  Elec       q    Type
REMARK                         _______ _______ _______ _____ _____    ______ ____
ROOT
ATOM      1  C2* UNL     1      -0.838  -0.969  -0.202  0.00  0.00    +0.088 C 
ATOM      2  C1* UNL     1       0.683  -1.017  -0.045  0.00  0.00    +0.226 C 
ATOM      3  O4* UNL     1       1.146   0.350  -0.020  0.00  0.00    -0.348 OA
ATOM      4  C4* UNL     1       0.018   1.230  -0.208  0.00  0.00    +0.175 C 
ATOM      5  C3* UNL     1      -1.185   0.423   0.261  0.00  0.00    +0.150 C 
ENDROOT
BRANCH   2   6
ATOM      6  N   UNL     1       1.335  -1.776  -1.114  0.00  0.00    -0.273 N 
ATOM      7  C   UNL     1       0.988  -3.115  -1.241  0.00  0.00    +0.331 A 
ATOM      8  O   UNL     1       0.196  -3.693  -0.500  0.00  0.00    -0.246 OA
ATOM      9  N   UNL     1       1.555  -3.778  -2.294  0.00  0.00    -0.274 N 
ATOM     10  H   UNL     1       1.233  -4.721  -2.455  0.00  0.00    +0.173 HD
ATOM     11  C   UNL     1       2.328  -3.220  -3.273  0.00  0.00    +0.267 A 
ATOM     12  O   UNL     1       2.597  -3.846  -4.295  0.00  0.00    -0.267 OA
ATOM     13  C   UNL     1       2.785  -1.827  -3.019  0.00  0.00    +0.094 A 
ATOM     14  I   UNL     1       4.121  -0.943  -4.284  0.00  0.00    -0.037 I 
ATOM     15  C   UNL     1       2.260  -1.190  -1.964  0.00  0.00    +0.113 A 
ENDBRANCH   2   6
BRANCH   5  16
ATOM     16  O3* UNL     1      -2.431   0.884  -0.225  0.00  0.00    -0.389 OA
ATOM     17  H3* UNL     1      -2.604   0.500  -1.103  0.00  0.00    +0.210 HD
ENDBRANCH   5  16
BRANCH   4  18
ATOM     18  C5* UNL     1      -0.067   1.678  -1.676  0.00  0.00    +0.190 C 
BRANCH  18  19
ATOM     19  O5* UNL     1       1.087   2.426  -2.058  0.00  0.00    -0.392 OA
ATOM     20  H5* UNL     1       1.166   3.180  -1.448  0.00  0.00    +0.210 HD
ENDBRANCH  18  19
ENDBRANCH   4  18
TORSDOF 4
