REMARK  Name = 
REMARK  5 active torsions:
REMARK  status: ('A' for Active; 'I' for Inactive)
REMARK    1  A    between atoms: C_1  and  C_2
REMARK    2  A    between atoms: N_4  and  C_10
REMARK    3  A    between atoms: C_13  and  N_20
REMARK    4  A    between atoms: C_15  and  C_18
REMARK    5  A    between atoms: C_18  and  O_19
REMARK                            x       y       z     vdW  Elec       q    Type
REMARK                         _______ _______ _______ _____ _____    ______ ____
ROOT
ATOM      1  C   UNL     1       5.307   2.603  -0.547  0.00  0.00    +0.226 C 
ATOM      2  O   UNL     1       6.516   2.527   0.227  0.00  0.00    -0.349 OA
ATOM      3  C   UNL     1       6.707   3.780   0.913  0.00  0.00    +0.178 C 
ATOM      4  C   UNL     1       5.750   4.802   0.291  0.00  0.00    +0.230 C 
ATOM      5  C   UNL     1       4.610   3.906  -0.156  0.00  0.00    +0.091 C 
ENDROOT
BRANCH   1  14
ATOM      6  C   UNL     1       8.599   2.852  -4.260  0.00  0.00    +0.051 C 
ATOM      7  C   UNL     1       7.222   2.613  -3.742  0.00  0.00    +0.030 A 
ATOM      8  C   UNL     1       6.190   2.111  -4.674  0.00  0.00    +0.257 A 
ATOM      9  O   UNL     1       6.438   1.892  -5.854  0.00  0.00    -0.267 OA
ATOM     10  N   UNL     1       4.956   1.902  -4.138  0.00  0.00    -0.275 N 
ATOM     11  H   UNL     1       4.252   1.525  -4.755  0.00  0.00    +0.173 HD
ATOM     12  C   UNL     1       4.621   1.993  -2.812  0.00  0.00    +0.331 A 
ATOM     13  O   UNL     1       3.502   1.649  -2.427  0.00  0.00    -0.246 OA
ATOM     14  N   UNL     1       5.615   2.484  -1.974  0.00  0.00    -0.274 N 
ATOM     15  C   UNL     1       6.867   2.790  -2.464  0.00  0.00    +0.101 A 
ENDBRANCH   1  14
BRANCH   4  16
ATOM     16  N   UNL     1       6.343   5.480  -0.877  0.00  0.00    +0.125 NA
ATOM     17  N   UNL     1       5.850   6.576  -1.182  0.00  0.00    +0.219 NA
ATOM     18  N   UNL     1       5.359   7.671  -1.472  0.00  0.00    +0.104 NA
ATOM     19  H   UNL     1       4.462   7.551  -1.954  0.00  0.00    +0.288 HD
ENDBRANCH   4  16
BRANCH   3  20
ATOM     20  C   UNL     1       8.188   4.157   0.916  0.00  0.00    +0.189 C 
BRANCH  20  21
ATOM     21  O   UNL     1       8.418   5.360   1.636  0.00  0.00    -0.392 OA
ATOM     22  H   UNL     1       8.208   6.094   1.032  0.00  0.00    +0.210 HD
ENDBRANCH  20  21
ENDBRANCH   3  20
TORSDOF 4
