REMARK  Name = 
REMARK  5 active torsions:
REMARK  status: ('A' for Active; 'I' for Inactive)
REMARK    1  A    between atoms: C_1  and  N_2
REMARK    2  A    between atoms: C_9  and  N_12
REMARK    3  A    between atoms: C_10  and  O_11
REMARK    4  A    between atoms: N_13  and  C_14
REMARK    5  A    between atoms: C_14  and  N_16
REMARK                            x       y       z     vdW  Elec       q    Type
REMARK                         _______ _______ _______ _____ _____    ______ ____
ROOT
ATOM      1  C   UNL     1       1.014  -0.085  -0.049  0.00  0.00    +0.152 C 
ATOM      2  N   UNL     1       2.460  -0.065  -0.038  0.00  0.00    -0.313 N 
ATOM      3  C   UNL     1       3.230  -1.203  -0.051  0.00  0.00    +0.221 A 
ATOM      4  C   UNL     1       4.546  -0.805  -0.049  0.00  0.00    +0.152 A 
ATOM      5  C   UNL     1       4.595   0.616  -0.047  0.00  0.00    +0.031 A 
ATOM      6  C   UNL     1       5.629   1.578  -0.068  0.00  0.00    +0.012 A 
ATOM      7  C   UNL     1       5.314   2.941  -0.067  0.00  0.00    +0.001 A 
ATOM      8  C   UNL     1       3.988   3.358  -0.055  0.00  0.00    +0.002 A 
ATOM      9  C   UNL     1       2.943   2.430  -0.042  0.00  0.00    +0.026 A 
ATOM     10  C   UNL     1       3.264   1.061  -0.038  0.00  0.00    +0.054 A 
ENDROOT
BRANCH   3  11
ATOM     11  O   UNL     1       2.672  -2.412  -0.066  0.00  0.00    -0.492 OA
ATOM     12  H   UNL     1       3.410  -3.051  -0.078  0.00  0.00    +0.294 HD
ENDBRANCH   3  11
BRANCH   4  13
ATOM     13  N   UNL     1       5.606  -1.720  -0.110  0.00  0.00    -0.152 NA
ATOM     14  N   UNL     1       6.603  -1.390   0.563  0.00  0.00    -0.095 NA
BRANCH  14  15
ATOM     15  C   UNL     1       7.635  -2.300   0.508  0.00  0.00    +0.172 C 
ATOM     16  S   UNL     1       7.710  -3.852  -0.133  0.00  0.00    -0.015 S 
BRANCH  15  17
ATOM     17  N   UNL     1       8.771  -1.830   1.106  0.00  0.00    -0.338 N 
ATOM     18  H   UNL     1       9.592  -2.418   1.154  0.00  0.00    +0.144 HD
ATOM     19  H   UNL     1       8.782  -0.917   1.537  0.00  0.00    +0.144 HD
ENDBRANCH  15  17
ENDBRANCH  14  15
ENDBRANCH   4  13
TORSDOF 4
