REMARK  Name = 
REMARK  5 active torsions:
REMARK  status: ('A' for Active; 'I' for Inactive)
REMARK    1  A    between atoms: C_1  and  N_2
REMARK    2  A    between atoms: C_9  and  N_12
REMARK    3  A    between atoms: C_10  and  O_11
REMARK    4  A    between atoms: N_13  and  C_14
REMARK    5  A    between atoms: C_14  and  N_16
REMARK                            x       y       z     vdW  Elec       q    Type
REMARK                         _______ _______ _______ _____ _____    ______ ____
ROOT
ATOM      1  C   UNL     1       1.027  -0.125  -0.045  0.00  0.00    +0.152 C 
ATOM      2  N   UNL     1       2.474  -0.107  -0.036  0.00  0.00    -0.313 N 
ATOM      3  C   UNL     1       3.242  -1.245  -0.048  0.00  0.00    +0.221 A 
ATOM      4  C   UNL     1       4.560  -0.848  -0.045  0.00  0.00    +0.152 A 
ATOM      5  C   UNL     1       4.610   0.574  -0.044  0.00  0.00    +0.031 A 
ATOM      6  C   UNL     1       5.644   1.536  -0.064  0.00  0.00    +0.012 A 
ATOM      7  C   UNL     1       5.329   2.898  -0.062  0.00  0.00    +0.001 A 
ATOM      8  C   UNL     1       4.004   3.316  -0.051  0.00  0.00    +0.002 A 
ATOM      9  C   UNL     1       2.958   2.388  -0.040  0.00  0.00    +0.026 A 
ATOM     10  C   UNL     1       3.279   1.019  -0.036  0.00  0.00    +0.054 A 
ENDROOT
BRANCH   3  11
ATOM     11  O   UNL     1       2.685  -2.453  -0.063  0.00  0.00    -0.492 OA
ATOM     12  H   UNL     1       3.422  -3.093  -0.074  0.00  0.00    +0.294 HD
ENDBRANCH   3  11
BRANCH   4  13
ATOM     13  N   UNL     1       5.618  -1.765  -0.104  0.00  0.00    -0.152 NA
ATOM     14  N   UNL     1       6.620  -1.429   0.560  0.00  0.00    -0.095 NA
BRANCH  14  15
ATOM     15  C   UNL     1       7.650  -2.342   0.510  0.00  0.00    +0.172 C 
ATOM     16  S   UNL     1       7.724  -3.895  -0.129  0.00  0.00    -0.015 S 
BRANCH  15  17
ATOM     17  N   UNL     1       8.785  -1.874   1.110  0.00  0.00    -0.338 N 
ATOM     18  H   UNL     1       9.603  -2.465   1.164  0.00  0.00    +0.144 HD
ATOM     19  H   UNL     1       8.796  -0.959   1.540  0.00  0.00    +0.144 HD
ENDBRANCH  15  17
ENDBRANCH  14  15
ENDBRANCH   4  13
TORSDOF 4
