REMARK  Name = 
REMARK  13 active torsions:
REMARK  status: ('A' for Active; 'I' for Inactive)
REMARK    1  A    between atoms: C_1  and  C_2
REMARK    2  A    between atoms: C_3  and  O_51
REMARK    3  A    between atoms: C_9  and  C_43
REMARK    4  A    between atoms: C_11  and  O_12
REMARK    5  A    between atoms: O_12  and  C_13
REMARK    6  A    between atoms: N_20  and  C_42
REMARK    7  A    between atoms: C_29  and  C_33
REMARK    8  A    between atoms: N_35  and  S_36
REMARK    9  A    between atoms: S_36  and  C_39
REMARK   10  A    between atoms: C_45  and  C_48
REMARK   11  A    between atoms: C_48  and  C_49
REMARK   12  A    between atoms: C_48  and  C_50
REMARK   13  A    between atoms: O_51  and  C_52
REMARK                            x       y       z     vdW  Elec       q    Type
REMARK                         _______ _______ _______ _____ _____    ______ ____
ROOT
ATOM      1  C   UNL     1       7.021  -3.558   0.605  0.00  0.00    +0.175 C 
ATOM      2  C   UNL     1       7.141  -5.101   0.590  0.00  0.00    +0.058 C 
ATOM      3  C   UNL     1       8.375  -5.310   1.520  0.00  0.00    +0.091 C 
ATOM      4  C   UNL     1       7.877  -5.048   2.984  0.00  0.00    +0.219 C 
ATOM      5  N   UNL     1       8.442  -4.007   3.724  0.00  0.00    -0.304 N 
ATOM      6  C   UNL     1       8.979  -4.486   4.991  0.00  0.00    +0.132 C 
ATOM      7  C   UNL     1       7.602  -2.808   3.946  0.00  0.00    +0.107 C 
ATOM      8  C   UNL     1       8.424  -1.537   4.170  0.00  0.00    +0.019 C 
ATOM      9  C   UNL     1       7.790  -0.291   3.516  0.00  0.00    +0.006 C 
ATOM     10  C   UNL     1       8.820   0.602   2.816  0.00  0.00    +0.027 C 
ATOM     11  C   UNL     1       9.387   0.040   1.527  0.00  0.00    -0.031 C 
ATOM     12  C   UNL     1      10.632  -0.459   1.482  0.00  0.00    -0.025 C 
ATOM     13  C   UNL     1      11.504  -0.824   0.347  0.00  0.00    +0.046 C 
ATOM     14  C   UNL     1      11.967  -2.162  -0.257  0.00  0.00    +0.119 C 
ATOM     15  N   UNL     1      11.134  -3.323  -0.175  0.00  0.00    -0.301 N 
ATOM     16  H   UNL     1      10.554  -3.431  -1.005  0.00  0.00    +0.150 HD
ATOM     17  C   UNL     1      10.724  -4.029   0.958  0.00  0.00    +0.218 C 
ATOM     18  O   UNL     1      11.394  -4.289   1.940  0.00  0.00    -0.275 OA
ATOM     19  C   UNL     1      12.721  -1.571   0.885  0.00  0.00    +0.046 C 
ATOM     20  O   UNL     1       6.996  -5.761   3.465  0.00  0.00    -0.275 OA
ATOM     21  C   UNL     1       9.278  -4.382   0.735  0.00  0.00    +0.090 C 
ATOM     22  C   UNL     1       8.464  -3.100   0.607  0.00  0.00    +0.058 C 
ENDROOT
BRANCH  14  23
ATOM     23  C   UNL     1      12.646  -2.052  -1.629  0.00  0.00    +0.256 C 
ATOM     24  N   UNL     1      13.943  -2.523  -1.660  0.00  0.00    -0.188 N 
ATOM     25  H   UNL     1      14.357  -2.991  -0.857  0.00  0.00    +0.176 HD
ATOM     26  O   UNL     1      12.024  -1.595  -2.582  0.00  0.00    -0.272 OA
BRANCH  24  27
ATOM     27  S   UNL     1      14.938  -2.413  -2.987  0.00  0.00    +0.048 S 
ATOM     28  O   UNL     1      14.551  -3.471  -3.894  0.00  0.00    -0.155 OA
ATOM     29  O   UNL     1      16.275  -2.347  -2.452  0.00  0.00    -0.155 OA
BRANCH  27  30
ATOM     30  C   UNL     1      14.568  -0.852  -3.824  0.00  0.00    +0.151 C 
ATOM     31  C   UNL     1      15.732   0.070  -4.060  0.00  0.00    +0.030 C 
ATOM     32  C   UNL     1      14.762   0.362  -2.948  0.00  0.00    +0.030 C 
ENDBRANCH  27  30
ENDBRANCH  24  27
ENDBRANCH  14  23
BRANCH   1  33
ATOM     33  O   UNL     1       6.348  -2.840  -0.428  0.00  0.00    -0.488 OA
BRANCH  33  40
ATOM     34  C   UNL     1       0.847  -0.077  -0.302  0.00  0.00    +0.050 C 
ATOM     35  C   UNL     1       2.356  -0.080  -0.390  0.00  0.00    +0.017 A 
ATOM     36  C   UNL     1       3.017  -1.287  -0.121  0.00  0.00    +0.082 A 
ATOM     37  N   UNL     1       2.286  -2.373   0.239  0.00  0.00    -0.244 NA
ATOM     38  C   UNL     1       2.920  -3.540   0.453  0.00  0.00    +0.100 A 
ATOM     39  C   UNL     1       4.274  -3.666   0.295  0.00  0.00    +0.076 A 
ATOM     40  C   UNL     1       5.036  -2.590  -0.099  0.00  0.00    +0.132 A 
ATOM     41  C   UNL     1       4.426  -1.337  -0.274  0.00  0.00    +0.043 A 
ATOM     42  C   UNL     1       5.134  -0.156  -0.587  0.00  0.00    +0.017 A 
ATOM     43  C   UNL     1       4.458   1.045  -0.820  0.00  0.00    +0.047 A 
ATOM     44  C   UNL     1       3.067   1.083  -0.757  0.00  0.00    +0.125 A 
BRANCH  38  45
ATOM     45  C   UNL     1       2.197  -4.785   0.731  0.00  0.00    +0.127 A 
ATOM     46  S   UNL     1       0.509  -4.961   0.526  0.00  0.00    -0.074 S 
ATOM     47  C   UNL     1       0.669  -6.651   0.799  0.00  0.00    +0.070 A 
ATOM     48  C   UNL     1       1.981  -6.983   1.062  0.00  0.00    +0.052 A 
ATOM     49  N   UNL     1       2.834  -5.905   1.047  0.00  0.00    -0.242 NA
BRANCH  48  50
ATOM     50  C   UNL     1       2.551  -8.345   1.359  0.00  0.00    +0.032 C 
ATOM     51  C   UNL     1       3.171  -8.398   2.757  0.00  0.00    +0.014 C 
ATOM     52  C   UNL     1       3.592  -8.776   0.315  0.00  0.00    +0.014 C 
ENDBRANCH  48  50
ENDBRANCH  38  45
BRANCH  44  53
ATOM     53  O   UNL     1       2.305   2.190  -1.026  0.00  0.00    -0.495 OA
ATOM     54  C   UNL     1       2.952   3.348  -1.534  0.00  0.00    +0.277 C 
ENDBRANCH  44  53
ENDBRANCH  33  40
ENDBRANCH   1  33
TORSDOF 8
