REMARK  Name = 
REMARK  13 active torsions:
REMARK  status: ('A' for Active; 'I' for Inactive)
REMARK    1  A    between atoms: C_1  and  C_2
REMARK    2  A    between atoms: C_3  and  O_51
REMARK    3  A    between atoms: C_9  and  C_43
REMARK    4  A    between atoms: C_11  and  O_12
REMARK    5  A    between atoms: O_12  and  C_13
REMARK    6  A    between atoms: N_20  and  C_42
REMARK    7  A    between atoms: C_29  and  C_33
REMARK    8  A    between atoms: N_35  and  S_36
REMARK    9  A    between atoms: S_36  and  C_39
REMARK   10  A    between atoms: C_45  and  C_48
REMARK   11  A    between atoms: C_48  and  C_49
REMARK   12  A    between atoms: C_48  and  C_50
REMARK   13  A    between atoms: O_51  and  C_52
REMARK                            x       y       z     vdW  Elec       q    Type
REMARK                         _______ _______ _______ _____ _____    ______ ____
ROOT
ATOM      1  C   UNL     1       7.080  -3.609   0.568  0.00  0.00    +0.175 C 
ATOM      2  C   UNL     1       7.203  -5.152   0.554  0.00  0.00    +0.058 C 
ATOM      3  C   UNL     1       8.441  -5.357   1.484  0.00  0.00    +0.091 C 
ATOM      4  C   UNL     1       7.952  -5.091   2.942  0.00  0.00    +0.219 C 
ATOM      5  N   UNL     1       8.511  -4.053   3.689  0.00  0.00    -0.304 N 
ATOM      6  C   UNL     1       9.046  -4.534   4.956  0.00  0.00    +0.132 C 
ATOM      7  C   UNL     1       7.669  -2.856   3.909  0.00  0.00    +0.107 C 
ATOM      8  C   UNL     1       8.492  -1.587   4.134  0.00  0.00    +0.019 C 
ATOM      9  C   UNL     1       7.862  -0.341   3.478  0.00  0.00    +0.006 C 
ATOM     10  C   UNL     1       8.894   0.548   2.773  0.00  0.00    +0.027 C 
ATOM     11  C   UNL     1       9.459  -0.018   1.481  0.00  0.00    -0.031 C 
ATOM     12  C   UNL     1      10.711  -0.503   1.434  0.00  0.00    -0.025 C 
ATOM     13  C   UNL     1      11.580  -0.877   0.302  0.00  0.00    +0.046 C 
ATOM     14  C   UNL     1      12.041  -2.220  -0.292  0.00  0.00    +0.119 C 
ATOM     15  N   UNL     1      11.194  -3.371  -0.215  0.00  0.00    -0.301 N 
ATOM     16  H   UNL     1      10.606  -3.466  -1.042  0.00  0.00    +0.150 HD
ATOM     17  C   UNL     1      10.786  -4.080   0.915  0.00  0.00    +0.218 C 
ATOM     18  O   UNL     1      11.459  -4.348   1.893  0.00  0.00    -0.275 OA
ATOM     19  C   UNL     1      12.788  -1.629   0.856  0.00  0.00    +0.046 C 
ATOM     20  O   UNL     1       7.071  -5.808   3.428  0.00  0.00    -0.275 OA
ATOM     21  C   UNL     1       9.340  -4.431   0.694  0.00  0.00    +0.090 C 
ATOM     22  C   UNL     1       8.522  -3.148   0.569  0.00  0.00    +0.058 C 
ENDROOT
BRANCH  14  23
ATOM     23  C   UNL     1      12.730  -2.123  -1.654  0.00  0.00    +0.256 C 
ATOM     24  N   UNL     1      14.038  -2.621  -1.658  0.00  0.00    -0.188 N 
ATOM     25  H   UNL     1      14.424  -3.096  -0.847  0.00  0.00    +0.176 HD
ATOM     26  O   UNL     1      12.148  -1.660  -2.613  0.00  0.00    -0.272 OA
BRANCH  24  27
ATOM     27  S   UNL     1      15.078  -2.523  -2.941  0.00  0.00    +0.048 S 
ATOM     28  O   UNL     1      14.731  -3.583  -3.865  0.00  0.00    -0.155 OA
ATOM     29  O   UNL     1      16.399  -2.451  -2.355  0.00  0.00    -0.155 OA
BRANCH  27  30
ATOM     30  C   UNL     1      14.749  -0.958  -3.797  0.00  0.00    +0.151 C 
ATOM     31  C   UNL     1      15.929  -0.054  -4.013  0.00  0.00    +0.030 C 
ATOM     32  C   UNL     1      14.939   0.263  -2.928  0.00  0.00    +0.030 C 
ENDBRANCH  27  30
ENDBRANCH  24  27
ENDBRANCH  14  23
BRANCH   1  33
ATOM     33  O   UNL     1       6.408  -2.889  -0.464  0.00  0.00    -0.488 OA
BRANCH  33  40
ATOM     34  C   UNL     1       0.881  -0.178  -0.379  0.00  0.00    +0.050 C 
ATOM     35  C   UNL     1       2.390  -0.166  -0.465  0.00  0.00    +0.017 A 
ATOM     36  C   UNL     1       3.063  -1.363  -0.184  0.00  0.00    +0.082 A 
ATOM     37  N   UNL     1       2.339  -2.453   0.179  0.00  0.00    -0.244 NA
ATOM     38  C   UNL     1       2.980  -3.613   0.402  0.00  0.00    +0.100 A 
ATOM     39  C   UNL     1       4.336  -3.728   0.251  0.00  0.00    +0.076 A 
ATOM     40  C   UNL     1       5.092  -2.648  -0.143  0.00  0.00    +0.132 A 
ATOM     41  C   UNL     1       4.473  -1.400  -0.327  0.00  0.00    +0.043 A 
ATOM     42  C   UNL     1       5.171  -0.213  -0.641  0.00  0.00    +0.017 A 
ATOM     43  C   UNL     1       4.483   0.978  -0.891  0.00  0.00    +0.047 A 
ATOM     44  C   UNL     1       3.091   1.001  -0.840  0.00  0.00    +0.125 A 
BRANCH  38  45
ATOM     45  C   UNL     1       2.266  -4.862   0.690  0.00  0.00    +0.127 A 
ATOM     46  S   UNL     1       0.581  -5.054   0.481  0.00  0.00    -0.074 S 
ATOM     47  C   UNL     1       0.750  -6.741   0.775  0.00  0.00    +0.070 A 
ATOM     48  C   UNL     1       2.067  -7.058   1.044  0.00  0.00    +0.052 A 
ATOM     49  N   UNL     1       2.910  -5.972   1.019  0.00  0.00    -0.242 NA
BRANCH  48  50
ATOM     50  C   UNL     1       2.650  -8.412   1.353  0.00  0.00    +0.032 C 
ATOM     51  C   UNL     1       3.244  -8.453   2.763  0.00  0.00    +0.014 C 
ATOM     52  C   UNL     1       3.712  -8.832   0.329  0.00  0.00    +0.014 C 
ENDBRANCH  48  50
ENDBRANCH  38  45
BRANCH  44  53
ATOM     53  O   UNL     1       2.318   2.095  -1.129  0.00  0.00    -0.495 OA
ATOM     54  C   UNL     1       2.955   3.255  -1.646  0.00  0.00    +0.277 C 
ENDBRANCH  44  53
ENDBRANCH  33  40
ENDBRANCH   1  33
TORSDOF 8
