REMARK  Name = 
REMARK  8 active torsions:
REMARK  status: ('A' for Active; 'I' for Inactive)
REMARK    1  A    between atoms: C_2  and  N_3
REMARK    2  A    between atoms: N_3  and  C_4
REMARK    3  A    between atoms: N_3  and  C_5
REMARK    4  A    between atoms: C_5  and  C_6
REMARK    5  A    between atoms: C_6  and  O_7
REMARK    6  A    between atoms: O_7  and  C_8
REMARK    7  A    between atoms: C_8  and  C_9
REMARK    8  A    between atoms: N_11  and  C_12
REMARK                            x       y       z     vdW  Elec       q    Type
REMARK                         _______ _______ _______ _____ _____    ______ ____
ROOT
ATOM      1  H   UNK     1      -1.494   0.343  -0.513  0.00  0.00    +0.000 HD
ENDROOT
TORSDOF 0
REMARK  Name = 
REMARK  8 active torsions:
REMARK  status: ('A' for Active; 'I' for Inactive)
REMARK    1  A    between atoms: C_2  and  N_3
REMARK    2  A    between atoms: N_3  and  C_4
REMARK    3  A    between atoms: N_3  and  C_5
REMARK    4  A    between atoms: C_5  and  C_6
REMARK    5  A    between atoms: C_6  and  O_7
REMARK    6  A    between atoms: O_7  and  C_8
REMARK    7  A    between atoms: C_8  and  C_9
REMARK    8  A    between atoms: N_11  and  C_12
REMARK                            x       y       z     vdW  Elec       q    Type
REMARK                         _______ _______ _______ _____ _____    ______ ____
ROOT
ATOM      1  C   UNL     1       6.887  -3.542  -2.146  0.00  0.00    +0.239 C 
ATOM      2  N   UNL     1       8.191  -3.932  -2.252  0.00  0.00    -0.308 N 
ATOM      3  H   UNL     1       8.903  -3.343  -1.791  0.00  0.00    +0.149 HD
ATOM      4  O   UNL     1       5.986  -4.181  -2.666  0.00  0.00    -0.273 OA
ENDROOT
BRANCH   2   5
ATOM      5  C   UNL     1       8.643  -5.154  -2.919  0.00  0.00    +0.035 C 
ATOM      6  C   UNL     1      10.195  -5.251  -2.820  0.00  0.00    +0.029 C 
ATOM      7  C   UNL     1      10.696  -6.542  -3.503  0.00  0.00    -0.008 C 
ATOM      8  C   UNL     1      10.283  -6.531  -4.990  0.00  0.00    +0.007 C 
ATOM      9  C   UNL     1       8.746  -6.450  -5.096  0.00  0.00    -0.008 C 
ATOM     10  C   UNL     1       8.114  -7.674  -4.391  0.00  0.00    +0.007 C 
ATOM     11  C   UNL     1       8.535  -7.692  -2.905  0.00  0.00    -0.008 C 
ATOM     12  C   UNL     1      10.073  -7.768  -2.803  0.00  0.00    +0.007 C 
ATOM     13  C   UNL     1       8.036  -6.405  -2.217  0.00  0.00    +0.029 C 
ATOM     14  C   UNL     1       8.250  -5.152  -4.423  0.00  0.00    +0.029 C 
ENDBRANCH   2   5
BRANCH   1  15
ATOM     15  C   UNL     1       6.525  -2.339  -1.314  0.00  0.00    +0.255 C 
BRANCH  15  16
ATOM     16  O   UNL     1       5.665  -2.708  -0.252  0.00  0.00    -0.369 OA
BRANCH  16  17
ATOM     17  C   UNL     1       6.355  -3.514   0.689  0.00  0.00    +0.175 C 
BRANCH  17  18
ATOM     18  C   UNL     1       5.378  -4.000   1.762  0.00  0.00    +0.112 C 
BRANCH  18  20
ATOM     19  C   UNL     1       4.552  -5.950   0.507  0.00  0.00    +0.104 C 
ATOM     20  N   UNL     1       4.199  -4.695   1.195  0.00  0.00    -0.306 NA
ATOM     21  C   UNL     1       3.235  -4.979   2.270  0.00  0.00    +0.104 C 
ENDBRANCH  18  20
ENDBRANCH  17  18
ENDBRANCH  16  17
ENDBRANCH  15  16
ENDBRANCH   1  15
TORSDOF 6
REMARK  Name = 
REMARK  8 active torsions:
REMARK  status: ('A' for Active; 'I' for Inactive)
REMARK    1  A    between atoms: C_2  and  N_3
REMARK    2  A    between atoms: N_3  and  C_4
REMARK    3  A    between atoms: N_3  and  C_5
REMARK    4  A    between atoms: C_5  and  C_6
REMARK    5  A    between atoms: C_6  and  O_7
REMARK    6  A    between atoms: O_7  and  C_8
REMARK    7  A    between atoms: C_8  and  C_9
REMARK    8  A    between atoms: N_11  and  C_12
REMARK                            x       y       z     vdW  Elec       q    Type
REMARK                         _______ _______ _______ _____ _____    ______ ____
ROOT
ATOM      1 CL   UNL     1       2.076   1.882  -2.098  0.00  0.00    +0.000 Cl
ENDROOT
TORSDOF 0
