REMARK  Name = 
REMARK  6 active torsions:
REMARK  status: ('A' for Active; 'I' for Inactive)
REMARK    1  A    between atoms: C6_3  and  N6_22
REMARK    2  A    between atoms: N9_7  and  C1*_10
REMARK    3  A    between atoms: C2*_12  and  O2*_21
REMARK    4  A    between atoms: C3*_13  and  O3*_20
REMARK    5  A    between atoms: C4*_15  and  C5*_18
REMARK    6  A    between atoms: C5*_18  and  O5*_19
REMARK                            x       y       z     vdW  Elec       q    Type
REMARK                         _______ _______ _______ _____ _____    ______ ____
ROOT
ATOM      1  C2    A A   1      -1.522   0.509   1.783  0.00  0.00    +0.225 A 
ATOM      2  N3    A A   1      -0.520   1.346   1.421  0.00  0.00    -0.216 NA
ATOM      3  C4    A A   1       0.357   0.716   0.617  0.00  0.00    +0.167 A 
ATOM      4  N9    A A   1       1.479   1.213   0.009  0.00  0.00    -0.286 N 
ATOM      5  C8    A A   1       2.076   0.171  -0.662  0.00  0.00    +0.203 A 
ATOM      6  N7    A A   1       1.390  -0.944  -0.568  0.00  0.00    -0.231 NA
ATOM      7  C5    A A   1       0.305  -0.615   0.215  0.00  0.00    +0.147 A 
ATOM      8  C6    A A   1      -0.783  -1.382   0.669  0.00  0.00    +0.147 A 
ATOM      9  N1    A A   1      -1.695  -0.795   1.471  0.00  0.00    -0.219 NA
ENDROOT
BRANCH   4  10
ATOM     10  C1*   A A   1       2.036   2.540   0.061  0.00  0.00    +0.253 C 
ATOM     11  O4*   A A   1       2.379   2.890   1.417  0.00  0.00    -0.346 OA
ATOM     12  C4*   A A   1       2.437   4.338   1.479  0.00  0.00    +0.177 C 
ATOM     13  C3*   A A   1       2.039   4.864   0.089  0.00  0.00    +0.178 C 
ATOM     14  C2*   A A   1       1.244   3.714  -0.523  0.00  0.00    +0.195 C 
BRANCH  13  15
ATOM     15  O3*   A A   1       1.341   6.096   0.091  0.00  0.00    -0.386 OA
ATOM     16  H3*   A A   1       0.393   5.876   0.206  0.00  0.00    +0.210 HD
ENDBRANCH  13  15
BRANCH  14  17
ATOM     17  O2*   A A   1      -0.126   3.826  -0.139  0.00  0.00    -0.385 OA
ATOM     18  H2*   A A   1      -0.197   3.712   0.834  0.00  0.00    +0.210 HD
ENDBRANCH  14  17
BRANCH  12  19
ATOM     19  C5*   A A   1       1.569   4.804   2.647  0.00  0.00    +0.190 C 
BRANCH  19  20
ATOM     20  O5*   A A   1       0.234   4.313   2.506  0.00  0.00    -0.392 OA
ATOM     21  H5*   A A   1       0.255   3.382   2.807  0.00  0.00    +0.210 HD
ENDBRANCH  19  20
ENDBRANCH  12  19
ENDBRANCH   4  10
BRANCH   8  22
ATOM     22  N6    A A   1      -0.945  -2.721   0.340  0.00  0.00    -0.341 N 
ATOM     23  H61   A A   1      -0.084  -3.174   0.045  0.00  0.00    +0.144 HD
ATOM     24  H62   A A   1      -1.538  -3.215   0.998  0.00  0.00    +0.144 HD
ENDBRANCH   8  22
TORSDOF 6
