REMARK  Name = 
REMARK  6 active torsions:
REMARK  status: ('A' for Active; 'I' for Inactive)
REMARK    1  A    between atoms: C_3  and  C_18
REMARK    2  A    between atoms: N_5  and  C1*_6
REMARK    3  A    between atoms: C2*_8  and  O2*_17
REMARK    4  A    between atoms: C3*_9  and  O3*_16
REMARK    5  A    between atoms: C4*_11  and  C5*_14
REMARK    6  A    between atoms: C5*_14  and  O5*_15
REMARK                            x       y       z     vdW  Elec       q    Type
REMARK                         _______ _______ _______ _____ _____    ______ ____
ROOT
ATOM      1  C1* UNL     1      -0.809  -2.532   0.069  0.00  0.00    +0.270 C 
ATOM      2  O4* UNL     1      -1.124  -2.962   1.410  0.00  0.00    -0.344 OA
ATOM      3  C4* UNL     1      -1.081  -4.415   1.416  0.00  0.00    +0.177 C 
ATOM      4  C3* UNL     1      -0.704  -4.843  -0.013  0.00  0.00    +0.178 C 
ATOM      5  C2* UNL     1       0.072  -3.632  -0.523  0.00  0.00    +0.196 C 
ENDROOT
BRANCH   1   7
ATOM      6  C   UNL     1      -1.100  -0.063   0.034  0.00  0.00    +0.223 A 
ATOM      7  N   UNL     1      -0.315  -1.172   0.090  0.00  0.00    -0.220 N 
ATOM      8  N   UNL     1       1.001  -0.842   0.109  0.00  0.00    -0.142 NA
ATOM      9  C   UNL     1       0.939   0.514   0.066  0.00  0.00    +0.236 A 
ATOM     10  N   UNL     1      -0.351   1.008   0.005  0.00  0.00    -0.211 NA
BRANCH   9  11
ATOM     11  C   UNL     1       2.119   1.405   0.072  0.00  0.00    +0.281 C 
ATOM     12  N   UNL     1       3.333   0.765   0.132  0.00  0.00    -0.323 N 
ATOM     13  H   UNL     1       4.169   1.325   0.165  0.00  0.00    +0.145 HD
ATOM     14  H   UNL     1       3.370  -0.243   0.199  0.00  0.00    +0.145 HD
ATOM     15  O   UNL     1       2.069   2.631   0.025  0.00  0.00    -0.267 OA
ENDBRANCH   9  11
ENDBRANCH   1   7
BRANCH   4  16
ATOM     16  O3* UNL     1       0.033  -6.049  -0.100  0.00  0.00    -0.386 OA
ATOM     17  H3* UNL     1       0.979  -5.791  -0.076  0.00  0.00    +0.210 HD
ENDBRANCH   4  16
BRANCH   5  18
ATOM     18  O2* UNL     1       1.400  -3.733   0.018  0.00  0.00    -0.385 OA
ATOM     19  H2* UNL     1       1.630  -2.855   0.391  0.00  0.00    +0.210 HD
ENDBRANCH   5  18
BRANCH   3  20
ATOM     20  C5* UNL     1      -0.129  -4.918   2.509  0.00  0.00    +0.190 C 
BRANCH  20  21
ATOM     21  O5* UNL     1      -0.557  -4.499   3.806  0.00  0.00    -0.392 OA
ATOM     22  H5* UNL     1      -1.451  -4.848   3.955  0.00  0.00    +0.210 HD
ENDBRANCH  20  21
ENDBRANCH   3  20
TORSDOF 6
