REMARK  Name = 
REMARK  5 active torsions:
REMARK  status: ('A' for Active; 'I' for Inactive)
REMARK    1  A    between atoms: C_1  and  C_2
REMARK    2  A    between atoms: N_4  and  C_10
REMARK    3  A    between atoms: C_13  and  N_20
REMARK    4  A    between atoms: C_15  and  C_18
REMARK    5  A    between atoms: C_18  and  O_19
REMARK                            x       y       z     vdW  Elec       q    Type
REMARK                         _______ _______ _______ _____ _____    ______ ____
ROOT
ATOM      1  C   UNL     1       5.420   2.602  -0.372  0.00  0.00    +0.226 C 
ATOM      2  O   UNL     1       6.489   2.692   0.585  0.00  0.00    -0.349 OA
ATOM      3  C   UNL     1       6.655   4.080   0.965  0.00  0.00    +0.178 C 
ATOM      4  C   UNL     1       5.710   4.890   0.066  0.00  0.00    +0.230 C 
ATOM      5  C   UNL     1       4.620   3.888  -0.242  0.00  0.00    +0.091 C 
ENDROOT
BRANCH   1  14
ATOM      6  C   UNL     1       3.519  -0.903   2.623  0.00  0.00    +0.051 C 
ATOM      7  C   UNL     1       3.712  -0.250   1.294  0.00  0.00    +0.030 A 
ATOM      8  C   UNL     1       2.981  -0.827   0.142  0.00  0.00    +0.257 A 
ATOM      9  O   UNL     1       2.231  -1.789   0.261  0.00  0.00    -0.267 OA
ATOM     10  N   UNL     1       3.183  -0.211  -1.059  0.00  0.00    -0.275 N 
ATOM     11  H   UNL     1       2.675  -0.575  -1.849  0.00  0.00    +0.173 HD
ATOM     12  C   UNL     1       3.922   0.921  -1.271  0.00  0.00    +0.331 A 
ATOM     13  O   UNL     1       3.929   1.460  -2.377  0.00  0.00    -0.246 OA
ATOM     14  N   UNL     1       4.620   1.401  -0.172  0.00  0.00    -0.274 N 
ATOM     15  C   UNL     1       4.492   0.817   1.076  0.00  0.00    +0.101 A 
ENDBRANCH   1  14
BRANCH   4  16
ATOM     16  N   UNL     1       5.173   6.076   0.738  0.00  0.00    +0.125 NA
ATOM     17  N   UNL     1       4.814   7.012   0.010  0.00  0.00    +0.219 NA
ATOM     18  N   UNL     1       4.448   7.961  -0.690  0.00  0.00    +0.104 NA
ATOM     19  H   UNL     1       3.955   8.651  -0.115  0.00  0.00    +0.288 HD
ENDBRANCH   4  16
BRANCH   3  20
ATOM     20  C   UNL     1       6.372   4.218   2.471  0.00  0.00    +0.189 C 
BRANCH  20  21
ATOM     21  O   UNL     1       7.295   3.458   3.253  0.00  0.00    -0.392 OA
ATOM     22  H   UNL     1       8.171   3.868   3.156  0.00  0.00    +0.210 HD
ENDBRANCH  20  21
ENDBRANCH   3  20
TORSDOF 4
