REMARK  Name = 
REMARK  6 active torsions:
REMARK  status: ('A' for Active; 'I' for Inactive)
REMARK    1  A    between atoms: C6_3  and  N6_22
REMARK    2  A    between atoms: N9_7  and  C1*_10
REMARK    3  A    between atoms: C2*_12  and  O2*_21
REMARK    4  A    between atoms: C3*_13  and  O3*_20
REMARK    5  A    between atoms: C4*_15  and  C5*_18
REMARK    6  A    between atoms: C5*_18  and  O5*_19
REMARK                            x       y       z     vdW  Elec       q    Type
REMARK                         _______ _______ _______ _____ _____    ______ ____
ROOT
ATOM      1  C2    A A   1      -1.721   0.613  -1.235  0.00  0.00    +0.225 A 
ATOM      2  N3    A A   1      -0.721   1.437  -0.848  0.00  0.00    -0.216 NA
ATOM      3  C4    A A   1       0.298   0.735  -0.320  0.00  0.00    +0.167 A 
ATOM      4  N9    A A   1       1.480   1.204   0.183  0.00  0.00    -0.286 N 
ATOM      5  C8    A A   1       2.196   0.113   0.624  0.00  0.00    +0.203 A 
ATOM      6  N7    A A   1       1.557  -1.017   0.418  0.00  0.00    -0.231 NA
ATOM      7  C5    A A   1       0.372  -0.644  -0.173  0.00  0.00    +0.147 A 
ATOM      8  C6    A A   1      -0.727  -1.393  -0.631  0.00  0.00    +0.147 A 
ATOM      9  N1    A A   1      -1.783  -0.733  -1.151  0.00  0.00    -0.219 NA
ENDROOT
BRANCH   4  10
ATOM     10  C1*   A A   1       2.029   2.537   0.148  0.00  0.00    +0.253 C 
ATOM     11  O4*   A A   1       2.421   2.928   1.481  0.00  0.00    -0.346 OA
ATOM     12  C4*   A A   1       2.471   4.383   1.515  0.00  0.00    +0.177 C 
ATOM     13  C3*   A A   1       2.087   4.859   0.105  0.00  0.00    +0.178 C 
ATOM     14  C2*   A A   1       1.216   3.715  -0.402  0.00  0.00    +0.195 C 
BRANCH  13  15
ATOM     15  O3*   A A   1       1.420   6.109   0.052  0.00  0.00    -0.386 OA
ATOM     16  H3*   A A   1       0.464   5.903   0.154  0.00  0.00    +0.210 HD
ENDBRANCH  13  15
BRANCH  14  17
ATOM     17  O2*   A A   1      -0.082   3.898   0.186  0.00  0.00    -0.385 OA
ATOM     18  H2*   A A   1      -0.593   3.084  -0.016  0.00  0.00    +0.210 HD
ENDBRANCH  14  17
BRANCH  12  19
ATOM     19  C5*   A A   1       1.573   4.921   2.635  0.00  0.00    +0.190 C 
BRANCH  19  20
ATOM     20  O5*   A A   1       2.077   4.518   3.910  0.00  0.00    -0.392 OA
ATOM     21  H5*   A A   1       1.454   4.856   4.576  0.00  0.00    +0.210 HD
ENDBRANCH  19  20
ENDBRANCH  12  19
ENDBRANCH   4  10
BRANCH   8  22
ATOM     22  N6    A A   1      -0.780  -2.779  -0.558  0.00  0.00    -0.341 N 
ATOM     23  H61   A A   1      -0.138  -3.170   0.122  0.00  0.00    +0.144 HD
ATOM     24  H62   A A   1      -1.731  -3.125  -0.558  0.00  0.00    +0.144 HD
ENDBRANCH   8  22
TORSDOF 6
