REMARK  Name = 
REMARK  5 active torsions:
REMARK  status: ('A' for Active; 'I' for Inactive)
REMARK    1  A    between atoms: C_1  and  C_2
REMARK    2  A    between atoms: N_4  and  C_10
REMARK    3  A    between atoms: C_13  and  N_20
REMARK    4  A    between atoms: C_15  and  C_18
REMARK    5  A    between atoms: C_18  and  O_19
REMARK                            x       y       z     vdW  Elec       q    Type
REMARK                         _______ _______ _______ _____ _____    ______ ____
ROOT
ATOM      1  C   UNL     1       5.406   2.317  -0.338  0.00  0.00    +0.226 C 
ATOM      2  O   UNL     1       6.422   2.292   0.687  0.00  0.00    -0.349 OA
ATOM      3  C   UNL     1       6.604   3.651   1.169  0.00  0.00    +0.178 C 
ATOM      4  C   UNL     1       5.847   4.543   0.187  0.00  0.00    +0.230 C 
ATOM      5  C   UNL     1       4.690   3.652  -0.208  0.00  0.00    +0.091 C 
ENDROOT
BRANCH   1  14
ATOM      6  C   UNL     1       3.328  -1.361   2.301  0.00  0.00    +0.051 C 
ATOM      7  C   UNL     1       3.569  -0.603   1.034  0.00  0.00    +0.030 A 
ATOM      8  C   UNL     1       2.943  -1.124  -0.205  0.00  0.00    +0.257 A 
ATOM      9  O   UNL     1       2.278  -2.148  -0.212  0.00  0.00    -0.267 OA
ATOM     10  N   UNL     1       3.156  -0.387  -1.331  0.00  0.00    -0.275 N 
ATOM     11  H   UNL     1       2.732  -0.721  -2.180  0.00  0.00    +0.173 HD
ATOM     12  C   UNL     1       3.908   0.753  -1.423  0.00  0.00    +0.331 A 
ATOM     13  O   UNL     1       4.008   1.352  -2.492  0.00  0.00    -0.246 OA
ATOM     14  N   UNL     1       4.531   1.159  -0.249  0.00  0.00    -0.274 N 
ATOM     15  C   UNL     1       4.321   0.499   0.946  0.00  0.00    +0.101 A 
ENDBRANCH   1  14
BRANCH   4  16
ATOM     16  N   UNL     1       5.406   5.808   0.770  0.00  0.00    +0.125 NA
ATOM     17  N   UNL     1       4.986   6.653  -0.036  0.00  0.00    +0.219 NA
ATOM     18  N   UNL     1       4.565   7.469  -0.863  0.00  0.00    +0.104 NA
ATOM     19  H   UNL     1       4.915   7.253  -1.800  0.00  0.00    +0.288 HD
ENDBRANCH   4  16
BRANCH   3  20
ATOM     20  C   UNL     1       6.097   3.682   2.617  0.00  0.00    +0.189 C 
BRANCH  20  21
ATOM     21  O   UNL     1       6.864   2.769   3.411  0.00  0.00    -0.392 OA
ATOM     22  H   UNL     1       7.100   2.025   2.825  0.00  0.00    +0.210 HD
ENDBRANCH  20  21
ENDBRANCH   3  20
TORSDOF 4
