REMARK  Name = 
REMARK  5 active torsions:
REMARK  status: ('A' for Active; 'I' for Inactive)
REMARK    1  A    between atoms: C_1  and  C_2
REMARK    2  A    between atoms: N_4  and  C_10
REMARK    3  A    between atoms: C_13  and  O_20
REMARK    4  A    between atoms: C_15  and  C_18
REMARK    5  A    between atoms: C_18  and  O_19
REMARK                            x       y       z     vdW  Elec       q    Type
REMARK                         _______ _______ _______ _____ _____    ______ ____
ROOT
ATOM      1  C   UNL     1       5.279   2.458  -0.299  0.00  0.00    +0.260 C 
ATOM      2  O   UNL     1       6.385   2.506   0.630  0.00  0.00    -0.345 OA
ATOM      3  C   UNL     1       6.607   3.894   0.974  0.00  0.00    +0.178 C 
ATOM      4  C   UNL     1       5.645   4.737   0.138  0.00  0.00    +0.184 C 
ATOM      5  C   UNL     1       4.512   3.765  -0.119  0.00  0.00    +0.246 C 
ATOM      6  F   UNL     1       3.834   4.116  -1.236  0.00  0.00    -0.238 F 
ENDROOT
BRANCH   1  15
ATOM      7  C   UNL     1       3.407  -1.082   2.694  0.00  0.00    +0.051 C 
ATOM      8  C   UNL     1       3.577  -0.402   1.374  0.00  0.00    +0.030 A 
ATOM      9  C   UNL     1       2.824  -0.961   0.227  0.00  0.00    +0.257 A 
ATOM     10  O   UNL     1       2.085  -1.933   0.346  0.00  0.00    -0.267 OA
ATOM     11  N   UNL     1       2.994  -0.321  -0.964  0.00  0.00    -0.275 N 
ATOM     12  H   UNL     1       2.483  -0.680  -1.756  0.00  0.00    +0.173 HD
ATOM     13  C   UNL     1       3.765   0.786  -1.185  0.00  0.00    +0.331 A 
ATOM     14  O   UNL     1       3.809   1.293  -2.303  0.00  0.00    -0.246 OA
ATOM     15  N   UNL     1       4.471   1.260  -0.086  0.00  0.00    -0.271 N 
ATOM     16  C   UNL     1       4.355   0.666   1.159  0.00  0.00    +0.102 A 
ENDBRANCH   1  15
BRANCH   4  17
ATOM     17  O   UNL     1       5.254   5.924   0.826  0.00  0.00    -0.386 OA
ATOM     18  H   UNL     1       4.617   5.703   1.527  0.00  0.00    +0.210 HD
ENDBRANCH   4  17
BRANCH   3  19
ATOM     19  C   UNL     1       8.073   4.240   0.721  0.00  0.00    +0.190 C 
BRANCH  19  20
ATOM     20  O   UNL     1       8.422   3.976  -0.637  0.00  0.00    -0.392 OA
ATOM     21  H   UNL     1       8.290   3.020  -0.775  0.00  0.00    +0.210 HD
ENDBRANCH  19  20
ENDBRANCH   3  19
TORSDOF 4
