REMARK  Name = 
REMARK  3 active torsions:
REMARK  status: ('A' for Active; 'I' for Inactive)
REMARK    1  A    between atoms: C_3  and  N_10
REMARK    2  A    between atoms: C_6  and  C_8
REMARK    3  A    between atoms: C_8  and  O_9
REMARK                            x       y       z     vdW  Elec       q    Type
REMARK                         _______ _______ _______ _____ _____    ______ ____
ROOT
ATOM      1  N   UNL     1       0.225   2.527   0.494  0.00  0.00    -0.273 N 
ATOM      2  C   UNL     1      -0.434   3.655  -0.003  0.00  0.00    +0.352 A 
ATOM      3  O   UNL     1      -1.202   3.569  -0.961  0.00  0.00    -0.244 OA
ATOM      4  N   UNL     1      -0.205   4.868   0.604  0.00  0.00    -0.178 NA
ATOM      5  C   UNL     1       0.560   4.932   1.648  0.00  0.00    +0.123 A 
ATOM      6  N   UNL     1       0.770   6.170   2.188  0.00  0.00    -0.343 N 
ATOM      7  H   UNL     1       0.119   6.865   1.835  0.00  0.00    +0.144 HD
ATOM      8  H   UNL     1       0.938   6.232   3.183  0.00  0.00    +0.144 HD
ATOM      9  C   UNL     1       1.190   3.748   2.265  0.00  0.00    +0.061 A 
ATOM     10  C   UNL     1       0.990   2.591   1.637  0.00  0.00    +0.096 A 
ENDROOT
BRANCH   1  14
ATOM     11  C   UNL     1      -0.841  -0.906  -0.184  0.00  0.00    +0.038 C 
ATOM     12  C   UNL     1       0.663  -0.956   0.032  0.00  0.00    +0.146 C 
ATOM     13  O   UNL     1       1.152   0.401  -0.071  0.00  0.00    -0.351 OA
ATOM     14  C   UNL     1       0.014   1.277  -0.211  0.00  0.00    +0.224 C 
ATOM     15  C   UNL     1      -1.188   0.486   0.284  0.00  0.00    +0.057 C 
BRANCH  12  16
ATOM     16  C   UNL     1       1.387  -1.824  -0.995  0.00  0.00    +0.187 C 
BRANCH  16  17
ATOM     17  O   UNL     1       2.789  -1.814  -0.734  0.00  0.00    -0.392 OA
ATOM     18  H   UNL     1       3.041  -0.871  -0.690  0.00  0.00    +0.210 HD
ENDBRANCH  16  17
ENDBRANCH  12  16
ENDBRANCH   1  14
TORSDOF 3
