REMARK  Name = 
REMARK  3 active torsions:
REMARK  status: ('A' for Active; 'I' for Inactive)
REMARK    1  A    between atoms: C_3  and  N_10
REMARK    2  A    between atoms: C_6  and  C_8
REMARK    3  A    between atoms: C_8  and  O_9
REMARK                            x       y       z     vdW  Elec       q    Type
REMARK                         _______ _______ _______ _____ _____    ______ ____
ROOT
ATOM      1  N   UNL     1       0.227   2.526   0.495  0.00  0.00    -0.273 N 
ATOM      2  C   UNL     1      -0.433   3.653  -0.002  0.00  0.00    +0.352 A 
ATOM      3  O   UNL     1      -1.199   3.567  -0.961  0.00  0.00    -0.244 OA
ATOM      4  N   UNL     1      -0.205   4.866   0.605  0.00  0.00    -0.178 NA
ATOM      5  C   UNL     1       0.560   4.932   1.649  0.00  0.00    +0.123 A 
ATOM      6  N   UNL     1       0.770   6.171   2.187  0.00  0.00    -0.343 N 
ATOM      7  H   UNL     1       0.121   6.865   1.831  0.00  0.00    +0.144 HD
ATOM      8  H   UNL     1       0.937   6.234   3.182  0.00  0.00    +0.144 HD
ATOM      9  C   UNL     1       1.193   3.750   2.264  0.00  0.00    +0.061 A 
ATOM     10  C   UNL     1       0.991   2.592   1.638  0.00  0.00    +0.096 A 
ENDROOT
BRANCH   1  14
ATOM     11  C   UNL     1      -0.841  -0.908  -0.184  0.00  0.00    +0.038 C 
ATOM     12  C   UNL     1       0.663  -0.958   0.032  0.00  0.00    +0.146 C 
ATOM     13  O   UNL     1       1.152   0.399  -0.070  0.00  0.00    -0.351 OA
ATOM     14  C   UNL     1       0.015   1.275  -0.209  0.00  0.00    +0.224 C 
ATOM     15  C   UNL     1      -1.187   0.485   0.285  0.00  0.00    +0.057 C 
BRANCH  12  16
ATOM     16  C   UNL     1       1.387  -1.825  -0.995  0.00  0.00    +0.187 C 
BRANCH  16  17
ATOM     17  O   UNL     1       2.789  -1.815  -0.734  0.00  0.00    -0.392 OA
ATOM     18  H   UNL     1       3.041  -0.873  -0.689  0.00  0.00    +0.210 HD
ENDBRANCH  16  17
ENDBRANCH  12  16
ENDBRANCH   1  14
TORSDOF 3
