REMARK  Name = 
REMARK  18 active torsions:
REMARK  status: ('A' for Active; 'I' for Inactive)
REMARK    1  A    between atoms: C_1  and  C_2
REMARK    2  A    between atoms: C_2  and  C_39
REMARK    3  A    between atoms: C_7  and  C_25
REMARK    4  A    between atoms: C_10  and  C_12
REMARK    5  A    between atoms: C_12  and  C_13
REMARK    6  A    between atoms: C_12  and  N_17
REMARK    7  A    between atoms: C_13  and  C_14
REMARK    8  A    between atoms: C_13  and  C_15
REMARK    9  A    between atoms: C_13  and  C_16
REMARK   10  A    between atoms: N_20  and  C_21
REMARK   11  A    between atoms: C_21  and  C_22
REMARK   12  A    between atoms: C_21  and  C_23
REMARK   13  A    between atoms: C_21  and  C_24
REMARK   14  A    between atoms: N_27  and  C_28
REMARK   15  A    between atoms: C_28  and  C_29
REMARK   16  A    between atoms: C_28  and  C_34
REMARK   17  A    between atoms: C_29  and  C_30
REMARK   18  A    between atoms: C_34  and  C_36
REMARK                            x       y       z     vdW  Elec       q    Type
REMARK                         _______ _______ _______ _____ _____    ______ ____
ROOT
ATOM      1  C   UNL     1       0.996   0.038   0.408  0.00  0.00    +0.011 C 
ATOM      2  C   UNL     1       2.465  -0.239   0.143  0.00  0.00    -0.025 C 
ATOM      3  C   UNL     1       2.678  -0.816  -1.230  0.00  0.00    +0.011 C 
ATOM      4  C   UNL     1       3.455   0.720   0.829  0.00  0.00    +0.030 C 
ATOM      5  C   UNL     1       4.944   0.958   0.641  0.00  0.00    +0.166 C 
ATOM      6  N   UNL     1       5.571  -0.229   1.238  0.00  0.00    -0.288 N 
ATOM      7  C   UNL     1       6.843  -0.152   1.767  0.00  0.00    +0.237 C 
ATOM      8  O   UNL     1       7.420   0.941   1.771  0.00  0.00    -0.274 OA
ATOM      9  C   UNL     1       4.652  -1.356   1.266  0.00  0.00    +0.113 C 
ATOM     10  C   UNL     1       3.299  -0.702   1.321  0.00  0.00    +0.018 C 
ENDROOT
BRANCH   5  11
ATOM     11  C   UNL     1       5.438   1.173  -0.808  0.00  0.00    +0.234 C 
ATOM     12  N   UNL     1       6.711   1.704  -0.944  0.00  0.00    -0.304 N 
ATOM     13  H   UNL     1       7.287   1.826  -0.108  0.00  0.00    +0.149 HD
ATOM     14  O   UNL     1       4.792   0.871  -1.807  0.00  0.00    -0.274 OA
BRANCH  12  15
ATOM     15  C   UNL     1       7.339   1.741  -2.269  0.00  0.00    +0.149 C 
BRANCH  15  16
ATOM     16  C   UNL     1       8.858   1.797  -2.162  0.00  0.00    +0.237 C 
ATOM     17  O   UNL     1       9.484   2.318  -1.247  0.00  0.00    -0.285 OA
BRANCH  16  18
ATOM     18  C   UNL     1       9.626   1.164  -3.331  0.00  0.00    +0.279 C 
ATOM     19  N   UNL     1      10.987   1.265  -3.249  0.00  0.00    -0.323 N 
ATOM     20  H   UNL     1      11.560   0.844  -3.964  0.00  0.00    +0.145 HD
ATOM     21  H   UNL     1      11.415   1.730  -2.456  0.00  0.00    +0.145 HD
ATOM     22  O   UNL     1       9.051   0.609  -4.253  0.00  0.00    -0.267 OA
ENDBRANCH  16  18
ENDBRANCH  15  16
BRANCH  15  23
ATOM     23  C   UNL     1       6.785   2.847  -3.189  0.00  0.00    +0.034 C 
BRANCH  23  24
ATOM     24  C   UNL     1       7.039   4.260  -2.662  0.00  0.00    -0.009 C 
ATOM     25  C   UNL     1       6.107   4.740  -1.526  0.00  0.00    +0.003 C 
ATOM     26  C   UNL     1       5.915   6.067  -2.270  0.00  0.00    +0.001 C 
ATOM     27  C   UNL     1       6.474   5.407  -3.539  0.00  0.00    +0.003 C 
ENDBRANCH  23  24
ENDBRANCH  15  23
ENDBRANCH  12  15
ENDBRANCH   5  11
BRANCH   7  28
ATOM     28  C   UNL     1       7.503  -1.417   2.402  0.00  0.00    +0.166 C 
BRANCH  28  29
ATOM     29  N   UNL     1       7.167  -1.511   3.835  0.00  0.00    -0.288 N 
ATOM     30  H   UNL     1       7.353  -0.710   4.422  0.00  0.00    +0.151 HD
ATOM     31  C   UNL     1       6.557  -2.618   4.367  0.00  0.00    +0.301 C 
ATOM     32  N   UNL     1       6.463  -2.576   5.739  0.00  0.00    -0.295 N 
ATOM     33  H   UNL     1       7.078  -1.925   6.207  0.00  0.00    +0.151 HD
ATOM     34  O   UNL     1       6.148  -3.541   3.674  0.00  0.00    -0.253 OA
BRANCH  32  35
ATOM     35  C   UNL     1       5.919  -3.688   6.554  0.00  0.00    +0.028 C 
ATOM     36  C   UNL     1       4.437  -3.936   6.217  0.00  0.00    +0.031 C 
ATOM     37  C   UNL     1       6.000  -3.312   8.046  0.00  0.00    +0.031 C 
ATOM     38  C   UNL     1       6.726  -4.984   6.354  0.00  0.00    +0.031 C 
ENDBRANCH  32  35
ENDBRANCH  28  29
BRANCH  28  39
ATOM     39  C   UNL     1       9.068  -1.487   2.189  0.00  0.00    -0.011 C 
ATOM     40  C   UNL     1       9.394  -1.465   0.679  0.00  0.00    +0.013 C 
ATOM     41  C   UNL     1       9.619  -2.818   2.757  0.00  0.00    +0.013 C 
ATOM     42  C   UNL     1       9.846  -0.347   2.879  0.00  0.00    +0.013 C 
ENDBRANCH  28  39
ENDBRANCH   7  28
TORSDOF 10
