REMARK  Name = 
REMARK  19 active torsions:
REMARK  status: ('A' for Active; 'I' for Inactive)
REMARK    1  A    between atoms: C_1  and  C_2
REMARK    2  A    between atoms: C_2  and  C_3
REMARK    3  A    between atoms: C_2  and  C_4
REMARK    4  A    between atoms: C_4  and  C_5
REMARK    5  A    between atoms: C_4  and  N_61
REMARK    6  A    between atoms: C_11  and  C_12
REMARK    7  A    between atoms: C_15  and  C_17
REMARK    8  A    between atoms: C_24  and  C_55
REMARK    9  A    between atoms: C_32  and  C_34
REMARK   10  A    between atoms: C_37  and  C_39
REMARK   11  A    between atoms: C_44  and  C_46
REMARK   12  A    between atoms: C_46  and  C_47
REMARK   13  A    between atoms: C_46  and  N_50
REMARK   14  A    between atoms: C_47  and  C_48
REMARK   15  A    between atoms: C_47  and  C_49
REMARK   16  A    between atoms: C_51  and  O_53
REMARK   17  A    between atoms: O_53  and  C_54
REMARK   18  A    between atoms: C_62  and  O_64
REMARK   19  A    between atoms: O_64  and  C_65
REMARK                            x       y       z     vdW  Elec       q    Type
REMARK                         _______ _______ _______ _____ _____    ______ ____
ROOT
ATOM      1  C   UNL     1       3.239   3.034  -6.196  0.00  0.00    +0.000 A 
ATOM      2  C   UNL     1       3.493   4.294  -6.750  0.00  0.00    +0.012 A 
ATOM      3  C   UNL     1       4.468   4.482  -7.738  0.00  0.00    +0.027 A 
ATOM      4  C   UNL     1       5.192   3.358  -8.156  0.00  0.00    +0.053 A 
ATOM      5  N   UNL     1       6.159   3.190  -9.119  0.00  0.00    -0.300 N 
ATOM      6  C   UNL     1       6.567   1.878  -9.165  0.00  0.00    +0.057 A 
ATOM      7  C   UNL     1       5.853   1.177  -8.227  0.00  0.00    +0.036 A 
ATOM      8  C   UNL     1       7.589   1.514 -10.113  0.00  0.00    +0.040 A 
ATOM      9  C   UNL     1       7.863   0.189 -10.440  0.00  0.00    +0.014 A 
ATOM     10  C   UNL     1       8.903  -0.099 -11.318  0.00  0.00    +0.011 A 
ATOM     11  C   UNL     1       9.684   0.932 -11.856  0.00  0.00    +0.003 A 
ATOM     12  C   UNL     1       9.384   2.267 -11.540  0.00  0.00    +0.056 A 
ATOM     13  C   UNL     1       8.322   2.553 -10.693  0.00  0.00    +0.133 A 
ATOM     14  O   UNL     1       8.065   3.879 -10.410  0.00  0.00    -0.464 OA
ATOM     15  C   UNL     1       6.668   4.164 -10.094  0.00  0.00    +0.308 C 
ATOM     16  C   UNL     1       4.975   2.093  -7.600  0.00  0.00    +0.001 A 
ATOM     17  C   UNL     1       3.999   1.934  -6.607  0.00  0.00    +0.020 A 
ENDROOT
BRANCH   1  21
ATOM     18  C   UNL     1       0.584   1.854  -4.030  0.00  0.00    +0.128 A 
ATOM     19  N   UNL     1       1.456   1.695  -5.075  0.00  0.00    -0.340 N 
ATOM     20  H   UNL     1       1.573   0.847  -5.613  0.00  0.00    +0.167 HD
ATOM     21  C   UNL     1       2.188   2.853  -5.208  0.00  0.00    +0.066 A 
ATOM     22  C   UNL     1       1.679   3.687  -4.235  0.00  0.00    +0.139 A 
ATOM     23  N   UNL     1       0.699   3.062  -3.510  0.00  0.00    -0.238 NA
BRANCH  18  26
ATOM     24  C   UNL     1       1.495  -0.648  -2.281  0.00  0.00    +0.237 C 
ATOM     25  N   UNL     1       0.427  -0.464  -3.155  0.00  0.00    -0.290 N 
ATOM     26  C   UNL     1      -0.292   0.761  -3.527  0.00  0.00    +0.142 C 
ATOM     27  C   UNL     1      -1.306   0.298  -4.600  0.00  0.00    +0.032 C 
ATOM     28  C   UNL     1      -1.078  -1.206  -4.756  0.00  0.00    +0.021 C 
ATOM     29  C   UNL     1      -0.415  -1.605  -3.458  0.00  0.00    +0.108 C 
ATOM     30  O   UNL     1       1.821  -1.793  -1.954  0.00  0.00    -0.274 OA
BRANCH  24  31
ATOM     31  C   UNL     1       2.340   0.583  -1.842  0.00  0.00    +0.165 C 
BRANCH  31  32
ATOM     32  N   UNL     1       1.509   1.495  -1.067  0.00  0.00    -0.270 N 
ATOM     33  H   UNL     1       1.414   2.457  -1.373  0.00  0.00    +0.153 HD
ATOM     34  C   UNL     1       1.035   1.180   0.166  0.00  0.00    +0.401 C 
ATOM     35  O   UNL     1       1.070   0.065   0.669  0.00  0.00    -0.226 OA
BRANCH  34  36
ATOM     36  O   UNL     1       0.547   2.289   0.768  0.00  0.00    -0.454 OA
ATOM     37  C   UNL     1       0.144   2.051   2.116  0.00  0.00    +0.282 C 
ENDBRANCH  34  36
ENDBRANCH  31  32
BRANCH  31  39
ATOM     38  C   UNL     1       4.611  -0.604  -2.002  0.00  0.00    +0.009 C 
ATOM     39  C   UNL     1       3.684   0.261  -1.135  0.00  0.00    +0.012 C 
ATOM     40  C   UNL     1       4.445   1.557  -0.801  0.00  0.00    +0.009 C 
ENDBRANCH  31  39
ENDBRANCH  24  31
ENDBRANCH  18  26
ENDBRANCH   1  21
BRANCH  11  41
ATOM     41  C   UNL     1      10.835   0.607 -12.677  0.00  0.00    +0.066 A 
ATOM     42  N   UNL     1      11.320   1.414 -13.672  0.00  0.00    -0.340 N 
ATOM     43  H   UNL     1      10.916   2.292 -13.963  0.00  0.00    +0.167 HD
ATOM     44  C   UNL     1      12.511   0.892 -14.107  0.00  0.00    +0.128 A 
ATOM     45  N   UNL     1      12.758  -0.257 -13.518  0.00  0.00    -0.238 NA
ATOM     46  C   UNL     1      11.701  -0.468 -12.674  0.00  0.00    +0.139 A 
BRANCH  44  47
ATOM     47  C   UNL     1      13.393   1.689 -14.992  0.00  0.00    +0.142 C 
ATOM     48  N   UNL     1      14.354   0.938 -15.800  0.00  0.00    -0.290 N 
ATOM     49  C   UNL     1      14.166  -0.098 -16.700  0.00  0.00    +0.237 C 
ATOM     50  O   UNL     1      15.130  -0.498 -17.369  0.00  0.00    -0.274 OA
ATOM     51  C   UNL     1      15.655   1.602 -15.761  0.00  0.00    +0.108 C 
ATOM     52  C   UNL     1      15.454   2.898 -14.986  0.00  0.00    +0.021 C 
ATOM     53  C   UNL     1      14.282   2.569 -14.091  0.00  0.00    +0.032 C 
BRANCH  49  54
ATOM     54  C   UNL     1      12.808  -0.858 -16.805  0.00  0.00    +0.165 C 
BRANCH  54  55
ATOM     55  N   UNL     1      12.888  -2.016 -15.919  0.00  0.00    -0.270 N 
ATOM     56  H   UNL     1      13.772  -2.470 -15.763  0.00  0.00    +0.153 HD
ATOM     57  C   UNL     1      11.798  -2.556 -15.312  0.00  0.00    +0.401 C 
ATOM     58  O   UNL     1      10.659  -2.128 -15.396  0.00  0.00    -0.226 OA
BRANCH  57  59
ATOM     59  O   UNL     1      12.150  -3.693 -14.656  0.00  0.00    -0.454 OA
ATOM     60  C   UNL     1      11.035  -4.408 -14.108  0.00  0.00    +0.282 C 
ENDBRANCH  57  59
ENDBRANCH  54  55
BRANCH  54  61
ATOM     61  C   UNL     1      12.550  -1.355 -18.263  0.00  0.00    +0.012 C 
ATOM     62  C   UNL     1      12.416  -0.189 -19.245  0.00  0.00    +0.009 C 
ATOM     63  C   UNL     1      11.295  -2.235 -18.392  0.00  0.00    +0.009 C 
ENDBRANCH  54  61
ENDBRANCH  49  54
ENDBRANCH  44  47
ENDBRANCH  11  41
BRANCH  15  64
ATOM     64  C   UNL     1       5.861   4.236 -11.392  0.00  0.00    +0.014 A 
ATOM     65  C   UNL     1       6.320   5.067 -12.433  0.00  0.00    +0.009 A 
ATOM     66  C   UNL     1       5.676   5.089 -13.672  0.00  0.00    +0.000 A 
ATOM     67  C   UNL     1       4.555   4.292 -13.890  0.00  0.00    +0.000 A 
ATOM     68  C   UNL     1       4.066   3.490 -12.864  0.00  0.00    +0.000 A 
ATOM     69  C   UNL     1       4.707   3.468 -11.625  0.00  0.00    +0.009 A 
ENDBRANCH  15  64
TORSDOF 13
