REMARK  Name = 
REMARK  13 active torsions:
REMARK  status: ('A' for Active; 'I' for Inactive)
REMARK    1  A    between atoms: C_1  and  C_2
REMARK    2  A    between atoms: C_3  and  O_55
REMARK    3  A    between atoms: C_9  and  C_47
REMARK    4  A    between atoms: C_11  and  O_12
REMARK    5  A    between atoms: O_12  and  C_13
REMARK    6  A    between atoms: N_23  and  C_46
REMARK    7  A    between atoms: C_33  and  C_37
REMARK    8  A    between atoms: N_39  and  S_40
REMARK    9  A    between atoms: S_40  and  C_43
REMARK   10  A    between atoms: C_49  and  C_52
REMARK   11  A    between atoms: C_52  and  C_53
REMARK   12  A    between atoms: C_52  and  C_54
REMARK   13  A    between atoms: O_55  and  C_56
REMARK                            x       y       z     vdW  Elec       q    Type
REMARK                         _______ _______ _______ _____ _____    ______ ____
ROOT
ATOM      1  C   UNL     1       1.791   2.122  -0.695  0.00  0.00    +0.175 C 
ATOM      2  C   UNL     1       1.576   2.633   0.736  0.00  0.00    +0.058 C 
ATOM      3  C   UNL     1       0.665   1.522   1.347  0.00  0.00    +0.091 C 
ATOM      4  C   UNL     1      -0.776   1.530   0.744  0.00  0.00    +0.219 C 
ATOM      5  O   UNL     1      -1.476   2.529   0.934  0.00  0.00    -0.275 OA
ATOM      6  N   UNL     1      -1.301   0.368   0.114  0.00  0.00    -0.304 N 
ATOM      7  C   UNL     1      -2.659   0.136   0.578  0.00  0.00    +0.132 C 
ATOM      8  C   UNL     1      -1.204   0.290  -1.367  0.00  0.00    +0.107 C 
ATOM      9  C   UNL     1      -1.430  -1.067  -2.077  0.00  0.00    +0.019 C 
ATOM     10  C   UNL     1      -0.611  -1.182  -3.405  0.00  0.00    +0.006 C 
ATOM     11  C   UNL     1       0.214  -2.463  -3.596  0.00  0.00    +0.027 C 
ATOM     12  C   UNL     1       1.296  -2.654  -2.560  0.00  0.00    -0.031 C 
ATOM     13  C   UNL     1       1.017  -3.381  -1.474  0.00  0.00    -0.025 C 
ATOM     14  C   UNL     1       1.836  -3.888  -0.371  0.00  0.00    +0.046 C 
ATOM     15  C   UNL     1       2.144  -3.331   1.021  0.00  0.00    +0.119 C 
ATOM     16  N   UNL     1       2.197  -1.907   1.133  0.00  0.00    -0.301 N 
ATOM     17  H   UNL     1       3.122  -1.502   1.002  0.00  0.00    +0.150 HD
ATOM     18  C   UNL     1       1.154  -1.036   1.454  0.00  0.00    +0.218 C 
ATOM     19  O   UNL     1       0.135  -1.367   2.036  0.00  0.00    -0.275 OA
ATOM     20  C   UNL     1       0.905  -4.137   0.808  0.00  0.00    +0.046 C 
ATOM     21  C   UNL     1       1.573   0.358   1.066  0.00  0.00    +0.090 C 
ATOM     22  C   UNL     1       1.965   0.582  -0.417  0.00  0.00    +0.058 C 
ENDROOT
BRANCH  15  23
ATOM     23  C   UNL     1       3.258  -4.030   1.756  0.00  0.00    +0.256 C 
ATOM     24  N   UNL     1       2.869  -4.776   2.870  0.00  0.00    -0.188 N 
ATOM     25  H   UNL     1       1.917  -4.760   3.216  0.00  0.00    +0.176 HD
ATOM     26  O   UNL     1       4.425  -3.882   1.404  0.00  0.00    -0.272 OA
BRANCH  24  27
ATOM     27  S   UNL     1       3.894  -5.793   3.700  0.00  0.00    +0.048 S 
ATOM     28  O   UNL     1       4.420  -6.754   2.757  0.00  0.00    -0.155 OA
ATOM     29  O   UNL     1       3.138  -6.205   4.842  0.00  0.00    -0.155 OA
BRANCH  27  30
ATOM     30  C   UNL     1       5.270  -4.755   4.247  0.00  0.00    +0.151 C 
ATOM     31  C   UNL     1       5.584  -4.812   5.717  0.00  0.00    +0.030 C 
ATOM     32  C   UNL     1       4.836  -3.633   5.158  0.00  0.00    +0.030 C 
ENDBRANCH  27  30
ENDBRANCH  24  27
ENDBRANCH  15  23
BRANCH   1  33
ATOM     33  O   UNL     1       0.579   2.612  -1.291  0.00  0.00    -0.488 OA
BRANCH  33  40
ATOM     34  C   UNL     1      -2.276   5.682  -5.762  0.00  0.00    +0.050 C 
ATOM     35  C   UNL     1      -1.688   5.543  -4.373  0.00  0.00    +0.017 A 
ATOM     36  C   UNL     1      -0.812   4.460  -4.118  0.00  0.00    +0.082 A 
ATOM     37  N   UNL     1      -0.412   3.657  -5.130  0.00  0.00    -0.244 NA
ATOM     38  C   UNL     1       0.428   2.615  -4.888  0.00  0.00    +0.100 A 
ATOM     39  C   UNL     1       0.903   2.317  -3.621  0.00  0.00    +0.076 A 
ATOM     40  C   UNL     1       0.459   3.088  -2.566  0.00  0.00    +0.132 A 
ATOM     41  C   UNL     1      -0.384   4.218  -2.795  0.00  0.00    +0.043 A 
ATOM     42  C   UNL     1      -0.833   5.095  -1.776  0.00  0.00    +0.017 A 
ATOM     43  C   UNL     1      -1.634   6.212  -2.055  0.00  0.00    +0.047 A 
ATOM     44  C   UNL     1      -2.067   6.446  -3.355  0.00  0.00    +0.125 A 
BRANCH  38  45
ATOM     45  C   UNL     1       0.784   1.734  -6.022  0.00  0.00    +0.127 A 
ATOM     46  S   UNL     1       0.028   1.887  -7.560  0.00  0.00    -0.074 S 
ATOM     47  C   UNL     1       0.984   0.599  -8.163  0.00  0.00    +0.070 A 
ATOM     48  C   UNL     1       1.830   0.119  -7.179  0.00  0.00    +0.052 A 
ATOM     49  N   UNL     1       1.677   0.756  -5.950  0.00  0.00    -0.242 NA
BRANCH  48  50
ATOM     50  C   UNL     1       2.926  -0.909  -7.363  0.00  0.00    +0.032 C 
ATOM     51  C   UNL     1       2.426  -2.257  -7.889  0.00  0.00    +0.014 C 
ATOM     52  C   UNL     1       3.754  -1.135  -6.094  0.00  0.00    +0.014 C 
ENDBRANCH  48  50
ENDBRANCH  38  45
BRANCH  44  53
ATOM     53  O   UNL     1      -2.904   7.472  -3.712  0.00  0.00    -0.495 OA
ATOM     54  C   UNL     1      -2.839   8.673  -2.941  0.00  0.00    +0.277 C 
ENDBRANCH  44  53
ENDBRANCH  33  40
ENDBRANCH   1  33
TORSDOF 8
