REMARK  Name = 
REMARK  18 active torsions:
REMARK  status: ('A' for Active; 'I' for Inactive)
REMARK    1  A    between atoms: C_1  and  C_2
REMARK    2  A    between atoms: C_2  and  C_3
REMARK    3  A    between atoms: C_3  and  C_4
REMARK    4  A    between atoms: C_4  and  C_5
REMARK    5  A    between atoms: C_4  and  N_13
REMARK    6  A    between atoms: C_5  and  C_7
REMARK    7  A    between atoms: N_9  and  C_10
REMARK    8  A    between atoms: C_14  and  C_16
REMARK    9  A    between atoms: C_26  and  C_28
REMARK   10  A    between atoms: C_28  and  C_29
REMARK   11  A    between atoms: C_28  and  N_33
REMARK   12  A    between atoms: C_29  and  C_30
REMARK   13  A    between atoms: C_29  and  C_31
REMARK   14  A    between atoms: C_29  and  C_32
REMARK   15  A    between atoms: C_34  and  C_36
REMARK   16  A    between atoms: C_36  and  C_37
REMARK   17  A    between atoms: C_36  and  N_43
REMARK   18  A    between atoms: C_44  and  C_46
REMARK                            x       y       z     vdW  Elec       q    Type
REMARK                         _______ _______ _______ _____ _____    ______ ____
ROOT
ATOM      1  C   UNL     1       6.984   2.574  -3.351  0.00  0.00    +0.165 C 
ATOM      2  N   UNL     1       7.128   1.460  -4.334  0.00  0.00    -0.288 N 
ATOM      3  C   UNL     1       8.146   0.494  -4.349  0.00  0.00    +0.237 C 
ATOM      4  O   UNL     1       8.781   0.312  -5.396  0.00  0.00    -0.274 OA
ATOM      5  C   UNL     1       6.785   1.958  -5.681  0.00  0.00    +0.112 C 
ATOM      6  C   UNL     1       6.220   3.356  -5.547  0.00  0.00    +0.012 C 
ATOM      7  C   UNL     1       7.177   4.499  -5.928  0.00  0.00    +0.005 C 
ATOM      8  C   UNL     1       7.180   5.465  -4.747  0.00  0.00    +0.001 C 
ATOM      9  C   UNL     1       6.045   5.007  -3.842  0.00  0.00    +0.006 C 
ATOM     10  C   UNL     1       5.937   3.501  -4.055  0.00  0.00    +0.023 C 
ENDROOT
BRANCH   1  13
ATOM     11  N   UNL     1       5.569   1.417  -1.597  0.00  0.00    -0.304 N 
ATOM     12  H   UNL     1       5.514   0.634  -2.235  0.00  0.00    +0.149 HD
ATOM     13  C   UNL     1       6.514   2.385  -1.866  0.00  0.00    +0.234 C 
ATOM     14  O   UNL     1       6.826   3.219  -1.013  0.00  0.00    -0.274 OA
BRANCH  11  15
ATOM     15  C   UNL     1       4.938   1.239  -0.251  0.00  0.00    +0.149 C 
BRANCH  15  16
ATOM     16  C   UNL     1       5.668   0.174   0.576  0.00  0.00    +0.237 C 
ATOM     17  O   UNL     1       6.041  -0.896   0.095  0.00  0.00    -0.285 OA
BRANCH  16  18
ATOM     18  C   UNL     1       5.706   0.351   2.111  0.00  0.00    +0.282 C 
ATOM     19  N   UNL     1       5.832  -0.855   2.796  0.00  0.00    -0.306 N 
ATOM     20  H   UNL     1       5.986  -1.680   2.221  0.00  0.00    +0.149 HD
ATOM     21  O   UNL     1       5.569   1.451   2.621  0.00  0.00    -0.267 OA
BRANCH  19  22
ATOM     22  C   UNL     1       5.951  -0.967   4.220  0.00  0.00    +0.073 C 
ATOM     23  C   UNL     1       5.855  -2.315   4.897  0.00  0.00    +0.024 C 
ATOM     24  C   UNL     1       4.765  -1.303   5.086  0.00  0.00    +0.024 C 
ENDBRANCH  19  22
ENDBRANCH  16  18
ENDBRANCH  15  16
BRANCH  15  25
ATOM     25  C   UNL     1       3.477   0.791  -0.451  0.00  0.00    +0.030 C 
BRANCH  25  27
ATOM     26  C   UNL     1       1.299  -0.054   0.547  0.00  0.00    +0.004 C 
ATOM     27  C   UNL     1       2.673   0.539   0.835  0.00  0.00    -0.001 C 
ENDBRANCH  25  27
ENDBRANCH  15  25
ENDBRANCH  11  15
ENDBRANCH   1  13
BRANCH   3  28
ATOM     28  C   UNL     1       8.487  -0.382  -3.100  0.00  0.00    +0.164 C 
BRANCH  28  29
ATOM     29  N   UNL     1       9.754   0.077  -2.580  0.00  0.00    -0.302 N 
ATOM     30  H   UNL     1      10.486   0.067  -3.281  0.00  0.00    +0.150 HD
ATOM     31  C   UNL     1      10.101   0.152  -1.256  0.00  0.00    +0.234 C 
ATOM     32  O   UNL     1       9.278  -0.075  -0.364  0.00  0.00    -0.274 OA
BRANCH  31  33
ATOM     33  C   UNL     1      11.574   0.551  -0.957  0.00  0.00    +0.162 C 
BRANCH  33  34
ATOM     34  C   UNL     1      12.374   1.009  -2.220  0.00  0.00    +0.018 C 
ATOM     35  C   UNL     1      13.861   1.309  -1.973  0.00  0.00    +0.006 C 
ATOM     36  C   UNL     1      14.124   2.693  -1.386  0.00  0.00    +0.000 C 
ATOM     37  C   UNL     1      13.415   3.808  -2.149  0.00  0.00    +0.000 C 
ATOM     38  C   UNL     1      11.939   3.528  -2.364  0.00  0.00    +0.000 C 
ATOM     39  C   UNL     1      11.750   2.177  -3.020  0.00  0.00    +0.006 C 
ENDBRANCH  33  34
BRANCH  33  40
ATOM     40  N   UNL     1      11.538   1.524   0.125  0.00  0.00    -0.298 N 
ATOM     41  H   UNL     1      10.851   2.274   0.092  0.00  0.00    +0.150 HD
ATOM     42  C   UNL     1      12.122   1.335   1.361  0.00  0.00    +0.264 C 
ATOM     43  O   UNL     1      12.802   0.357   1.650  0.00  0.00    -0.268 OA
BRANCH  42  44
ATOM     44  C   UNL     1      11.917   2.454   2.329  0.00  0.00    +0.143 A 
ATOM     45  C   UNL     1      12.501   2.403   3.586  0.00  0.00    +0.143 A 
ATOM     46  N   UNL     1      12.410   3.429   4.475  0.00  0.00    -0.259 NA
ATOM     47  C   UNL     1      11.710   4.505   4.046  0.00  0.00    +0.130 A 
ATOM     48  C   UNL     1      11.121   4.555   2.791  0.00  0.00    +0.131 A 
ATOM     49  N   UNL     1      11.209   3.539   1.897  0.00  0.00    -0.247 NA
ENDBRANCH  42  44
ENDBRANCH  33  40
ENDBRANCH  31  33
ENDBRANCH  28  29
BRANCH  28  50
ATOM     50  C   UNL     1       8.672  -1.906  -3.492  0.00  0.00    -0.011 C 
ATOM     51  C   UNL     1       7.377  -2.400  -4.155  0.00  0.00    +0.013 C 
ATOM     52  C   UNL     1       8.942  -2.754  -2.225  0.00  0.00    +0.013 C 
ATOM     53  C   UNL     1       9.881  -2.193  -4.436  0.00  0.00    +0.013 C 
ENDBRANCH  28  50
ENDBRANCH   3  28
TORSDOF 14
