REMARK  Name = 
REMARK  23 active torsions:
REMARK  status: ('A' for Active; 'I' for Inactive)
REMARK    1  A    between atoms: C_1  and  C_2
REMARK    2  A    between atoms: C_2  and  C_3
REMARK    3  A    between atoms: C_2  and  O_4
REMARK    4  A    between atoms: O_4  and  C_5
REMARK    5  A    between atoms: C_5  and  O_7
REMARK    6  A    between atoms: O_7  and  C_8
REMARK    7  A    between atoms: C_8  and  O_9
REMARK    8  A    between atoms: O_9  and  P_10
REMARK    9  A    between atoms: P_10  and  C_12
REMARK   10  A    between atoms: P_10  and  O_27
REMARK   11  A    between atoms: C_12  and  O_13
REMARK   12  A    between atoms: O_13  and  C_14
REMARK   13  A    between atoms: C_14  and  C_15
REMARK   14  A    between atoms: C_14  and  C_16
REMARK   15  A    between atoms: C_16  and  N_17
REMARK   16  A    between atoms: C_21  and  N_26
REMARK   17  A    between atoms: O_27  and  C_28
REMARK   18  A    between atoms: C_28  and  O_29
REMARK   19  A    between atoms: O_29  and  C_30
REMARK   20  A    between atoms: C_30  and  O_32
REMARK   21  A    between atoms: O_32  and  C_33
REMARK   22  A    between atoms: C_33  and  C_34
REMARK   23  A    between atoms: C_33  and  C_35
REMARK                            x       y       z     vdW  Elec       q    Type
REMARK                         _______ _______ _______ _____ _____    ______ ____
ROOT
ATOM      1  P   UNL     1       8.250   2.907   3.933  0.00  0.00    +0.364 P 
ATOM      2  O   UNL     1       8.184   1.911   5.100  0.00  0.00    -0.256 OA
ENDROOT
BRANCH   1   3
ATOM      3  C   UNL     1       8.574   1.868   2.320  0.00  0.00    +0.287 C 
BRANCH   3   4
ATOM      4  O   UNL     1       8.072   2.623   1.195  0.00  0.00    -0.363 OA
BRANCH   4   5
ATOM      5  C   UNL     1       8.631   2.218  -0.068  0.00  0.00    +0.136 C 
ATOM      6  C   UNL     1       8.355   0.737  -0.361  0.00  0.00    +0.040 C 
BRANCH   5   7
ATOM      7  C   UNL     1       8.099   3.089  -1.236  0.00  0.00    +0.156 C 
BRANCH   7   8
ATOM      8  N   UNL     1       8.401   4.506  -1.125  0.00  0.00    -0.312 N 
ATOM      9  C   UNL     1       9.509   5.187  -1.559  0.00  0.00    +0.165 A 
ATOM     10  C   UNL     1       9.377   6.457  -1.015  0.00  0.00    +0.147 A 
ATOM     11  C   UNL     1      10.471   7.331  -1.162  0.00  0.00    +0.147 A 
ATOM     12  N   UNL     1      11.526   6.937  -1.896  0.00  0.00    -0.219 NA
ATOM     13  C   UNL     1      11.464   5.723  -2.470  0.00  0.00    +0.225 A 
ATOM     14  N   UNL     1       8.129   6.612  -0.449  0.00  0.00    -0.231 NA
ATOM     15  N   UNL     1      10.523   4.755  -2.334  0.00  0.00    -0.216 NA
ATOM     16  C   UNL     1       7.546   5.441  -0.602  0.00  0.00    +0.201 A 
BRANCH  11  17
ATOM     17  N   UNL     1      10.525   8.631  -0.664  0.00  0.00    -0.341 N 
ATOM     18  H   UNL     1      11.292   9.120  -1.115  0.00  0.00    +0.144 HD
ATOM     19  H   UNL     1       9.619   9.082  -0.721  0.00  0.00    +0.144 HD
ENDBRANCH  11  17
ENDBRANCH   7   8
ENDBRANCH   5   7
ENDBRANCH   4   5
ENDBRANCH   3   4
ENDBRANCH   1   3
BRANCH   1  20
ATOM     20  O   UNL     1       9.951   3.092   4.190  0.00  0.00    -0.268 OA
BRANCH  20  21
ATOM     21  C   UNL     1      10.539   4.217   3.540  0.00  0.00    +0.410 C 
BRANCH  21  22
ATOM     22  O   UNL     1      10.608   4.182   2.105  0.00  0.00    -0.406 OA
BRANCH  22  23
ATOM     23  C   UNL     1      11.635   3.436   1.603  0.00  0.00    +0.512 C 
ATOM     24  O   UNL     1      12.330   2.682   2.264  0.00  0.00    -0.203 OA
BRANCH  23  25
ATOM     25  O   UNL     1      11.733   3.614   0.250  0.00  0.00    -0.431 OA
BRANCH  25  26
ATOM     26  C   UNL     1      12.665   2.740  -0.438  0.00  0.00    +0.174 C 
ATOM     27  C   UNL     1      13.409   3.471  -1.545  0.00  0.00    +0.052 C 
ATOM     28  C   UNL     1      11.908   1.574  -1.069  0.00  0.00    +0.052 C 
ENDBRANCH  25  26
ENDBRANCH  23  25
ENDBRANCH  22  23
ENDBRANCH  21  22
ENDBRANCH  20  21
ENDBRANCH   1  20
BRANCH   1  29
ATOM     29  O   UNL     1       6.549   2.723   3.676  0.00  0.00    -0.268 OA
BRANCH  29  30
ATOM     30  C   UNL     1       5.660   3.794   3.851  0.00  0.00    +0.410 C 
BRANCH  30  31
ATOM     31  O   UNL     1       4.309   3.425   3.472  0.00  0.00    -0.406 OA
BRANCH  31  32
ATOM     32  C   UNL     1       4.032   3.515   2.148  0.00  0.00    +0.512 C 
ATOM     33  O   UNL     1       4.814   3.883   1.277  0.00  0.00    -0.203 OA
BRANCH  32  34
ATOM     34  O   UNL     1       2.714   3.201   1.919  0.00  0.00    -0.431 OA
BRANCH  34  36
ATOM     35  C   UNL     1       2.597   2.031  -0.210  0.00  0.00    +0.052 C 
ATOM     36  C   UNL     1       2.270   3.312   0.554  0.00  0.00    +0.174 C 
ATOM     37  C   UNL     1       0.765   3.567   0.516  0.00  0.00    +0.052 C 
ENDBRANCH  34  36
ENDBRANCH  32  34
ENDBRANCH  31  32
ENDBRANCH  30  31
ENDBRANCH  29  30
ENDBRANCH   1  29
TORSDOF 18
