REMARK  Name = 
REMARK  23 active torsions:
REMARK  status: ('A' for Active; 'I' for Inactive)
REMARK    1  A    between atoms: C_1  and  C_2
REMARK    2  A    between atoms: C_2  and  C_3
REMARK    3  A    between atoms: C_2  and  O_4
REMARK    4  A    between atoms: O_4  and  C_5
REMARK    5  A    between atoms: C_5  and  O_7
REMARK    6  A    between atoms: O_7  and  C_8
REMARK    7  A    between atoms: C_8  and  O_9
REMARK    8  A    between atoms: O_9  and  P_10
REMARK    9  A    between atoms: P_10  and  C_12
REMARK   10  A    between atoms: P_10  and  O_27
REMARK   11  A    between atoms: C_12  and  O_13
REMARK   12  A    between atoms: O_13  and  C_14
REMARK   13  A    between atoms: C_14  and  C_15
REMARK   14  A    between atoms: C_14  and  C_16
REMARK   15  A    between atoms: C_16  and  N_17
REMARK   16  A    between atoms: C_21  and  N_26
REMARK   17  A    between atoms: O_27  and  C_28
REMARK   18  A    between atoms: C_28  and  O_29
REMARK   19  A    between atoms: O_29  and  C_30
REMARK   20  A    between atoms: C_30  and  O_32
REMARK   21  A    between atoms: O_32  and  C_33
REMARK   22  A    between atoms: C_33  and  C_34
REMARK   23  A    between atoms: C_33  and  C_35
REMARK                            x       y       z     vdW  Elec       q    Type
REMARK                         _______ _______ _______ _____ _____    ______ ____
ROOT
ATOM      1  P   UNL     1       8.213  -4.848   1.255  0.00  0.00    +0.364 P 
ATOM      2  O   UNL     1       8.382  -4.355  -0.194  0.00  0.00    -0.256 OA
ENDROOT
BRANCH   1   3
ATOM      3  O   UNL     1       6.512  -4.542   1.174  0.00  0.00    -0.268 OA
BRANCH   3   4
ATOM      4  C   UNL     1       5.713  -5.627   0.733  0.00  0.00    +0.410 C 
BRANCH   4   5
ATOM      5  O   UNL     1       6.017  -6.103  -0.580  0.00  0.00    -0.406 OA
BRANCH   5   6
ATOM      6  C   UNL     1       6.948  -7.085  -0.578  0.00  0.00    +0.512 C 
ATOM      7  O   UNL     1       7.443  -7.551   0.438  0.00  0.00    -0.203 OA
BRANCH   6   8
ATOM      8  O   UNL     1       7.287  -7.408  -1.852  0.00  0.00    -0.431 OA
BRANCH   8  10
ATOM      9  C   UNL     1       8.054  -9.719  -1.621  0.00  0.00    +0.052 C 
ATOM     10  C   UNL     1       8.421  -8.286  -1.986  0.00  0.00    +0.174 C 
ATOM     11  C   UNL     1       8.922  -8.209  -3.424  0.00  0.00    +0.052 C 
ENDBRANCH   8  10
ENDBRANCH   6   8
ENDBRANCH   5   6
ENDBRANCH   4   5
ENDBRANCH   3   4
ENDBRANCH   1   3
BRANCH   1  12
ATOM     12  O   UNL     1       9.914  -5.154   1.335  0.00  0.00    -0.268 OA
BRANCH  12  13
ATOM     13  C   UNL     1      10.456  -6.223   0.600  0.00  0.00    +0.410 C 
BRANCH  13  14
ATOM     14  O   UNL     1      10.008  -7.509   1.010  0.00  0.00    -0.406 OA
BRANCH  14  15
ATOM     15  C   UNL     1      10.278  -7.846   2.289  0.00  0.00    +0.512 C 
ATOM     16  O   UNL     1      10.918  -7.181   3.085  0.00  0.00    -0.203 OA
BRANCH  15  17
ATOM     17  O   UNL     1       9.669  -9.030   2.552  0.00  0.00    -0.431 OA
BRANCH  17  18
ATOM     18  C   UNL     1       9.781  -9.494   3.907  0.00  0.00    +0.174 C 
ATOM     19  C   UNL     1       9.548 -11.000   3.901  0.00  0.00    +0.052 C 
ATOM     20  C   UNL     1       8.744  -8.799   4.784  0.00  0.00    +0.052 C 
ENDBRANCH  17  18
ENDBRANCH  15  17
ENDBRANCH  14  15
ENDBRANCH  13  14
ENDBRANCH  12  13
ENDBRANCH   1  12
BRANCH   1  21
ATOM     21  C   UNL     1       8.461  -3.321   2.364  0.00  0.00    +0.287 C 
BRANCH  21  22
ATOM     22  O   UNL     1       7.784  -3.440   3.622  0.00  0.00    -0.363 OA
BRANCH  22  23
ATOM     23  C   UNL     1       8.124  -4.568   4.433  0.00  0.00    +0.136 C 
ATOM     24  C   UNL     1       9.592  -4.563   4.853  0.00  0.00    +0.040 C 
BRANCH  23  25
ATOM     25  C   UNL     1       7.251  -4.493   5.698  0.00  0.00    +0.156 C 
BRANCH  25  26
ATOM     26  N   UNL     1       5.829  -4.562   5.429  0.00  0.00    -0.312 N 
ATOM     27  C   UNL     1       5.161  -5.641   4.923  0.00  0.00    +0.165 A 
ATOM     28  C   UNL     1       3.826  -5.270   4.941  0.00  0.00    +0.147 A 
ATOM     29  C   UNL     1       2.903  -6.224   4.482  0.00  0.00    +0.147 A 
ATOM     30  N   UNL     1       3.373  -7.410   4.028  0.00  0.00    -0.219 NA
ATOM     31  C   UNL     1       4.703  -7.636   4.079  0.00  0.00    +0.225 A 
ATOM     32  N   UNL     1       3.679  -3.984   5.423  0.00  0.00    -0.231 NA
ATOM     33  N   UNL     1       5.679  -6.808   4.506  0.00  0.00    -0.216 NA
ATOM     34  C   UNL     1       4.905  -3.589   5.701  0.00  0.00    +0.201 A 
BRANCH  29  35
ATOM     35  N   UNL     1       1.533  -6.008   4.462  0.00  0.00    -0.341 N 
ATOM     36  H   UNL     1       1.052  -6.604   3.803  0.00  0.00    +0.144 HD
ATOM     37  H   UNL     1       1.274  -5.028   4.498  0.00  0.00    +0.144 HD
ENDBRANCH  29  35
ENDBRANCH  25  26
ENDBRANCH  23  25
ENDBRANCH  22  23
ENDBRANCH  21  22
ENDBRANCH   1  21
TORSDOF 18
