REMARK  Name = 
REMARK  27 active torsions:
REMARK  status: ('A' for Active; 'I' for Inactive)
REMARK    1  A    between atoms: C_1  and  C_2
REMARK    2  A    between atoms: C_2  and  C_3
REMARK    3  A    between atoms: C_2  and  O_4
REMARK    4  A    between atoms: O_4  and  C_5
REMARK    5  A    between atoms: C_5  and  O_7
REMARK    6  A    between atoms: O_7  and  C_8
REMARK    7  A    between atoms: C_8  and  O_9
REMARK    8  A    between atoms: O_9  and  P_10
REMARK    9  A    between atoms: P_10  and  C_12
REMARK   10  A    between atoms: P_10  and  O_27
REMARK   11  A    between atoms: C_12  and  O_13
REMARK   12  A    between atoms: O_13  and  C_14
REMARK   13  A    between atoms: C_14  and  C_15
REMARK   14  A    between atoms: C_14  and  C_16
REMARK   15  A    between atoms: C_16  and  N_17
REMARK   16  A    between atoms: C_21  and  N_26
REMARK   17  A    between atoms: O_27  and  C_28
REMARK   18  A    between atoms: C_28  and  O_29
REMARK   19  A    between atoms: O_29  and  C_30
REMARK   20  A    between atoms: C_30  and  O_32
REMARK   21  A    between atoms: O_32  and  C_33
REMARK   22  A    between atoms: C_33  and  C_34
REMARK   23  A    between atoms: C_33  and  C_35
REMARK   24  A    between atoms: C_36  and  C_41
REMARK   25  A    between atoms: C_37  and  C_38
REMARK   26  A    between atoms: C_38  and  O_40
REMARK   27  A    between atoms: C_41  and  O_43
REMARK                            x       y       z     vdW  Elec       q    Type
REMARK                         _______ _______ _______ _____ _____    ______ ____
ROOT
ATOM      1  P   UNL     1       8.106  -4.276   2.287  0.00  0.00    +0.364 P 
ATOM      2  O   UNL     1       8.103  -4.984   0.920  0.00  0.00    -0.256 OA
ENDROOT
BRANCH   1   3
ATOM      3  O   UNL     1       6.405  -3.997   2.138  0.00  0.00    -0.268 OA
BRANCH   3   4
ATOM      4  C   UNL     1       5.587  -4.455   3.205  0.00  0.00    +0.410 C 
BRANCH   4   5
ATOM      5  O   UNL     1       5.754  -3.841   4.494  0.00  0.00    -0.406 OA
BRANCH   5   6
ATOM      6  C   UNL     1       6.625  -4.480   5.313  0.00  0.00    +0.512 C 
ATOM      7  O   UNL     1       7.472  -5.266   4.925  0.00  0.00    -0.203 OA
BRANCH   6   8
ATOM      8  O   UNL     1       6.418  -4.099   6.611  0.00  0.00    -0.431 OA
BRANCH   8  10
ATOM      9  C   UNL     1       8.560  -3.580   7.567  0.00  0.00    +0.052 C 
ATOM     10  C   UNL     1       7.406  -4.571   7.559  0.00  0.00    +0.174 C 
ATOM     11  C   UNL     1       6.823  -4.658   8.971  0.00  0.00    +0.052 C 
ENDBRANCH   8  10
ENDBRANCH   6   8
ENDBRANCH   5   6
ENDBRANCH   4   5
ENDBRANCH   3   4
ENDBRANCH   1   3
BRANCH   1  12
ATOM     12  O   UNL     1       9.807  -4.555   2.435  0.00  0.00    -0.268 OA
BRANCH  12  13
ATOM     13  C   UNL     1      10.763  -3.736   1.817  0.00  0.00    +0.410 C 
BRANCH  13  14
ATOM     14  O   UNL     1      12.089  -4.220   2.015  0.00  0.00    -0.406 OA
BRANCH  14  15
ATOM     15  C   UNL     1      12.546  -3.940   3.259  0.00  0.00    +0.512 C 
ATOM     16  O   UNL     1      11.900  -3.450   4.167  0.00  0.00    -0.203 OA
BRANCH  15  17
ATOM     17  O   UNL     1      13.879  -4.236   3.302  0.00  0.00    -0.431 OA
BRANCH  17  18
ATOM     18  C   UNL     1      14.515  -3.862   4.525  0.00  0.00    +0.174 C 
ATOM     19  C   UNL     1      15.982  -3.557   4.262  0.00  0.00    +0.052 C 
ATOM     20  C   UNL     1      14.318  -4.945   5.572  0.00  0.00    +0.052 C 
ENDBRANCH  17  18
ENDBRANCH  15  17
ENDBRANCH  14  15
ENDBRANCH  13  14
ENDBRANCH  12  13
ENDBRANCH   1  12
BRANCH   1  21
ATOM     21  C   UNL     1       8.270  -2.347   1.842  0.00  0.00    +0.287 C 
BRANCH  21  22
ATOM     22  O   UNL     1       8.526  -1.623   3.051  0.00  0.00    -0.363 OA
BRANCH  22  23
ATOM     23  C   UNL     1       9.148  -0.342   2.826  0.00  0.00    +0.136 C 
ATOM     24  C   UNL     1       8.322   0.545   1.886  0.00  0.00    +0.040 C 
BRANCH  23  25
ATOM     25  C   UNL     1       9.287   0.392   4.170  0.00  0.00    +0.156 C 
BRANCH  25  26
ATOM     26  N   UNL     1      10.198  -0.223   5.108  0.00  0.00    -0.312 N 
ATOM     27  C   UNL     1      11.559  -0.276   5.014  0.00  0.00    +0.165 A 
ATOM     28  C   UNL     1      11.971  -0.850   6.208  0.00  0.00    +0.147 A 
ATOM     29  C   UNL     1      13.352  -1.038   6.374  0.00  0.00    +0.147 A 
ATOM     30  N   UNL     1      14.182  -0.629   5.384  0.00  0.00    -0.219 NA
ATOM     31  C   UNL     1      13.634  -0.090   4.270  0.00  0.00    +0.225 A 
ATOM     32  N   UNL     1      10.891  -1.143   7.016  0.00  0.00    -0.231 NA
ATOM     33  N   UNL     1      12.332   0.130   3.992  0.00  0.00    -0.216 NA
ATOM     34  C   UNL     1       9.848  -0.721   6.333  0.00  0.00    +0.201 A 
BRANCH  29  35
ATOM     35  N   UNL     1      13.906  -1.707   7.466  0.00  0.00    -0.341 N 
ATOM     36  H   UNL     1      14.795  -2.126   7.226  0.00  0.00    +0.144 HD
ATOM     37  H   UNL     1      13.227  -2.315   7.916  0.00  0.00    +0.144 HD
ENDBRANCH  29  35
ENDBRANCH  25  26
ENDBRANCH  23  25
ENDBRANCH  22  23
ENDBRANCH  21  22
ENDBRANCH   1  21
TORSDOF 18
REMARK  Name = 
REMARK  27 active torsions:
REMARK  status: ('A' for Active; 'I' for Inactive)
REMARK    1  A    between atoms: C_1  and  C_2
REMARK    2  A    between atoms: C_2  and  C_3
REMARK    3  A    between atoms: C_2  and  O_4
REMARK    4  A    between atoms: O_4  and  C_5
REMARK    5  A    between atoms: C_5  and  O_7
REMARK    6  A    between atoms: O_7  and  C_8
REMARK    7  A    between atoms: C_8  and  O_9
REMARK    8  A    between atoms: O_9  and  P_10
REMARK    9  A    between atoms: P_10  and  C_12
REMARK   10  A    between atoms: P_10  and  O_27
REMARK   11  A    between atoms: C_12  and  O_13
REMARK   12  A    between atoms: O_13  and  C_14
REMARK   13  A    between atoms: C_14  and  C_15
REMARK   14  A    between atoms: C_14  and  C_16
REMARK   15  A    between atoms: C_16  and  N_17
REMARK   16  A    between atoms: C_21  and  N_26
REMARK   17  A    between atoms: O_27  and  C_28
REMARK   18  A    between atoms: C_28  and  O_29
REMARK   19  A    between atoms: O_29  and  C_30
REMARK   20  A    between atoms: C_30  and  O_32
REMARK   21  A    between atoms: O_32  and  C_33
REMARK   22  A    between atoms: C_33  and  C_34
REMARK   23  A    between atoms: C_33  and  C_35
REMARK   24  A    between atoms: C_36  and  C_41
REMARK   25  A    between atoms: C_37  and  C_38
REMARK   26  A    between atoms: C_38  and  O_40
REMARK   27  A    between atoms: C_41  and  O_43
REMARK                            x       y       z     vdW  Elec       q    Type
REMARK                         _______ _______ _______ _____ _____    ______ ____
ROOT
ATOM      1  C   UNL     1       1.252  -0.144   2.013  0.00  0.00    +0.098 C 
ATOM      2  C   UNL     1       0.390   0.881   2.082  0.00  0.00    +0.098 C 
ENDROOT
BRANCH   1   3
ATOM      3  C   UNL     1       2.673   0.007   2.359  0.00  0.00    +0.330 C 
ATOM      4  O   UNL     1       3.477  -0.906   2.406  0.00  0.00    -0.246 OA
BRANCH   3   5
ATOM      5  O   UNL     1       3.026   1.276   2.606  0.00  0.00    -0.478 OA
ATOM      6  H   UNL     1       3.988   1.214   2.790  0.00  0.00    +0.295 HD
ENDBRANCH   3   5
ENDBRANCH   1   3
BRANCH   2   7
ATOM      7  C   UNL     1      -1.010   0.674   1.688  0.00  0.00    +0.330 C 
ATOM      8  O   UNL     1      -1.460  -0.373   1.258  0.00  0.00    -0.246 OA
BRANCH   7   9
ATOM      9  O   UNL     1      -1.752   1.789   1.850  0.00  0.00    -0.478 OA
ATOM     10  H   UNL     1      -1.283   2.566   2.207  0.00  0.00    +0.295 HD
ENDBRANCH   7   9
ENDBRANCH   2   7
TORSDOF 4
