REMARK  Name = 
REMARK  27 active torsions:
REMARK  status: ('A' for Active; 'I' for Inactive)
REMARK    1  A    between atoms: C_1  and  C_2
REMARK    2  A    between atoms: C_2  and  C_3
REMARK    3  A    between atoms: C_2  and  O_4
REMARK    4  A    between atoms: O_4  and  C_5
REMARK    5  A    between atoms: C_5  and  O_7
REMARK    6  A    between atoms: O_7  and  C_8
REMARK    7  A    between atoms: C_8  and  O_9
REMARK    8  A    between atoms: O_9  and  P_10
REMARK    9  A    between atoms: P_10  and  C_12
REMARK   10  A    between atoms: P_10  and  O_27
REMARK   11  A    between atoms: C_12  and  O_13
REMARK   12  A    between atoms: O_13  and  C_14
REMARK   13  A    between atoms: C_14  and  C_15
REMARK   14  A    between atoms: C_14  and  C_16
REMARK   15  A    between atoms: C_16  and  N_17
REMARK   16  A    between atoms: C_21  and  N_26
REMARK   17  A    between atoms: O_27  and  C_28
REMARK   18  A    between atoms: C_28  and  O_29
REMARK   19  A    between atoms: O_29  and  C_30
REMARK   20  A    between atoms: C_30  and  O_32
REMARK   21  A    between atoms: O_32  and  C_33
REMARK   22  A    between atoms: C_33  and  C_34
REMARK   23  A    between atoms: C_33  and  C_35
REMARK   24  A    between atoms: C_36  and  C_41
REMARK   25  A    between atoms: C_37  and  C_38
REMARK   26  A    between atoms: C_38  and  O_40
REMARK   27  A    between atoms: C_41  and  O_43
REMARK                            x       y       z     vdW  Elec       q    Type
REMARK                         _______ _______ _______ _____ _____    ______ ____
ROOT
ATOM      1  P   UNL     1       8.182  -2.441  -4.151  0.00  0.00    +0.364 P 
ATOM      2  O   UNL     1       8.491  -1.979  -2.722  0.00  0.00    -0.256 OA
ENDROOT
BRANCH   1   3
ATOM      3  C   UNL     1       7.977  -4.340  -4.106  0.00  0.00    +0.287 C 
BRANCH   3   4
ATOM      4  O   UNL     1       8.849  -4.909  -3.118  0.00  0.00    -0.363 OA
BRANCH   4   5
ATOM      5  C   UNL     1       8.646  -6.320  -2.954  0.00  0.00    +0.136 C 
ATOM      6  C   UNL     1       9.124  -7.034  -4.220  0.00  0.00    +0.040 C 
BRANCH   5   7
ATOM      7  C   UNL     1       9.452  -6.822  -1.745  0.00  0.00    +0.156 C 
BRANCH   7   8
ATOM      8  N   UNL     1       8.984  -6.283  -0.484  0.00  0.00    -0.312 N 
ATOM      9  C   UNL     1       8.016  -6.813   0.326  0.00  0.00    +0.165 A 
ATOM     10  C   UNL     1       7.906  -5.910   1.372  0.00  0.00    +0.147 A 
ATOM     11  C   UNL     1       6.913  -6.168   2.332  0.00  0.00    +0.147 A 
ATOM     12  N   UNL     1       6.184  -7.302   2.217  0.00  0.00    -0.219 NA
ATOM     13  C   UNL     1       6.425  -8.110   1.160  0.00  0.00    +0.225 A 
ATOM     14  N   UNL     1       8.832  -4.895   1.251  0.00  0.00    -0.231 NA
ATOM     15  N   UNL     1       7.309  -7.943   0.150  0.00  0.00    -0.216 NA
ATOM     16  C   UNL     1       9.458  -5.148   0.120  0.00  0.00    +0.201 A 
BRANCH  11  17
ATOM     17  N   UNL     1       6.644  -5.308   3.375  0.00  0.00    -0.341 N 
ATOM     18  H   UNL     1       6.001  -5.612   4.087  0.00  0.00    +0.144 HD
ATOM     19  H   UNL     1       7.258  -4.516   3.502  0.00  0.00    +0.144 HD
ENDBRANCH  11  17
ENDBRANCH   7   8
ENDBRANCH   5   7
ENDBRANCH   4   5
ENDBRANCH   3   4
ENDBRANCH   1   3
BRANCH   1  20
ATOM     20  O   UNL     1       9.883  -2.602  -4.424  0.00  0.00    -0.268 OA
BRANCH  20  21
ATOM     21  C   UNL     1      10.498  -1.421  -4.895  0.00  0.00    +0.410 C 
BRANCH  21  22
ATOM     22  O   UNL     1      11.899  -1.613  -5.080  0.00  0.00    -0.406 OA
BRANCH  22  23
ATOM     23  C   UNL     1      12.630  -1.374  -3.971  0.00  0.00    +0.512 C 
ATOM     24  O   UNL     1      12.197  -0.977  -2.897  0.00  0.00    -0.203 OA
BRANCH  23  25
ATOM     25  O   UNL     1      13.936  -1.617  -4.244  0.00  0.00    -0.431 OA
BRANCH  25  26
ATOM     26  C   UNL     1      14.835  -1.451  -3.129  0.00  0.00    +0.174 C 
ATOM     27  C   UNL     1      16.225  -1.150  -3.673  0.00  0.00    +0.052 C 
ATOM     28  C   UNL     1      14.849  -2.727  -2.295  0.00  0.00    +0.052 C 
ENDBRANCH  25  26
ENDBRANCH  23  25
ENDBRANCH  22  23
ENDBRANCH  21  22
ENDBRANCH  20  21
ENDBRANCH   1  20
BRANCH   1  29
ATOM     29  O   UNL     1       6.481  -2.280  -3.879  0.00  0.00    -0.268 OA
BRANCH  29  30
ATOM     30  C   UNL     1       6.004  -0.981  -3.532  0.00  0.00    +0.410 C 
BRANCH  30  31
ATOM     31  O   UNL     1       6.515  -0.325  -2.362  0.00  0.00    -0.406 OA
BRANCH  31  32
ATOM     32  C   UNL     1       6.225  -0.893  -1.159  0.00  0.00    +0.512 C 
ATOM     33  O   UNL     1       5.551  -1.895  -0.991  0.00  0.00    -0.203 OA
BRANCH  32  34
ATOM     34  O   UNL     1       6.718  -0.082  -0.173  0.00  0.00    -0.431 OA
BRANCH  34  36
ATOM     35  C   UNL     1       7.543  -1.579   1.563  0.00  0.00    +0.052 C 
ATOM     36  C   UNL     1       6.510  -0.521   1.189  0.00  0.00    +0.174 C 
ATOM     37  C   UNL     1       6.647   0.679   2.131  0.00  0.00    +0.052 C 
ENDBRANCH  34  36
ENDBRANCH  32  34
ENDBRANCH  31  32
ENDBRANCH  30  31
ENDBRANCH  29  30
ENDBRANCH   1  29
TORSDOF 18
REMARK  Name = 
REMARK  27 active torsions:
REMARK  status: ('A' for Active; 'I' for Inactive)
REMARK    1  A    between atoms: C_1  and  C_2
REMARK    2  A    between atoms: C_2  and  C_3
REMARK    3  A    between atoms: C_2  and  O_4
REMARK    4  A    between atoms: O_4  and  C_5
REMARK    5  A    between atoms: C_5  and  O_7
REMARK    6  A    between atoms: O_7  and  C_8
REMARK    7  A    between atoms: C_8  and  O_9
REMARK    8  A    between atoms: O_9  and  P_10
REMARK    9  A    between atoms: P_10  and  C_12
REMARK   10  A    between atoms: P_10  and  O_27
REMARK   11  A    between atoms: C_12  and  O_13
REMARK   12  A    between atoms: O_13  and  C_14
REMARK   13  A    between atoms: C_14  and  C_15
REMARK   14  A    between atoms: C_14  and  C_16
REMARK   15  A    between atoms: C_16  and  N_17
REMARK   16  A    between atoms: C_21  and  N_26
REMARK   17  A    between atoms: O_27  and  C_28
REMARK   18  A    between atoms: C_28  and  O_29
REMARK   19  A    between atoms: O_29  and  C_30
REMARK   20  A    between atoms: C_30  and  O_32
REMARK   21  A    between atoms: O_32  and  C_33
REMARK   22  A    between atoms: C_33  and  C_34
REMARK   23  A    between atoms: C_33  and  C_35
REMARK   24  A    between atoms: C_36  and  C_41
REMARK   25  A    between atoms: C_37  and  C_38
REMARK   26  A    between atoms: C_38  and  O_40
REMARK   27  A    between atoms: C_41  and  O_43
REMARK                            x       y       z     vdW  Elec       q    Type
REMARK                         _______ _______ _______ _____ _____    ______ ____
ROOT
ATOM      1  C   UNL     1       1.226   0.375  -1.730  0.00  0.00    +0.098 C 
ATOM      2  C   UNL     1       0.059   0.948  -2.054  0.00  0.00    +0.098 C 
ENDROOT
BRANCH   1   3
ATOM      3  C   UNL     1       2.457   1.072  -2.099  0.00  0.00    +0.330 C 
ATOM      4  O   UNL     1       2.562   2.005  -2.875  0.00  0.00    -0.246 OA
BRANCH   3   5
ATOM      5  O   UNL     1       3.501   0.574  -1.427  0.00  0.00    -0.478 OA
ATOM      6  H   UNL     1       4.256   1.152  -1.665  0.00  0.00    +0.295 HD
ENDBRANCH   3   5
ENDBRANCH   1   3
BRANCH   2   7
ATOM      7  C   UNL     1      -1.197   0.304  -1.647  0.00  0.00    +0.330 C 
ATOM      8  O   UNL     1      -1.282  -0.583  -0.815  0.00  0.00    -0.246 OA
BRANCH   7   9
ATOM      9  O   UNL     1      -2.257   0.813  -2.304  0.00  0.00    -0.478 OA
ATOM     10  H   UNL     1      -2.048   1.476  -2.988  0.00  0.00    +0.295 HD
ENDBRANCH   7   9
ENDBRANCH   2   7
TORSDOF 4
