REMARK  Name = 
REMARK  8 active torsions:
REMARK  status: ('A' for Active; 'I' for Inactive)
REMARK    1  A    between atoms: C_1  and  C_2
REMARK    2  A    between atoms: C_2  and  C_3
REMARK    3  A    between atoms: C_2  and  N_4
REMARK    4  A    between atoms: N_13  and  C1*_14
REMARK    5  A    between atoms: C2*_16  and  O2*_26
REMARK    6  A    between atoms: C3*_18  and  O3*_25
REMARK    7  A    between atoms: C4*_20  and  C5*_23
REMARK    8  A    between atoms: C5*_23  and  O5*_24
REMARK                            x       y       z     vdW  Elec       q    Type
REMARK                         _______ _______ _______ _____ _____    ______ ____
ROOT
ATOM      1  N   UNL     1       2.978   0.312  -1.746  0.00  0.00    -0.312 N 
ATOM      2  H   UNL     1       2.704  -0.619  -2.074  0.00  0.00    +0.149 HD
ATOM      3  C   UNL     1       4.313   0.517  -1.745  0.00  0.00    +0.199 A 
ATOM      4  N   UNL     1       5.206  -0.534  -1.668  0.00  0.00    -0.283 N 
ATOM      5  C   UNL     1       6.481   0.000  -1.822  0.00  0.00    +0.074 A 
ATOM      6  C   UNL     1       6.265   1.372  -1.942  0.00  0.00    +0.092 A 
ATOM      7  C   UNL     1       7.348   2.238  -2.163  0.00  0.00    +0.051 A 
ATOM      8  C   UNL     1       8.635   1.695  -2.274  0.00  0.00    +0.061 A 
ATOM      9 CL   UNL     1       9.934   2.790  -2.601  0.00  0.00    -0.082 Cl
ATOM     10  C   UNL     1       8.839   0.313  -2.145  0.00  0.00    +0.061 A 
ATOM     11 CL   UNL     1      10.411  -0.401  -2.284  0.00  0.00    -0.082 Cl
ATOM     12  C   UNL     1       7.765  -0.561  -1.908  0.00  0.00    +0.049 A 
ATOM     13  N   UNL     1       4.936   1.667  -1.846  0.00  0.00    -0.214 NA
ENDROOT
BRANCH   4  14
ATOM     14  C1* UNL     1       4.941  -1.960  -1.627  0.00  0.00    +0.254 C 
ATOM     15  O4* UNL     1       4.841  -2.441  -2.986  0.00  0.00    -0.346 OA
ATOM     16  C4* UNL     1       4.125  -3.698  -2.950  0.00  0.00    +0.177 C 
ATOM     17  C3* UNL     1       3.741  -3.973  -1.490  0.00  0.00    +0.178 C 
ATOM     18  C2* UNL     1       3.755  -2.584  -0.860  0.00  0.00    +0.195 C 
BRANCH  17  19
ATOM     19  O3* UNL     1       2.454  -4.584  -1.397  0.00  0.00    -0.386 OA
ATOM     20  H3* UNL     1       1.811  -3.850  -1.495  0.00  0.00    +0.210 HD
ENDBRANCH  17  19
BRANCH  18  21
ATOM     21  O2* UNL     1       2.448  -2.041  -1.113  0.00  0.00    -0.385 OA
ATOM     22  H2* UNL     1       2.295  -1.355  -0.426  0.00  0.00    +0.210 HD
ENDBRANCH  18  21
BRANCH  16  23
ATOM     23  C5* UNL     1       5.033  -4.789  -3.515  0.00  0.00    +0.190 C 
BRANCH  23  24
ATOM     24  O5* UNL     1       6.262  -4.828  -2.784  0.00  0.00    -0.392 OA
ATOM     25  H5* UNL     1       6.755  -4.031  -3.053  0.00  0.00    +0.210 HD
ENDBRANCH  23  24
ENDBRANCH  16  23
ENDBRANCH   4  14
BRANCH   1  27
ATOM     26  C   UNL     1       0.754   0.597  -2.620  0.00  0.00    +0.027 C 
ATOM     27  C   UNL     1       2.076   1.315  -2.317  0.00  0.00    +0.067 C 
ATOM     28  C   UNL     1       1.821   2.468  -1.353  0.00  0.00    +0.027 C 
ENDBRANCH   1  27
TORSDOF 6
