REMARK  Name = 
REMARK  8 active torsions:
REMARK  status: ('A' for Active; 'I' for Inactive)
REMARK    1  A    between atoms: C_1  and  C_2
REMARK    2  A    between atoms: C_2  and  C_3
REMARK    3  A    between atoms: C_2  and  N_4
REMARK    4  A    between atoms: N_13  and  C1*_14
REMARK    5  A    between atoms: C2*_16  and  O2*_26
REMARK    6  A    between atoms: C3*_18  and  O3*_25
REMARK    7  A    between atoms: C4*_20  and  C5*_23
REMARK    8  A    between atoms: C5*_23  and  O5*_24
REMARK                            x       y       z     vdW  Elec       q    Type
REMARK                         _______ _______ _______ _____ _____    ______ ____
ROOT
ATOM      1  N   UNL     1       3.089   1.055  -0.191  0.00  0.00    -0.312 N 
ATOM      2  H   UNL     1       2.836   0.135  -0.550  0.00  0.00    +0.149 HD
ATOM      3  C   UNL     1       4.396   1.404  -0.132  0.00  0.00    +0.199 A 
ATOM      4  N   UNL     1       5.418   0.485   0.000  0.00  0.00    -0.283 N 
ATOM      5  C   UNL     1       6.619   1.182  -0.028  0.00  0.00    +0.074 A 
ATOM      6  C   UNL     1       6.242   2.514  -0.141  0.00  0.00    +0.092 A 
ATOM      7  C   UNL     1       7.231   3.506  -0.213  0.00  0.00    +0.051 A 
ATOM      8  C   UNL     1       8.582   3.126  -0.186  0.00  0.00    +0.061 A 
ATOM      9 CL   UNL     1       9.768   4.379  -0.301  0.00  0.00    -0.082 Cl
ATOM     10  C   UNL     1       8.941   1.779  -0.069  0.00  0.00    +0.061 A 
ATOM     11 CL   UNL     1      10.591   1.256  -0.029  0.00  0.00    -0.082 Cl
ATOM     12  C   UNL     1       7.964   0.778   0.023  0.00  0.00    +0.049 A 
ATOM     13  N   UNL     1       4.879   2.627  -0.165  0.00  0.00    -0.214 NA
ENDROOT
BRANCH   4  14
ATOM     14  C1* UNL     1       5.364  -0.951   0.122  0.00  0.00    +0.254 C 
ATOM     15  O4* UNL     1       4.961  -1.564  -1.120  0.00  0.00    -0.346 OA
ATOM     16  C4* UNL     1       4.731  -2.964  -0.796  0.00  0.00    +0.177 C 
ATOM     17  C3* UNL     1       4.779  -3.090   0.743  0.00  0.00    +0.178 C 
ATOM     18  C2* UNL     1       4.559  -1.651   1.215  0.00  0.00    +0.195 C 
BRANCH  17  19
ATOM     19  O3* UNL     1       3.789  -3.982   1.242  0.00  0.00    -0.386 OA
ATOM     20  H3* UNL     1       2.970  -3.448   1.314  0.00  0.00    +0.210 HD
ENDBRANCH  17  19
BRANCH  18  21
ATOM     21  O2* UNL     1       3.145  -1.406   1.204  0.00  0.00    -0.385 OA
ATOM     22  H2* UNL     1       3.007  -0.515   1.587  0.00  0.00    +0.210 HD
ENDBRANCH  18  21
BRANCH  16  23
ATOM     23  C5* UNL     1       5.822  -3.798  -1.477  0.00  0.00    +0.190 C 
BRANCH  23  24
ATOM     24  O5* UNL     1       7.119  -3.339  -1.083  0.00  0.00    -0.392 OA
ATOM     25  H5* UNL     1       7.271  -2.513  -1.578  0.00  0.00    +0.210 HD
ENDBRANCH  23  24
ENDBRANCH  16  23
ENDBRANCH   4  14
BRANCH   1  27
ATOM     26  C   UNL     1       1.872   2.378  -1.907  0.00  0.00    +0.027 C 
ATOM     27  C   UNL     1       2.082   2.102  -0.418  0.00  0.00    +0.067 C 
ATOM     28  C   UNL     1       0.763   1.658   0.215  0.00  0.00    +0.027 C 
ENDBRANCH   1  27
TORSDOF 6
