REMARK  Name = 
REMARK  5 active torsions:
REMARK  status: ('A' for Active; 'I' for Inactive)
REMARK    1  A    between atoms: C3*_2  and  O3*_22
REMARK    2  A    between atoms: C4*_4  and  C5*_20
REMARK    3  A    between atoms: C1*_7  and  N_9
REMARK    4  A    between atoms: C_11  and  C_17
REMARK    5  A    between atoms: C5*_20  and  O5*_21
REMARK                            x       y       z     vdW  Elec       q    Type
REMARK                         _______ _______ _______ _____ _____    ______ ____
ROOT
ATOM      1  N   UNL     1       1.038  -1.648   1.381  0.00  0.00    -0.273 N 
ATOM      2  C   UNL     1       1.223  -3.023   1.403  0.00  0.00    +0.331 A 
ATOM      3  O   UNL     1       1.083  -3.752   0.423  0.00  0.00    -0.246 OA
ATOM      4  N   UNL     1       1.583  -3.553   2.609  0.00  0.00    -0.274 N 
ATOM      5  H   UNL     1       1.761  -4.545   2.635  0.00  0.00    +0.173 HD
ATOM      6  C   UNL     1       1.762  -2.862   3.774  0.00  0.00    +0.261 A 
ATOM      7  O   UNL     1       2.139  -3.423   4.798  0.00  0.00    -0.267 OA
ATOM      8  C   UNL     1       1.471  -1.398   3.726  0.00  0.00    +0.056 A 
ATOM      9  C   UNL     1       1.150  -0.885   2.529  0.00  0.00    +0.106 A 
ENDROOT
BRANCH   1  11
ATOM     10  C2* UNL     1      -0.865  -1.069  -0.114  0.00  0.00    +0.088 C 
ATOM     11  C1* UNL     1       0.643  -1.059   0.103  0.00  0.00    +0.226 C 
ATOM     12  O4* UNL     1       1.101   0.307   0.017  0.00  0.00    -0.348 OA
ATOM     13  C4* UNL     1      -0.037   1.164  -0.216  0.00  0.00    +0.175 C 
ATOM     14  C3* UNL     1      -1.256   0.351   0.216  0.00  0.00    +0.150 C 
BRANCH  14  15
ATOM     15  O3* UNL     1      -2.479   0.744  -0.375  0.00  0.00    -0.389 OA
ATOM     16  H3* UNL     1      -2.441   0.525  -1.325  0.00  0.00    +0.210 HD
ENDBRANCH  14  15
BRANCH  13  17
ATOM     17  C5* UNL     1      -0.025   1.625  -1.678  0.00  0.00    +0.190 C 
BRANCH  17  18
ATOM     18  O5* UNL     1      -0.084   0.520  -2.576  0.00  0.00    -0.392 OA
ATOM     19  H5* UNL     1       0.794   0.093  -2.539  0.00  0.00    +0.210 HD
ENDBRANCH  17  18
ENDBRANCH  13  17
ENDBRANCH   1  11
BRANCH   8  20
ATOM     20  C   UNL     1       1.635  -0.605   4.933  0.00  0.00    +0.022 C 
ATOM     21  C   UNL     1       0.941   0.497   5.247  0.00  0.00    +0.052 C 
ATOM     22 BR   UNL     1       1.198   1.469   6.807  0.00  0.00    -0.059 Br
ENDBRANCH   8  20
TORSDOF 5
