REMARK  Name = 
REMARK  5 active torsions:
REMARK  status: ('A' for Active; 'I' for Inactive)
REMARK    1  A    between atoms: C3*_2  and  O3*_22
REMARK    2  A    between atoms: C4*_4  and  C5*_20
REMARK    3  A    between atoms: C1*_7  and  N_9
REMARK    4  A    between atoms: C_11  and  C_17
REMARK    5  A    between atoms: C5*_20  and  O5*_21
REMARK                            x       y       z     vdW  Elec       q    Type
REMARK                         _______ _______ _______ _____ _____    ______ ____
ROOT
ATOM      1  N   UNL     1       1.045  -1.645   1.375  0.00  0.00    -0.273 N 
ATOM      2  C   UNL     1       1.238  -3.019   1.392  0.00  0.00    +0.331 A 
ATOM      3  O   UNL     1       1.086  -3.747   0.415  0.00  0.00    -0.246 OA
ATOM      4  N   UNL     1       1.610  -3.550   2.596  0.00  0.00    -0.274 N 
ATOM      5  H   UNL     1       1.762  -4.545   2.625  0.00  0.00    +0.173 HD
ATOM      6  C   UNL     1       1.781  -2.864   3.764  0.00  0.00    +0.261 A 
ATOM      7  O   UNL     1       2.114  -3.435   4.797  0.00  0.00    -0.267 OA
ATOM      8  C   UNL     1       1.535  -1.392   3.709  0.00  0.00    +0.056 A 
ATOM      9  C   UNL     1       1.163  -0.884   2.524  0.00  0.00    +0.106 A 
ENDROOT
BRANCH   1  11
ATOM     10  C2* UNL     1      -0.869  -1.065  -0.110  0.00  0.00    +0.088 C 
ATOM     11  C1* UNL     1       0.640  -1.054   0.102  0.00  0.00    +0.226 C 
ATOM     12  O4* UNL     1       1.098   0.312   0.017  0.00  0.00    -0.348 OA
ATOM     13  C4* UNL     1      -0.041   1.168  -0.215  0.00  0.00    +0.175 C 
ATOM     14  C3* UNL     1      -1.259   0.356   0.219  0.00  0.00    +0.150 C 
BRANCH  14  15
ATOM     15  O3* UNL     1      -2.483   0.748  -0.369  0.00  0.00    -0.389 OA
ATOM     16  H3* UNL     1      -2.449   0.528  -1.318  0.00  0.00    +0.210 HD
ENDBRANCH  14  15
BRANCH  13  17
ATOM     17  C5* UNL     1      -0.030   1.629  -1.677  0.00  0.00    +0.190 C 
BRANCH  17  18
ATOM     18  O5* UNL     1      -0.088   0.522  -2.575  0.00  0.00    -0.392 OA
ATOM     19  H5* UNL     1       0.791   0.100  -2.541  0.00  0.00    +0.210 HD
ENDBRANCH  17  18
ENDBRANCH  13  17
ENDBRANCH   1  11
BRANCH   8  20
ATOM     20  C   UNL     1       1.642  -0.614   4.932  0.00  0.00    +0.022 C 
ATOM     21  C   UNL     1       2.000   0.673   5.010  0.00  0.00    +0.052 C 
ATOM     22 BR   UNL     1       2.147   1.611   6.605  0.00  0.00    -0.059 Br
ENDBRANCH   8  20
TORSDOF 5
