REMARK  Name = 
REMARK  3 active torsions:
REMARK  status: ('A' for Active; 'I' for Inactive)
REMARK    1  A    between atoms: C_1  and  C_2
REMARK    2  A    between atoms: C_2  and  C_4
REMARK    3  A    between atoms: C_2  and  N_14
REMARK                            x       y       z     vdW  Elec       q    Type
REMARK                         _______ _______ _______ _____ _____    ______ ____
ROOT
ATOM      1  C   UNL     1       2.986  -1.456  -0.108  0.00  0.00    -0.014 C 
ATOM      2  C   UNL     1       1.828  -2.463   0.165  0.00  0.00    +0.012 C 
ATOM      3  C   UNL     1       2.297  -3.918  -0.001  0.00  0.00    -0.010 C 
ATOM      4  C   UNL     1       3.439  -4.191   0.990  0.00  0.00    +0.007 C 
ATOM      5  C   UNL     1       4.614  -3.241   0.711  0.00  0.00    -0.010 C 
ATOM      6  C   UNL     1       5.109  -3.459  -0.727  0.00  0.00    +0.007 C 
ATOM      7  C   UNL     1       3.972  -3.180  -1.721  0.00  0.00    -0.010 C 
ATOM      8  C   UNL     1       2.801  -4.130  -1.435  0.00  0.00    +0.007 C 
ATOM      9  C   UNL     1       3.501  -1.724  -1.555  0.00  0.00    +0.012 C 
ATOM     10  C   UNL     1       4.144  -1.783   0.875  0.00  0.00    +0.012 C 
ENDROOT
BRANCH   1  12
ATOM     11  C   UNL     1       1.864   0.362   1.394  0.00  0.00    +0.024 C 
ATOM     12  C   UNL     1       2.463   0.017   0.026  0.00  0.00    +0.054 C 
BRANCH  12  13
ATOM     13  N   UNL     1       3.482   1.034  -0.254  0.00  0.00    -0.327 NA
ATOM     14  H   UNL     1       4.269   0.931   0.384  0.00  0.00    +0.118 HD
ATOM     15  H   UNL     1       3.852   0.918  -1.195  0.00  0.00    +0.118 HD
ENDBRANCH  12  13
ENDBRANCH   1  12
TORSDOF 2
