REMARK  Name = 
REMARK  3 active torsions:
REMARK  status: ('A' for Active; 'I' for Inactive)
REMARK    1  A    between atoms: C_1  and  C_2
REMARK    2  A    between atoms: C_2  and  C_4
REMARK    3  A    between atoms: C_2  and  N_14
REMARK                            x       y       z     vdW  Elec       q    Type
REMARK                         _______ _______ _______ _____ _____    ______ ____
ROOT
ATOM      1  C   UNL     1       3.025   0.564  -1.433  0.00  0.00    -0.014 C 
ATOM      2  C   UNL     1       3.725  -0.613  -2.181  0.00  0.00    +0.012 C 
ATOM      3  C   UNL     1       4.178  -0.192  -3.588  0.00  0.00    -0.010 C 
ATOM      4  C   UNL     1       5.161   0.983  -3.470  0.00  0.00    +0.007 C 
ATOM      5  C   UNL     1       4.478   2.172  -2.779  0.00  0.00    -0.010 C 
ATOM      6  C   UNL     1       3.252   2.600  -3.601  0.00  0.00    +0.007 C 
ATOM      7  C   UNL     1       2.263   1.429  -3.715  0.00  0.00    -0.010 C 
ATOM      8  C   UNL     1       2.954   0.244  -4.404  0.00  0.00    +0.007 C 
ATOM      9  C   UNL     1       1.813   1.011  -2.303  0.00  0.00    +0.012 C 
ATOM     10  C   UNL     1       4.025   1.752  -1.368  0.00  0.00    +0.012 C 
ENDROOT
BRANCH   1  12
ATOM     11  C   UNL     1       1.844   1.166   0.816  0.00  0.00    +0.024 C 
ATOM     12  C   UNL     1       2.541   0.089  -0.022  0.00  0.00    +0.054 C 
BRANCH  12  13
ATOM     13  N   UNL     1       3.641  -0.466   0.779  0.00  0.00    -0.327 NA
ATOM     14  H   UNL     1       4.307   0.270   1.012  0.00  0.00    +0.118 HD
ATOM     15  H   UNL     1       3.279  -0.807   1.669  0.00  0.00    +0.118 HD
ENDBRANCH  12  13
ENDBRANCH   1  12
TORSDOF 2
