REMARK  Name = 
REMARK  3 active torsions:
REMARK  status: ('A' for Active; 'I' for Inactive)
REMARK    1  A    between atoms: C_1  and  C_2
REMARK    2  A    between atoms: C_2  and  C_4
REMARK    3  A    between atoms: C_2  and  N_14
REMARK                            x       y       z     vdW  Elec       q    Type
REMARK                         _______ _______ _______ _____ _____    ______ ____
ROOT
ATOM      1  C   UNL     1       2.924   0.521  -1.300  0.00  0.00    -0.014 C 
ATOM      2  C   UNL     1       3.660  -0.583  -2.115  0.00  0.00    +0.012 C 
ATOM      3  C   UNL     1       4.058  -0.079  -3.514  0.00  0.00    -0.010 C 
ATOM      4  C   UNL     1       4.991   1.132  -3.367  0.00  0.00    +0.007 C 
ATOM      5  C   UNL     1       4.277   2.254  -2.598  0.00  0.00    -0.010 C 
ATOM      6  C   UNL     1       3.014   2.668  -3.370  0.00  0.00    +0.007 C 
ATOM      7  C   UNL     1       2.075   1.462  -3.524  0.00  0.00    -0.010 C 
ATOM      8  C   UNL     1       2.796   0.340  -4.282  0.00  0.00    +0.007 C 
ATOM      9  C   UNL     1       1.676   0.956  -2.127  0.00  0.00    +0.012 C 
ATOM     10  C   UNL     1       3.879   1.744  -1.199  0.00  0.00    +0.012 C 
ENDROOT
BRANCH   1  12
ATOM     11  C   UNL     1       3.612  -0.586   0.965  0.00  0.00    +0.024 C 
ATOM     12  C   UNL     1       2.476  -0.034   0.097  0.00  0.00    +0.054 C 
BRANCH  12  13
ATOM     13  N   UNL     1       1.758   0.947   0.919  0.00  0.00    -0.327 NA
ATOM     14  H   UNL     1       2.353   1.751   1.110  0.00  0.00    +0.118 HD
ATOM     15  H   UNL     1       0.942   1.299   0.423  0.00  0.00    +0.118 HD
ENDBRANCH  12  13
ENDBRANCH   1  12
TORSDOF 2
