REMARK  Name = 
REMARK  6 active torsions:
REMARK  status: ('A' for Active; 'I' for Inactive)
REMARK    1  A    between atoms: C_3  and  C_19
REMARK    2  A    between atoms: N_5  and  C1*_6
REMARK    3  A    between atoms: C2*_8  and  O2*_18
REMARK    4  A    between atoms: C3*_10  and  O3*_17
REMARK    5  A    between atoms: C4*_12  and  C5*_15
REMARK    6  A    between atoms: C5*_15  and  O5*_16
REMARK                            x       y       z     vdW  Elec       q    Type
REMARK                         _______ _______ _______ _____ _____    ______ ____
ROOT
ATOM      1  C1* UNL     1      -0.922  -2.639  -0.194  0.00  0.00    +0.270 C 
ATOM      2  O4* UNL     1      -1.372  -2.954   1.144  0.00  0.00    -0.344 OA
ATOM      3  C4* UNL     1      -1.133  -4.360   1.390  0.00  0.00    +0.177 C 
ATOM      4  C3* UNL     1      -0.602  -4.984   0.096  0.00  0.00    +0.178 C 
ATOM      5  C2* UNL     1       0.012  -3.789  -0.605  0.00  0.00    +0.196 C 
ENDROOT
BRANCH   1   7
ATOM      6  C   UNL     1      -3.297  -1.916  -0.653  0.00  0.00    +0.223 A 
ATOM      7  N   UNL     1      -2.090  -2.418  -1.031  0.00  0.00    -0.220 N 
ATOM      8  N   UNL     1      -2.036  -2.595  -2.368  0.00  0.00    -0.142 NA
ATOM      9  C   UNL     1      -3.279  -2.240  -2.749  0.00  0.00    +0.236 A 
ATOM     10  N   UNL     1      -4.079  -1.807  -1.701  0.00  0.00    -0.211 NA
BRANCH   9  11
ATOM     11  C   UNL     1      -3.767  -2.308  -4.139  0.00  0.00    +0.281 C 
ATOM     12  N   UNL     1      -5.091  -1.982  -4.284  0.00  0.00    -0.323 N 
ATOM     13  H   UNL     1      -5.514  -2.046  -5.197  0.00  0.00    +0.145 HD
ATOM     14  H   UNL     1      -5.646  -1.757  -3.467  0.00  0.00    +0.145 HD
ATOM     15  O   UNL     1      -3.090  -2.640  -5.108  0.00  0.00    -0.267 OA
ENDBRANCH   9  11
ENDBRANCH   1   7
BRANCH   4  16
ATOM     16  O3* UNL     1      -1.642  -5.550  -0.704  0.00  0.00    -0.386 OA
ATOM     17  H3* UNL     1      -1.241  -5.712  -1.584  0.00  0.00    +0.210 HD
ENDBRANCH   4  16
BRANCH   5  18
ATOM     18  O2* UNL     1       0.225  -4.036  -1.990  0.00  0.00    -0.385 OA
ATOM     19  H2* UNL     1      -0.520  -3.627  -2.491  0.00  0.00    +0.210 HD
ENDBRANCH   5  18
BRANCH   3  20
ATOM     20  C5* UNL     1      -2.402  -5.018   1.930  0.00  0.00    +0.190 C 
BRANCH  20  21
ATOM     21  O5* UNL     1      -2.199  -6.405   2.169  0.00  0.00    -0.392 OA
ATOM     22  H5* UNL     1      -2.205  -6.832   1.291  0.00  0.00    +0.210 HD
ENDBRANCH  20  21
ENDBRANCH   3  20
TORSDOF 6
