REMARK  Name = 
REMARK  5 active torsions:
REMARK  status: ('A' for Active; 'I' for Inactive)
REMARK    1  A    between atoms: C3*_2  and  O3*_22
REMARK    2  A    between atoms: C4*_4  and  C5*_20
REMARK    3  A    between atoms: C1*_7  and  N_9
REMARK    4  A    between atoms: C_11  and  C_17
REMARK    5  A    between atoms: C5*_20  and  O5*_21
REMARK                            x       y       z     vdW  Elec       q    Type
REMARK                         _______ _______ _______ _____ _____    ______ ____
ROOT
ATOM      1  N   UNL     1       1.396  -1.800  -1.043  0.00  0.00    -0.273 N 
ATOM      2  C   UNL     1       1.401  -3.177  -0.871  0.00  0.00    +0.331 A 
ATOM      3  O   UNL     1       0.927  -3.746   0.108  0.00  0.00    -0.246 OA
ATOM      4  N   UNL     1       1.939  -3.898  -1.902  0.00  0.00    -0.274 N 
ATOM      5  H   UNL     1       1.886  -4.899  -1.816  0.00  0.00    +0.173 HD
ATOM      6  C   UNL     1       2.221  -3.410  -3.147  0.00  0.00    +0.261 A 
ATOM      7  O   UNL     1       2.413  -4.159  -4.100  0.00  0.00    -0.267 OA
ATOM      8  C   UNL     1       2.243  -1.923  -3.284  0.00  0.00    +0.056 A 
ATOM      9  C   UNL     1       1.834  -1.221  -2.219  0.00  0.00    +0.106 A 
ENDROOT
BRANCH   1  11
ATOM     10  C2* UNL     1      -0.792  -1.006  -0.198  0.00  0.00    +0.088 C 
ATOM     11  C1* UNL     1       0.724  -1.001  -0.021  0.00  0.00    +0.226 C 
ATOM     12  O4* UNL     1       1.158   0.373  -0.077  0.00  0.00    -0.348 OA
ATOM     13  C4* UNL     1      -0.000   1.225  -0.207  0.00  0.00    +0.175 C 
ATOM     14  C3* UNL     1      -1.179   0.378   0.263  0.00  0.00    +0.150 C 
BRANCH  14  15
ATOM     15  O3* UNL     1      -2.439   0.802  -0.222  0.00  0.00    -0.389 OA
ATOM     16  H3* UNL     1      -2.578   0.459  -1.122  0.00  0.00    +0.210 HD
ENDBRANCH  14  15
BRANCH  13  17
ATOM     17  C5* UNL     1      -0.133   1.722  -1.657  0.00  0.00    +0.190 C 
BRANCH  17  18
ATOM     18  O5* UNL     1       1.031   2.435  -2.076  0.00  0.00    -0.392 OA
ATOM     19  H5* UNL     1       1.174   3.162  -1.445  0.00  0.00    +0.210 HD
ENDBRANCH  17  18
ENDBRANCH  13  17
ENDBRANCH   1  11
BRANCH   8  20
ATOM     20  C   UNL     1       2.548  -1.322  -4.573  0.00  0.00    +0.022 C 
ATOM     21  C   UNL     1       3.025  -0.086  -4.772  0.00  0.00    +0.052 C 
ATOM     22 BR   UNL     1       3.337   0.640  -6.452  0.00  0.00    -0.059 Br
ENDBRANCH   8  20
TORSDOF 5
