REMARK  Name = 
REMARK  13 active torsions:
REMARK  status: ('A' for Active; 'I' for Inactive)
REMARK    1  A    between atoms: C_1  and  C_2
REMARK    2  A    between atoms: C_2  and  C_3
REMARK    3  A    between atoms: C_3  and  C_4
REMARK    4  A    between atoms: C_3  and  O_6
REMARK    5  A    between atoms: C_4  and  C_5
REMARK    6  A    between atoms: O_6  and  C_7
REMARK    7  A    between atoms: C_9  and  C_19
REMARK    8  A    between atoms: C_11  and  N_18
REMARK    9  A    between atoms: C_12  and  N_14
REMARK   10  A    between atoms: C_15  and  C_17
REMARK   11  A    between atoms: C_19  and  O_21
REMARK   12  A    between atoms: O_21  and  C_22
REMARK   13  A    between atoms: C_22  and  C_23
REMARK                            x       y       z     vdW  Elec       q    Type
REMARK                         _______ _______ _______ _____ _____    ______ ____
ROOT
ATOM      1  C   UNL     1       5.041   2.692  -0.791  0.00  0.00    +0.164 C 
ATOM      2  C   UNL     1       6.088   2.442   0.343  0.00  0.00    +0.122 C 
ATOM      3  C   UNL     1       6.598   3.687   1.129  0.00  0.00    +0.078 C 
ATOM      4  C   UNL     1       5.799   4.989   1.012  0.00  0.00    +0.062 C 
ATOM      5  C   UNL     1       4.669   5.032   0.035  0.00  0.00    +0.037 C 
ATOM      6  C   UNL     1       4.315   3.999  -0.746  0.00  0.00    +0.016 C 
ENDROOT
BRANCH   2   7
ATOM      7  N   UNL     1       5.660   1.385   1.271  0.00  0.00    -0.308 N 
ATOM      8  H   UNL     1       4.798   0.913   1.015  0.00  0.00    +0.149 HD
ATOM      9  C   UNL     1       6.565   0.745   2.084  0.00  0.00    +0.210 C 
ATOM     10  C   UNL     1       5.972  -0.330   2.949  0.00  0.00    +0.109 C 
ATOM     11  O   UNL     1       7.755   1.045   2.142  0.00  0.00    -0.276 OA
ENDBRANCH   2   7
BRANCH   3  12
ATOM     12  N   UNL     1       8.033   3.953   0.886  0.00  0.00    -0.325 NA
ATOM     13  H   UNL     1       8.549   3.132   1.221  0.00  0.00    +0.119 HD
ATOM     14  H   UNL     1       8.223   4.016  -0.112  0.00  0.00    +0.119 HD
ENDBRANCH   3  12
BRANCH   5  15
ATOM     15  C   UNL     1       3.949   6.342   0.044  0.00  0.00    +0.335 C 
ATOM     16  O   UNL     1       4.258   7.262   0.787  0.00  0.00    -0.245 OA
BRANCH  15  17
ATOM     17  O   UNL     1       2.873   6.328  -0.780  0.00  0.00    -0.462 OA
BRANCH  17  18
ATOM     18  C   UNL     1       1.876   7.305  -0.453  0.00  0.00    +0.229 C 
ATOM     19  C   UNL     1       0.952   6.680   0.579  0.00  0.00    +0.048 C 
ENDBRANCH  17  18
ENDBRANCH  15  17
ENDBRANCH   5  15
BRANCH   1  20
ATOM     20  O   UNL     1       4.113   1.581  -0.788  0.00  0.00    -0.367 OA
BRANCH  20  21
ATOM     21  C   UNL     1       3.339   1.313  -1.972  0.00  0.00    +0.119 C 
BRANCH  21  23
ATOM     22  C   UNL     1       3.482   0.808  -4.498  0.00  0.00    +0.006 C 
ATOM     23  C   UNL     1       4.235   1.109  -3.210  0.00  0.00    +0.028 C 
ENDBRANCH  21  23
BRANCH  21  24
ATOM     24  C   UNL     1       2.523   0.031  -1.686  0.00  0.00    +0.028 C 
ATOM     25  C   UNL     1       1.545   0.156  -0.523  0.00  0.00    +0.006 C 
ENDBRANCH  21  24
ENDBRANCH  20  21
ENDBRANCH   1  20
TORSDOF 9
