REMARK  Name = 
REMARK  27 active torsions:
REMARK  status: ('A' for Active; 'I' for Inactive)
REMARK    1  A    between atoms: C_1  and  C_2
REMARK    2  A    between atoms: C_2  and  C_3
REMARK    3  A    between atoms: C_2  and  C_4
REMARK    4  A    between atoms: C_2  and  C_5
REMARK    5  A    between atoms: C_5  and  C_7
REMARK    6  A    between atoms: C_5  and  N_49
REMARK    7  A    between atoms: N_9  and  N_10
REMARK    8  A    between atoms: N_10  and  C_11
REMARK    9  A    between atoms: N_10  and  C_24
REMARK   10  A    between atoms: C_11  and  C_12
REMARK   11  A    between atoms: C_15  and  C_18
REMARK   12  A    between atoms: C_24  and  C_25
REMARK   13  A    between atoms: C_25  and  C_26
REMARK   14  A    between atoms: C_25  and  O_48
REMARK   15  A    between atoms: C_26  and  C_28
REMARK   16  A    between atoms: C_26  and  N_35
REMARK   17  A    between atoms: C_28  and  C_29
REMARK   18  A    between atoms: C_36  and  C_38
REMARK   19  A    between atoms: C_38  and  C_39
REMARK   20  A    between atoms: C_38  and  N_43
REMARK   21  A    between atoms: C_39  and  C_40
REMARK   22  A    between atoms: C_39  and  C_41
REMARK   23  A    between atoms: C_39  and  C_42
REMARK   24  A    between atoms: C_44  and  O_46
REMARK   25  A    between atoms: O_46  and  C_47
REMARK   26  A    between atoms: C_50  and  O_52
REMARK   27  A    between atoms: O_52  and  C_53
REMARK                            x       y       z     vdW  Elec       q    Type
REMARK                         _______ _______ _______ _____ _____    ______ ____
ROOT
ATOM      1  N   UNL     1      -2.565   3.711  -1.796  0.00  0.00    -0.220 NA
ENDROOT
BRANCH   1   3
ATOM      2  C   UNL     1      -4.021   1.999  -0.764  0.00  0.00    +0.248 C 
ATOM      3  N   UNL     1      -2.963   2.362  -1.594  0.00  0.00    -0.246 N 
ATOM      4  H   UNL     1      -2.411   1.634  -2.040  0.00  0.00    +0.169 HD
ATOM      5  O   UNL     1      -4.701   2.767  -0.084  0.00  0.00    -0.272 OA
BRANCH   2   6
ATOM      6  C   UNL     1      -4.289   0.478  -0.783  0.00  0.00    +0.169 C 
BRANCH   6   7
ATOM      7  N   UNL     1      -4.723   0.077   0.556  0.00  0.00    -0.269 N 
ATOM      8  H   UNL     1      -5.412   0.655   1.025  0.00  0.00    +0.153 HD
ATOM      9  C   UNL     1      -4.047  -0.800   1.341  0.00  0.00    +0.401 C 
ATOM     10  O   UNL     1      -3.060  -1.443   0.997  0.00  0.00    -0.226 OA
BRANCH   9  11
ATOM     11  O   UNL     1      -4.640  -0.868   2.554  0.00  0.00    -0.454 OA
ATOM     12  C   UNL     1      -4.034  -1.785   3.464  0.00  0.00    +0.282 C 
ENDBRANCH   9  11
ENDBRANCH   6   7
BRANCH   6  14
ATOM     13  C   UNL     1      -4.768   0.462  -3.288  0.00  0.00    +0.013 C 
ATOM     14  C   UNL     1      -5.319   0.103  -1.892  0.00  0.00    -0.011 C 
ATOM     15  C   UNL     1      -5.574  -1.417  -1.867  0.00  0.00    +0.013 C 
ATOM     16  C   UNL     1      -6.661   0.835  -1.692  0.00  0.00    +0.013 C 
ENDBRANCH   6  14
ENDBRANCH   2   6
ENDBRANCH   1   3
BRANCH   1  17
ATOM     17  C   UNL     1      -1.594   3.781  -2.915  0.00  0.00    +0.139 C 
BRANCH  17  18
ATOM     18  C   UNL     1      -1.163   5.164  -3.437  0.00  0.00    +0.151 C 
BRANCH  18  19
ATOM     19  O   UNL     1      -2.334   5.842  -3.934  0.00  0.00    -0.389 OA
ATOM     20  H   UNL     1      -2.070   6.486  -4.610  0.00  0.00    +0.210 HD
ENDBRANCH  18  19
BRANCH  18  21
ATOM     21  C   UNL     1      -0.054   5.110  -4.552  0.00  0.00    +0.107 C 
BRANCH  21  22
ATOM     22  N   UNL     1       1.278   4.683  -4.096  0.00  0.00    -0.308 N 
ATOM     23  H   UNL     1       1.777   3.963  -4.615  0.00  0.00    +0.149 HD
ATOM     24  C   UNL     1       1.990   5.392  -3.138  0.00  0.00    +0.234 C 
ATOM     25  O   UNL     1       1.476   6.307  -2.499  0.00  0.00    -0.274 OA
BRANCH  24  26
ATOM     26  C   UNL     1       3.474   4.962  -2.955  0.00  0.00    +0.167 C 
BRANCH  26  27
ATOM     27  C   UNL     1       4.378   5.976  -2.170  0.00  0.00    -0.011 C 
ATOM     28  C   UNL     1       4.380   7.349  -2.875  0.00  0.00    +0.013 C 
ATOM     29  C   UNL     1       5.840   5.468  -2.161  0.00  0.00    +0.013 C 
ATOM     30  C   UNL     1       3.951   6.171  -0.702  0.00  0.00    +0.013 C 
ENDBRANCH  26  27
BRANCH  26  31
ATOM     31  N   UNL     1       3.497   3.641  -2.346  0.00  0.00    -0.269 N 
ATOM     32  H   UNL     1       3.342   3.521  -1.354  0.00  0.00    +0.153 HD
ATOM     33  C   UNL     1       3.467   2.482  -3.056  0.00  0.00    +0.401 C 
ATOM     34  O   UNL     1       3.426   2.412  -4.276  0.00  0.00    -0.226 OA
BRANCH  33  35
ATOM     35  O   UNL     1       3.489   1.447  -2.197  0.00  0.00    -0.454 OA
ATOM     36  C   UNL     1       3.513   0.152  -2.804  0.00  0.00    +0.282 C 
ENDBRANCH  33  35
ENDBRANCH  26  31
ENDBRANCH  24  26
ENDBRANCH  21  22
BRANCH  21  37
ATOM     37  C   UNL     1      -0.501   4.473  -5.906  0.00  0.00    +0.060 C 
BRANCH  37  38
ATOM     38  C   UNL     1      -0.460   2.971  -6.086  0.00  0.00    -0.046 A 
ATOM     39  C   UNL     1       0.710   2.338  -6.530  0.00  0.00    +0.004 A 
ATOM     40  C   UNL     1       0.746   0.955  -6.726  0.00  0.00    +0.000 A 
ATOM     41  C   UNL     1      -0.383   0.180  -6.470  0.00  0.00    +0.000 A 
ATOM     42  C   UNL     1      -1.562   0.795  -6.061  0.00  0.00    +0.000 A 
ATOM     43  C   UNL     1      -1.606   2.183  -5.904  0.00  0.00    +0.004 A 
ENDBRANCH  37  38
ENDBRANCH  21  37
ENDBRANCH  18  21
ENDBRANCH  17  18
ENDBRANCH   1  17
BRANCH   1  44
ATOM     44  C   UNL     1      -2.159   4.412  -0.562  0.00  0.00    +0.140 C 
BRANCH  44  45
ATOM     45  C   UNL     1      -0.998   3.824   0.215  0.00  0.00    -0.032 A 
ATOM     46  C   UNL     1      -1.093   2.571   0.834  0.00  0.00    +0.005 A 
ATOM     47  C   UNL     1      -0.026   2.034   1.548  0.00  0.00    +0.010 A 
ATOM     48  C   UNL     1       1.173   2.741   1.698  0.00  0.00    +0.000 A 
ATOM     49  C   UNL     1       1.235   4.032   1.148  0.00  0.00    +0.010 A 
ATOM     50  C   UNL     1       0.175   4.561   0.402  0.00  0.00    +0.005 A 
BRANCH  48  51
ATOM     51  C   UNL     1       2.340   2.089   2.313  0.00  0.00    +0.071 A 
ATOM     52  N   UNL     1       2.432   0.755   2.067  0.00  0.00    -0.255 NA
ATOM     53  C   UNL     1       3.550   0.112   2.451  0.00  0.00    +0.111 A 
ATOM     54  C   UNL     1       4.608   0.735   3.084  0.00  0.00    +0.020 A 
ATOM     55  C   UNL     1       4.490   2.088   3.378  0.00  0.00    +0.004 A 
ATOM     56  C   UNL     1       3.338   2.775   2.999  0.00  0.00    +0.028 A 
ENDBRANCH  48  51
ENDBRANCH  44  45
ENDBRANCH   1  44
TORSDOF 19
