REMARK  Name = 
REMARK  5 active torsions:
REMARK  status: ('A' for Active; 'I' for Inactive)
REMARK    1  A    between atoms: C_1  and  C_2
REMARK    2  A    between atoms: N_4  and  C_10
REMARK    3  A    between atoms: C_14  and  O_20
REMARK    4  A    between atoms: C_15  and  C_18
REMARK    5  A    between atoms: C_18  and  O_19
REMARK                            x       y       z     vdW  Elec       q    Type
REMARK                         _______ _______ _______ _____ _____    ______ ____
ROOT
ATOM      1  C   UNL     1       5.334   2.421  -0.386  0.00  0.00    +0.260 C 
ATOM      2  O   UNL     1       6.431   2.520   0.553  0.00  0.00    -0.345 OA
ATOM      3  C   UNL     1       6.631   3.923   0.870  0.00  0.00    +0.178 C 
ATOM      4  C   UNL     1       5.691   4.724  -0.030  0.00  0.00    +0.184 C 
ATOM      5  C   UNL     1       4.571   3.740  -0.307  0.00  0.00    +0.246 C 
ATOM      6  F   UNL     1       3.932   4.040  -1.460  0.00  0.00    -0.238 F 
ENDROOT
BRANCH   1  15
ATOM      7  C   UNL     1       3.493  -1.010   2.735  0.00  0.00    +0.051 C 
ATOM      8  C   UNL     1       3.632  -0.374   1.390  0.00  0.00    +0.030 A 
ATOM      9  C   UNL     1       2.812  -0.924   0.287  0.00  0.00    +0.257 A 
ATOM     10  O   UNL     1       2.046  -1.866   0.457  0.00  0.00    -0.267 OA
ATOM     11  N   UNL     1       2.964  -0.318  -0.926  0.00  0.00    -0.275 N 
ATOM     12  H   UNL     1       2.412  -0.676  -1.689  0.00  0.00    +0.173 HD
ATOM     13  C   UNL     1       3.765   0.757  -1.198  0.00  0.00    +0.331 A 
ATOM     14  O   UNL     1       3.790   1.233  -2.329  0.00  0.00    -0.246 OA
ATOM     15  N   UNL     1       4.517   1.235  -0.129  0.00  0.00    -0.271 N 
ATOM     16  C   UNL     1       4.437   0.661   1.121  0.00  0.00    +0.102 A 
ENDBRANCH   1  15
BRANCH   4  17
ATOM     17  O   UNL     1       6.396   5.107  -1.224  0.00  0.00    -0.386 OA
ATOM     18  H   UNL     1       6.729   4.316  -1.681  0.00  0.00    +0.210 HD
ENDBRANCH   4  17
BRANCH   3  19
ATOM     19  C   UNL     1       6.377   4.152   2.361  0.00  0.00    +0.190 C 
BRANCH  19  20
ATOM     20  O   UNL     1       5.043   3.804   2.719  0.00  0.00    -0.392 OA
ATOM     21  H   UNL     1       5.083   2.926   3.135  0.00  0.00    +0.210 HD
ENDBRANCH  19  20
ENDBRANCH   3  19
TORSDOF 4
