REMARK  Name = 
REMARK  12 active torsions:
REMARK  status: ('A' for Active; 'I' for Inactive)
REMARK    1  A    between atoms: C_1  and  C_2
REMARK    2  A    between atoms: C_2  and  C_3
REMARK    3  A    between atoms: C_2  and  C_4
REMARK    4  A    between atoms: C_2  and  C_5
REMARK    5  A    between atoms: C_14  and  C_16
REMARK    6  A    between atoms: N_18  and  C_19
REMARK    7  A    between atoms: C_19  and  C_25
REMARK    8  A    between atoms: C_21  and  C_23
REMARK    9  A    between atoms: N_27  and  S_28
REMARK   10  A    between atoms: S_28  and  C_31
REMARK   11  A    between atoms: C_41  and  O_43
REMARK   12  A    between atoms: O_43  and  C_44
REMARK                            x       y       z     vdW  Elec       q    Type
REMARK                         _______ _______ _______ _____ _____    ______ ____
ROOT
ATOM      1  C   UNL     1      -0.000  -0.000  -0.000  0.00  0.00    +0.168 C 
ATOM      2  N   UNL     1      -0.000  -0.000  -0.000  0.00  0.00    -0.269 N 
ATOM      3  H   UNL     1       0.000   0.000   0.000  0.00  0.00    +0.153 HD
ATOM      4  C   UNL     1      -0.000  -0.000  -0.000  0.00  0.00    +0.401 C 
ATOM      5  O   UNL     1      -0.000  -0.000  -0.000  0.00  0.00    -0.226 OA
ATOM      6  O   UNL     1      -0.000  -0.000  -0.000  0.00  0.00    -0.447 OA
ATOM      7  C   UNL     1      -0.000   0.000  -0.000  0.00  0.00    +0.182 C 
ATOM      8  C   UNL     1      -0.000  -0.000  -0.000  0.00  0.00    +0.033 C 
ATOM      9  C   UNL     1      -0.000  -0.000  -0.000  0.00  0.00    +0.007 C 
ATOM     10  C   UNL     1      -0.000  -0.000  -0.000  0.00  0.00    +0.000 C 
ATOM     11  C   UNL     1      -0.000  -0.000  -0.000  0.00  0.00    +0.000 C 
ATOM     12  C   UNL     1      -0.000  -0.000  -0.000  0.00  0.00    +0.006 C 
ATOM     13  C   UNL     1      -0.000  -0.000  -0.000  0.00  0.00    +0.061 C 
ATOM     14  C   UNL     1      -0.000  -0.000  -0.000  0.00  0.00    +0.103 A 
ATOM     15  C   UNL     1      -0.000  -0.000  -0.000  0.00  0.00    +0.238 A 
ATOM     16  N   UNL     1      -0.000  -0.000  -0.000  0.00  0.00    -0.210 NA
ATOM     17  C   UNL     1      -0.000  -0.000  -0.000  0.00  0.00    +0.096 A 
ATOM     18  C   UNL     1      -0.000  -0.000  -0.000  0.00  0.00    +0.075 A 
ATOM     19  C   UNL     1      -0.000  -0.000  -0.000  0.00  0.00    +0.122 A 
ATOM     20  C   UNL     1      -0.000  -0.000  -0.000  0.00  0.00    +0.048 A 
ATOM     21  C   UNL     1      -0.000  -0.000  -0.000  0.00  0.00    +0.033 A 
ATOM     22  C   UNL     1      -0.000  -0.000  -0.000  0.00  0.00    +0.090 A 
ATOM     23  O   UNL     1      -0.000  -0.000  -0.000  0.00  0.00    -0.470 OA
ATOM     24  C   UNL     1      -0.000  -0.000  -0.000  0.00  0.00    +0.195 C 
ATOM     25  C   UNL     1      -0.000  -0.000  -0.000  0.00  0.00    +0.078 C 
ATOM     26  C   UNL     1      -0.000  -0.000  -0.000  0.00  0.00    +0.166 C 
ATOM     27  N   UNL     1      -0.000  -0.000  -0.000  0.00  0.00    -0.285 N 
ATOM     28  C   UNL     1      -0.000  -0.000  -0.000  0.00  0.00    +0.153 C 
ATOM     29  N   UNL     1      -0.000  -0.000  -0.000  0.00  0.00    -0.245 NA
ATOM     30  C   UNL     1      -0.000  -0.000  -0.000  0.00  0.00    +0.052 C 
ATOM     31  C   UNL     1      -0.000  -0.000  -0.000  0.00  0.00    +0.237 C 
ATOM     32  O   UNL     1      -0.000  -0.000  -0.000  0.00  0.00    -0.274 OA
ENDROOT
BRANCH   1  34
ATOM     33  C   UNL     1      -0.000  -0.000  -0.000  0.00  0.00    +0.013 C 
ATOM     34  C   UNL     1      -0.000  -0.000  -0.000  0.00  0.00    -0.011 C 
ATOM     35  C   UNL     1      -0.000  -0.000  -0.000  0.00  0.00    +0.013 C 
ATOM     36  C   UNL     1      -0.000  -0.000  -0.000  0.00  0.00    +0.013 C 
ENDBRANCH   1  34
BRANCH  26  37
ATOM     37  C   UNL     1      -0.000  -0.000  -0.000  0.00  0.00    +0.234 C 
ATOM     38  N   UNL     1      -0.000  -0.000  -0.000  0.00  0.00    -0.299 N 
ATOM     39  H   UNL     1      -0.000  -0.000  -0.000  0.00  0.00    +0.150 HD
ATOM     40  O   UNL     1      -0.000  -0.000  -0.000  0.00  0.00    -0.274 OA
BRANCH  38  41
ATOM     41  C   UNL     1      -0.000  -0.000  -0.000  0.00  0.00    +0.119 C 
ATOM     42  C   UNL     1      -0.000  -0.000  -0.000  0.00  0.00    +0.046 C 
ATOM     43  C   UNL     1      -0.000  -0.000  -0.000  0.00  0.00    +0.046 C 
BRANCH  41  44
ATOM     44  C   UNL     1      -0.000  -0.000  -0.000  0.00  0.00    +0.256 C 
ATOM     45  N   UNL     1      -0.000  -0.000  -0.000  0.00  0.00    -0.188 N 
ATOM     46  H   UNL     1      -0.000  -0.000  -0.000  0.00  0.00    +0.176 HD
ATOM     47  O   UNL     1      -0.000  -0.000  -0.000  0.00  0.00    -0.272 OA
BRANCH  45  48
ATOM     48  S   UNL     1      -0.000  -0.000  -0.000  0.00  0.00    +0.048 S 
ATOM     49  O   UNL     1      -0.000  -0.000  -0.000  0.00  0.00    -0.155 OA
ATOM     50  O   UNL     1      -0.000  -0.000  -0.000  0.00  0.00    -0.155 OA
BRANCH  48  51
ATOM     51  C   UNL     1      -0.000  -0.000  -0.000  0.00  0.00    +0.151 C 
ATOM     52  C   UNL     1      -0.000  -0.000  -0.000  0.00  0.00    +0.030 C 
ATOM     53  C   UNL     1      -0.000  -0.000  -0.000  0.00  0.00    +0.030 C 
ENDBRANCH  48  51
ENDBRANCH  45  48
ENDBRANCH  41  44
BRANCH  42  54
ATOM     54  C   UNL     1      -0.000  -0.000  -0.000  0.00  0.00    -0.028 C 
ATOM     55  C   UNL     1      -0.000  -0.000  -0.000  0.00  0.00    +0.004 C 
ENDBRANCH  42  54
ENDBRANCH  38  41
ENDBRANCH  26  37
BRANCH  19  56
ATOM     56  O   UNL     1      -0.000  -0.000  -0.000  0.00  0.00    -0.495 OA
ATOM     57  C   UNL     1      -0.000   0.000   0.000  0.00  0.00    +0.277 C 
ENDBRANCH  19  56
TORSDOF 8
REMARK  Name = 
REMARK  12 active torsions:
REMARK  status: ('A' for Active; 'I' for Inactive)
REMARK    1  A    between atoms: C_1  and  C_2
REMARK    2  A    between atoms: C_2  and  C_3
REMARK    3  A    between atoms: C_2  and  C_4
REMARK    4  A    between atoms: C_2  and  C_5
REMARK    5  A    between atoms: C_14  and  C_16
REMARK    6  A    between atoms: N_18  and  C_19
REMARK    7  A    between atoms: C_19  and  C_25
REMARK    8  A    between atoms: C_21  and  C_23
REMARK    9  A    between atoms: N_27  and  S_28
REMARK   10  A    between atoms: S_28  and  C_31
REMARK   11  A    between atoms: C_41  and  O_43
REMARK   12  A    between atoms: O_43  and  C_44
REMARK                            x       y       z     vdW  Elec       q    Type
REMARK                         _______ _______ _______ _____ _____    ______ ____
ROOT
ATOM      1  O   HOH     1      -0.000  -0.000  -0.000  0.00  0.00    -0.410 OA
ATOM      2  H   HOH     0      -0.323  -0.868  -0.288  0.00  0.00    +0.205 HD
ATOM      3  H   HOH     0       0.970  -0.000  -0.000  0.00  0.00    +0.205 HD
ENDROOT
TORSDOF 0
