REMARK  Name = 
REMARK  23 active torsions:
REMARK  status: ('A' for Active; 'I' for Inactive)
REMARK    1  A    between atoms: C_1  and  C_2
REMARK    2  A    between atoms: C_3  and  C_9
REMARK    3  A    between atoms: C_7  and  O_8
REMARK    4  A    between atoms: N_11  and  C_12
REMARK    5  A    between atoms: C_12  and  C_14
REMARK    6  A    between atoms: C_12  and  C_22
REMARK    7  A    between atoms: C_14  and  S_15
REMARK    8  A    between atoms: S_15  and  C_16
REMARK    9  A    between atoms: C_22  and  C_24
REMARK   10  A    between atoms: C_22  and  O_45
REMARK   11  A    between atoms: C_24  and  N_25
REMARK   12  A    between atoms: C_36  and  C_38
REMARK   13  A    between atoms: N_40  and  C_41
REMARK   14  A    between atoms: C_41  and  C_42
REMARK   15  A    between atoms: C_41  and  C_43
REMARK   16  A    between atoms: C_41  and  C_44
REMARK   17  A    between atoms: C_46  and  N_47
REMARK   18  A    between atoms: N_47  and  C_48
REMARK   19  A    between atoms: N_47  and  S_71
REMARK   20  A    between atoms: N_51  and  C_63
REMARK   21  A    between atoms: C_55  and  O_62
REMARK   22  A    between atoms: C_63  and  C_64
REMARK   23  A    between atoms: S_71  and  C_74
REMARK                            x       y       z     vdW  Elec       q    Type
REMARK                         _______ _______ _______ _____ _____    ______ ____
ROOT
ATOM      1  C   UNL     1      -0.611   3.654  -0.373  0.00  0.00    +0.113 C 
ENDROOT
BRANCH   1   3
ATOM      2  C   UNL     1       0.986   2.392   1.371  0.00  0.00    +0.245 C 
ATOM      3  N   UNL     1       0.219   2.526   0.220  0.00  0.00    -0.305 N 
ATOM      4  H   UNL     1       0.124   1.598  -0.212  0.00  0.00    +0.149 HD
ATOM      5  O   UNL     1       1.379   1.268   1.687  0.00  0.00    -0.270 OA
BRANCH   2  12
ATOM      6  C   UNL     1       3.566   1.824   3.608  0.00  0.00    +0.048 C 
ATOM      7  C   UNL     1       3.104   3.161   3.033  0.00  0.00    +0.003 A 
ATOM      8  C   UNL     1       4.055   4.365   3.810  0.00  0.00    +0.120 A 
ATOM      9  C   UNL     1       3.623   5.987   3.656  0.00  0.00    +0.046 A 
ATOM     10  C   UNL     1       1.991   6.561   2.583  0.00  0.00    +0.004 A 
ATOM     11  C   UNL     1       0.984   5.275   1.886  0.00  0.00    +0.013 A 
ATOM     12  C   UNL     1       1.608   3.548   2.084  0.00  0.00    +0.043 A 
BRANCH   8  13
ATOM     13  O   UNL     1       4.878   4.059   4.862  0.00  0.00    -0.506 OA
ATOM     14  H   UNL     1       4.895   4.849   5.434  0.00  0.00    +0.292 HD
ENDBRANCH   8  13
ENDBRANCH   2  12
ENDBRANCH   1   3
BRANCH   1  15
ATOM     15  C   UNL     1      -2.024   3.262   0.048  0.00  0.00    +0.149 C 
BRANCH  15  16
ATOM     16  O   UNL     1      -2.475   2.128  -0.707  0.00  0.00    -0.389 OA
ATOM     17  H   UNL     1      -1.752   1.477  -0.747  0.00  0.00    +0.210 HD
ENDBRANCH  15  16
BRANCH  15  18
ATOM     18  C   UNL     1      -2.983   4.447  -0.089  0.00  0.00    +0.118 C 
BRANCH  18  19
ATOM     19  N   UNL     1      -4.338   4.075   0.310  0.00  0.00    -0.289 NA
ATOM     20  C   UNL     1      -5.400   5.035  -0.067  0.00  0.00    +0.143 C 
ATOM     21  C   UNL     1      -5.556   6.194   0.937  0.00  0.00    +0.032 C 
ATOM     22  C   UNL     1      -5.716   5.699   2.384  0.00  0.00    -0.005 C 
ATOM     23  C   UNL     1      -4.578   4.763   2.777  0.00  0.00    +0.006 C 
ATOM     24  C   UNL     1      -3.263   5.470   3.172  0.00  0.00    +0.005 C 
ATOM     25  C   UNL     1      -3.266   7.001   3.308  0.00  0.00    +0.000 C 
ATOM     26  C   UNL     1      -4.609   7.725   3.389  0.00  0.00    +0.000 C 
ATOM     27  C   UNL     1      -5.815   6.807   3.428  0.00  0.00    +0.004 C 
ATOM     28  C   UNL     1      -4.464   3.650   1.717  0.00  0.00    +0.089 C 
BRANCH  20  29
ATOM     29  C   UNL     1      -5.315   5.585  -1.526  0.00  0.00    +0.231 C 
ATOM     30  N   UNL     1      -5.183   4.638  -2.529  0.00  0.00    -0.309 N 
ATOM     31  H   UNL     1      -4.821   3.734  -2.232  0.00  0.00    +0.149 HD
ATOM     32  O   UNL     1      -5.462   6.784  -1.765  0.00  0.00    -0.274 OA
BRANCH  30  33
ATOM     33  C   UNL     1      -5.271   4.933  -3.980  0.00  0.00    +0.026 C 
ATOM     34  C   UNL     1      -6.639   5.534  -4.340  0.00  0.00    +0.031 C 
ATOM     35  C   UNL     1      -5.093   3.628  -4.779  0.00  0.00    +0.031 C 
ATOM     36  C   UNL     1      -4.191   5.912  -4.445  0.00  0.00    +0.031 C 
ENDBRANCH  30  33
ENDBRANCH  20  29
ENDBRANCH  18  19
ENDBRANCH  15  18
ENDBRANCH   1  15
BRANCH   1  37
ATOM     37  C   UNL     1      -0.395   3.982  -1.911  0.00  0.00    +0.099 C 
BRANCH  37  38
ATOM     38  S   UNL     1      -0.791   5.479  -3.137  0.00  0.00    -0.123 S 
BRANCH  38  39
ATOM     39  C   UNL     1      -0.790   7.170  -2.486  0.00  0.00    +0.008 A 
ATOM     40  C   UNL     1      -1.906   7.976  -2.779  0.00  0.00    +0.015 A 
ATOM     41  C   UNL     1      -2.595   8.552  -1.718  0.00  0.00    +0.001 A 
ATOM     42  C   UNL     1      -2.058   8.433  -0.444  0.00  0.00    +0.000 A 
ATOM     43  C   UNL     1      -0.734   8.011  -0.295  0.00  0.00    +0.001 A 
ATOM     44  C   UNL     1      -0.046   7.480  -1.375  0.00  0.00    +0.015 A 
ENDBRANCH  38  39
ENDBRANCH  37  38
ENDBRANCH   1  37
TORSDOF 12
REMARK  Name = 
REMARK  23 active torsions:
REMARK  status: ('A' for Active; 'I' for Inactive)
REMARK    1  A    between atoms: C_1  and  C_2
REMARK    2  A    between atoms: C_3  and  C_9
REMARK    3  A    between atoms: C_7  and  O_8
REMARK    4  A    between atoms: N_11  and  C_12
REMARK    5  A    between atoms: C_12  and  C_14
REMARK    6  A    between atoms: C_12  and  C_22
REMARK    7  A    between atoms: C_14  and  S_15
REMARK    8  A    between atoms: S_15  and  C_16
REMARK    9  A    between atoms: C_22  and  C_24
REMARK   10  A    between atoms: C_22  and  O_45
REMARK   11  A    between atoms: C_24  and  N_25
REMARK   12  A    between atoms: C_36  and  C_38
REMARK   13  A    between atoms: N_40  and  C_41
REMARK   14  A    between atoms: C_41  and  C_42
REMARK   15  A    between atoms: C_41  and  C_43
REMARK   16  A    between atoms: C_41  and  C_44
REMARK   17  A    between atoms: C_46  and  N_47
REMARK   18  A    between atoms: N_47  and  C_48
REMARK   19  A    between atoms: N_47  and  S_71
REMARK   20  A    between atoms: N_51  and  C_63
REMARK   21  A    between atoms: C_55  and  O_62
REMARK   22  A    between atoms: C_63  and  C_64
REMARK   23  A    between atoms: S_71  and  C_74
REMARK                            x       y       z     vdW  Elec       q    Type
REMARK                         _______ _______ _______ _____ _____    ______ ____
ROOT
ATOM      1  C   UNL     1       3.627   0.660  -1.707  0.00  0.00    +0.065 A 
ATOM      2  C   UNL     1       4.307   0.197  -2.854  0.00  0.00    +0.027 A 
ATOM      3  C   UNL     1       4.471  -1.165  -3.120  0.00  0.00    +0.013 A 
ATOM      4  C   UNL     1       5.321  -1.595  -4.123  0.00  0.00    +0.020 A 
ATOM      5  C   UNL     1       6.001  -0.642  -4.846  0.00  0.00    +0.111 A 
ATOM      6  N   UNL     1       5.802   0.683  -4.708  0.00  0.00    -0.251 NA
ATOM      7  C   UNL     1       4.942   1.119  -3.766  0.00  0.00    +0.115 A 
ATOM      8  C   UNL     1       4.692   2.497  -3.652  0.00  0.00    +0.155 A 
ATOM      9  C   UNL     1       3.970   2.923  -2.572  0.00  0.00    +0.087 A 
ATOM     10  C   UNL     1       3.481   4.240  -2.102  0.00  0.00    +0.251 C 
ATOM     11  O   UNL     1       3.003   5.078  -2.843  0.00  0.00    -0.270 OA
ATOM     12  N   UNL     1       3.472   4.173  -0.689  0.00  0.00    -0.289 N 
ATOM     13  C   UNL     1       3.208   2.804  -0.412  0.00  0.00    +0.146 C 
ATOM     14  C   UNL     1       3.627   2.030  -1.572  0.00  0.00    +0.009 A 
ENDROOT
BRANCH   1  16
ATOM     15  C   UNL     1       4.452  -0.621   0.212  0.00  0.00    +0.157 C 
ATOM     16  N   UNL     1       3.252  -0.147  -0.512  0.00  0.00    -0.210 N 
BRANCH  16  17
ATOM     17  S   UNL     1       1.816  -1.085  -0.566  0.00  0.00    +0.042 S 
ATOM     18  C   UNL     1       1.385  -1.786   1.061  0.00  0.00    +0.218 C 
ATOM     19  O   UNL     1       2.075  -2.246  -1.393  0.00  0.00    -0.155 OA
ATOM     20  O   UNL     1       0.733  -0.180  -0.926  0.00  0.00    -0.155 OA
ENDBRANCH  16  17
ENDBRANCH   1  16
BRANCH   8  21
ATOM     21  O   UNL     1       5.248   3.381  -4.539  0.00  0.00    -0.504 OA
ATOM     22  H   UNL     1       4.995   4.294  -4.309  0.00  0.00    +0.292 HD
ENDBRANCH   8  21
BRANCH  12  23
ATOM     23  C   UNL     1       2.769   5.116   0.168  0.00  0.00    +0.143 C 
BRANCH  23  24
ATOM     24  C   UNL     1       3.156   5.213   1.927  0.00  0.00    -0.030 A 
ATOM     25  C   UNL     1       2.039   4.999   3.614  0.00  0.00    +0.008 A 
ATOM     26  C   UNL     1       1.813   6.393   4.740  0.00  0.00    +0.038 A 
ATOM     27  C   UNL     1       2.661   7.857   4.359  0.00  0.00    +0.123 A 
ATOM     28  F   UNL     1       2.829   8.730   5.372  0.00  0.00    -0.205 F 
ATOM     29  C   UNL     1       3.733   8.073   2.942  0.00  0.00    +0.038 A 
ATOM     30  C   UNL     1       3.997   6.812   1.740  0.00  0.00    +0.008 A 
ENDBRANCH  23  24
ENDBRANCH  12  23
TORSDOF 5
