REMARK  Name = 
REMARK  1 active torsions:
REMARK  status: ('A' for Active; 'I' for Inactive)
REMARK    1  A    between atoms: C_7  and  N_9
REMARK                            x       y       z     vdW  Elec       q    Type
REMARK                         _______ _______ _______ _____ _____    ______ ____
ROOT
ATOM      1  C   UNL     1       0.828   1.232  -0.082  0.00  0.00    +0.216 C 
ATOM      2  N   UNL     1       1.439  -0.009   0.395  0.00  0.00    -0.216 N 
ATOM      3  C   UNL     1       2.660  -0.018   0.993  0.00  0.00    +0.419 C 
ATOM      4  N   UNL     1       2.789   0.589   2.135  0.00  0.00    -0.128 NA
ATOM      5  H   UNL     1       1.849   0.927   2.357  0.00  0.00    +0.306 HD
ATOM      6  C   UNL     1       0.820  -1.202  -0.174  0.00  0.00    +0.216 C 
ATOM      7  C   UNL     1      -0.672  -1.168   0.214  0.00  0.00    +0.195 C 
ATOM      8  O   UNL     1      -1.313   0.039  -0.247  0.00  0.00    -0.374 OA
ATOM      9  C   UNL     1      -0.661   1.206   0.289  0.00  0.00    +0.195 C 
ENDROOT
BRANCH   3  10
ATOM     10  N   UNL     1       3.723  -0.678   0.453  0.00  0.00    -0.006 NA
ATOM     11  C   UNL     1       4.928  -0.288   0.717  0.00  0.00    +0.387 C 
ATOM     12  N   UNL     1       5.989  -0.915   0.158  0.00  0.00    -0.289 N 
ATOM     13  H   UNL     1       6.822  -0.980   0.723  0.00  0.00    +0.255 HD
ATOM     14  H   UNL     1       5.730  -1.792  -0.279  0.00  0.00    +0.255 HD
ATOM     15  N   UNL     1       5.326   0.754   1.489  0.00  0.00    -0.289 N 
ATOM     16  H   UNL     1       6.117   0.572   2.085  0.00  0.00    +0.255 HD
ATOM     17  H   UNL     1       4.523   1.060   2.054  0.00  0.00    +0.255 HD
ENDBRANCH   3  10
TORSDOF 1
