REMARK  Name = 
REMARK  1 active torsions:
REMARK  status: ('A' for Active; 'I' for Inactive)
REMARK    1  A    between atoms: C_7  and  N_9
REMARK                            x       y       z     vdW  Elec       q    Type
REMARK                         _______ _______ _______ _____ _____    ______ ____
ROOT
ATOM      1  C   UNL     1       0.829   1.233  -0.077  0.00  0.00    +0.216 C 
ATOM      2  N   UNL     1       1.442  -0.006   0.400  0.00  0.00    -0.216 N 
ATOM      3  C   UNL     1       2.664  -0.013   0.995  0.00  0.00    +0.419 C 
ATOM      4  N   UNL     1       2.795   0.594   2.137  0.00  0.00    -0.128 NA
ATOM      5  H   UNL     1       1.856   0.932   2.362  0.00  0.00    +0.306 HD
ATOM      6  C   UNL     1       0.826  -1.201  -0.169  0.00  0.00    +0.216 C 
ATOM      7  C   UNL     1      -0.665  -1.171   0.221  0.00  0.00    +0.195 C 
ATOM      8  O   UNL     1      -1.309   0.035  -0.239  0.00  0.00    -0.374 OA
ATOM      9  C   UNL     1      -0.658   1.204   0.295  0.00  0.00    +0.195 C 
ENDROOT
BRANCH   3  10
ATOM     10  N   UNL     1       3.727  -0.675   0.458  0.00  0.00    -0.006 NA
ATOM     11  C   UNL     1       4.931  -0.276   0.709  0.00  0.00    +0.387 C 
ATOM     12  N   UNL     1       5.991  -0.908   0.153  0.00  0.00    -0.289 N 
ATOM     13  H   UNL     1       6.817  -0.978   0.727  0.00  0.00    +0.255 HD
ATOM     14  H   UNL     1       5.725  -1.786  -0.271  0.00  0.00    +0.255 HD
ATOM     15  N   UNL     1       5.327   0.781   1.459  0.00  0.00    -0.289 N 
ATOM     16  H   UNL     1       6.149   0.637   2.024  0.00  0.00    +0.255 HD
ATOM     17  H   UNL     1       4.537   1.082   2.044  0.00  0.00    +0.255 HD
ENDBRANCH   3  10
TORSDOF 1
