REMARK  Name = 
REMARK  19 active torsions:
REMARK  status: ('A' for Active; 'I' for Inactive)
REMARK    1  A    between atoms: C_1  and  C_2
REMARK    2  A    between atoms: C_2  and  C_3
REMARK    3  A    between atoms: C_2  and  C_4
REMARK    4  A    between atoms: C_4  and  C_6
REMARK    5  A    between atoms: C_4  and  N_66
REMARK    6  A    between atoms: C_12  and  C_14
REMARK    7  A    between atoms: C_17  and  C_19
REMARK    8  A    between atoms: C_26  and  C_60
REMARK    9  A    between atoms: C_35  and  C_37
REMARK   10  A    between atoms: C_40  and  C_42
REMARK   11  A    between atoms: C_48  and  C_50
REMARK   12  A    between atoms: C_50  and  C_52
REMARK   13  A    between atoms: C_50  and  N_55
REMARK   14  A    between atoms: C_52  and  C_53
REMARK   15  A    between atoms: C_52  and  C_54
REMARK   16  A    between atoms: C_56  and  O_58
REMARK   17  A    between atoms: O_58  and  C_59
REMARK   18  A    between atoms: C_67  and  O_69
REMARK   19  A    between atoms: O_69  and  C_70
REMARK                            x       y       z     vdW  Elec       q    Type
REMARK                         _______ _______ _______ _____ _____    ______ ____
ROOT
ATOM      1  C   UNL     1      -8.389  -7.081  25.342  0.00  0.00    +0.000 A 
ATOM      2  C   UNL     1      -8.242  -5.978  26.195  0.00  0.00    +0.012 A 
ATOM      3  C   UNL     1      -7.341  -4.939  25.920  0.00  0.00    +0.027 A 
ATOM      4  C   UNL     1      -6.573  -5.032  24.753  0.00  0.00    +0.053 A 
ATOM      5  N   UNL     1      -5.654  -4.177  24.184  0.00  0.00    -0.300 N 
ATOM      6  C   UNL     1      -5.167  -4.697  23.006  0.00  0.00    +0.057 A 
ATOM      7  C   UNL     1      -5.787  -5.908  22.801  0.00  0.00    +0.036 A 
ATOM      8  C   UNL     1      -4.222  -3.893  22.254  0.00  0.00    +0.040 A 
ATOM      9  C   UNL     1      -3.975  -4.086  20.900  0.00  0.00    +0.014 A 
ATOM     10  C   UNL     1      -3.119  -3.211  20.224  0.00  0.00    +0.011 A 
ATOM     11  C   UNL     1      -2.468  -2.158  20.892  0.00  0.00    +0.003 A 
ATOM     12  C   UNL     1      -2.696  -1.992  22.265  0.00  0.00    +0.056 A 
ATOM     13  C   UNL     1      -3.599  -2.830  22.924  0.00  0.00    +0.133 A 
ATOM     14  O   UNL     1      -3.881  -2.560  24.250  0.00  0.00    -0.464 OA
ATOM     15  C   UNL     1      -5.276  -2.818  24.602  0.00  0.00    +0.308 C 
ATOM     16  C   UNL     1      -6.686  -6.123  23.883  0.00  0.00    +0.001 A 
ATOM     17  C   UNL     1      -7.604  -7.150  24.183  0.00  0.00    +0.020 A 
ENDROOT
BRANCH   1  21
ATOM     18  C   UNL     1     -10.624  -9.532  26.847  0.00  0.00    +0.128 A 
ATOM     19  N   UNL     1      -9.680  -8.536  26.912  0.00  0.00    -0.340 N 
ATOM     20  H   UNL     1      -9.283  -8.168  27.764  0.00  0.00    +0.167 HD
ATOM     21  C   UNL     1      -9.347  -8.144  25.639  0.00  0.00    +0.066 A 
ATOM     22  C   UNL     1     -10.072  -9.010  24.842  0.00  0.00    +0.139 A 
ATOM     23  N   UNL     1     -10.864  -9.848  25.591  0.00  0.00    -0.238 NA
BRANCH  18  26
ATOM     24  C   UNL     1      -9.568  -9.771  29.911  0.00  0.00    +0.237 C 
ATOM     25  N   UNL     1     -10.771  -9.500  29.287  0.00  0.00    -0.290 N 
ATOM     26  C   UNL     1     -11.302 -10.109  28.065  0.00  0.00    +0.142 C 
ATOM     27  C   UNL     1     -12.794  -9.727  28.063  0.00  0.00    +0.032 C 
ATOM     28  C   UNL     1     -13.001  -8.836  29.290  0.00  0.00    +0.021 C 
ATOM     29  C   UNL     1     -11.608  -8.381  29.679  0.00  0.00    +0.108 C 
ATOM     30  O   UNL     1      -9.118  -9.006  30.770  0.00  0.00    -0.274 OA
BRANCH  24  31
ATOM     31  C   UNL     1      -8.831 -11.093  29.554  0.00  0.00    +0.165 C 
BRANCH  31  32
ATOM     32  N   UNL     1      -7.391 -10.903  29.646  0.00  0.00    -0.270 N 
ATOM     33  H   UNL     1      -6.935 -10.863  30.544  0.00  0.00    +0.153 HD
ATOM     34  C   UNL     1      -6.664 -10.413  28.610  0.00  0.00    +0.401 C 
ATOM     35  O   UNL     1      -7.119 -10.112  27.518  0.00  0.00    -0.226 OA
BRANCH  34  36
ATOM     36  O   UNL     1      -5.369 -10.312  28.978  0.00  0.00    -0.454 OA
ATOM     37  C   UNL     1      -4.500  -9.868  27.935  0.00  0.00    +0.282 C 
ENDBRANCH  34  36
ENDBRANCH  31  32
BRANCH  31  39
ATOM     38  C   UNL     1      -8.687 -13.590  29.986  0.00  0.00    +0.009 C 
ATOM     39  C   UNL     1      -9.312 -12.266  30.445  0.00  0.00    +0.012 C 
ATOM     40  C   UNL     1      -9.018 -12.071  31.939  0.00  0.00    +0.009 C 
ENDBRANCH  31  39
ENDBRANCH  24  31
ENDBRANCH  18  26
ENDBRANCH   1  21
BRANCH  11  41
ATOM     41  C   UNL     1      -1.630  -1.229  20.131  0.00  0.00    +0.066 A 
ATOM     42  N   UNL     1      -1.505   0.118  20.400  0.00  0.00    -0.340 N 
ATOM     43  H   UNL     1      -1.976   0.605  21.148  0.00  0.00    +0.167 HD
ATOM     44  C   UNL     1      -0.862   0.722  19.337  0.00  0.00    +0.128 A 
ATOM     45  N   UNL     1      -0.417  -0.197  18.503  0.00  0.00    -0.238 NA
ATOM     46  C   UNL     1      -0.903  -1.392  18.967  0.00  0.00    +0.139 A 
BRANCH  44  47
ATOM     47  C   UNL     1      -0.929   2.219  19.117  0.00  0.00    +0.142 C 
ATOM     48  N   UNL     1      -0.059   2.659  18.019  0.00  0.00    -0.290 N 
ATOM     49  C   UNL     1       1.202   3.216  17.998  0.00  0.00    +0.237 C 
ATOM     50  O   UNL     1       1.705   3.527  16.905  0.00  0.00    -0.274 OA
ATOM     51  C   UNL     1      -0.808   2.689  16.765  0.00  0.00    +0.108 C 
ATOM     52  C   UNL     1      -2.218   2.228  17.093  0.00  0.00    +0.021 C 
ATOM     53  C   UNL     1      -2.335   2.557  18.578  0.00  0.00    +0.032 C 
BRANCH  49  54
ATOM     54  C   UNL     1       2.091   3.412  19.255  0.00  0.00    +0.165 C 
BRANCH  54  55
ATOM     55  N   UNL     1       1.415   3.762  20.493  0.00  0.00    -0.270 N 
ATOM     56  H   UNL     1       1.374   3.126  21.274  0.00  0.00    +0.153 HD
ATOM     57  C   UNL     1       0.982   5.038  20.707  0.00  0.00    +0.401 C 
ATOM     58  O   UNL     1       1.019   5.940  19.886  0.00  0.00    -0.226 OA
BRANCH  57  59
ATOM     59  O   UNL     1       0.476   5.140  21.959  0.00  0.00    -0.454 OA
ATOM     60  C   UNL     1      -0.078   6.423  22.266  0.00  0.00    +0.282 C 
ENDBRANCH  57  59
ENDBRANCH  54  55
BRANCH  54  61
ATOM     61  C   UNL     1       3.171   2.311  19.408  0.00  0.00    +0.012 C 
ATOM     62  C   UNL     1       2.660   0.992  19.982  0.00  0.00    +0.009 C 
ATOM     63  C   UNL     1       4.357   2.825  20.239  0.00  0.00    +0.009 C 
ENDBRANCH  54  61
ENDBRANCH  49  54
ENDBRANCH  44  47
ENDBRANCH  11  41
BRANCH  15  64
ATOM     64  C   UNL     1      -6.159  -1.711  24.024  0.00  0.00    +0.014 A 
ATOM     65  C   UNL     1      -5.819  -0.366  24.279  0.00  0.00    +0.009 A 
ATOM     66  C   UNL     1      -6.524   0.680  23.681  0.00  0.00    +0.000 A 
ATOM     67  C   UNL     1      -7.586   0.406  22.822  0.00  0.00    +0.000 A 
ATOM     68  C   UNL     1      -7.958  -0.912  22.583  0.00  0.00    +0.000 A 
ATOM     69  C   UNL     1      -7.259  -1.960  23.183  0.00  0.00    +0.009 A 
ENDBRANCH  15  64
TORSDOF 13
