REMARK  Name = 
REMARK  19 active torsions:
REMARK  status: ('A' for Active; 'I' for Inactive)
REMARK    1  A    between atoms: C_1  and  C_2
REMARK    2  A    between atoms: C_2  and  C_3
REMARK    3  A    between atoms: C_2  and  C_4
REMARK    4  A    between atoms: C_4  and  C_6
REMARK    5  A    between atoms: C_4  and  N_66
REMARK    6  A    between atoms: C_12  and  C_14
REMARK    7  A    between atoms: C_17  and  C_19
REMARK    8  A    between atoms: C_26  and  C_60
REMARK    9  A    between atoms: C_35  and  C_37
REMARK   10  A    between atoms: C_40  and  C_42
REMARK   11  A    between atoms: C_48  and  C_50
REMARK   12  A    between atoms: C_50  and  C_52
REMARK   13  A    between atoms: C_50  and  N_55
REMARK   14  A    between atoms: C_52  and  C_53
REMARK   15  A    between atoms: C_52  and  C_54
REMARK   16  A    between atoms: C_56  and  O_58
REMARK   17  A    between atoms: O_58  and  C_59
REMARK   18  A    between atoms: C_67  and  O_69
REMARK   19  A    between atoms: O_69  and  C_70
REMARK                            x       y       z     vdW  Elec       q    Type
REMARK                         _______ _______ _______ _____ _____    ______ ____
ROOT
ATOM      1  C   UNL     1       4.440  15.791   2.028  0.00  0.00    +0.002 A 
ATOM      2  C   UNL     1       5.284  15.813   0.915  0.00  0.00    +0.012 A 
ATOM      3  C   UNL     1       6.494  15.085   0.899  0.00  0.00    +0.027 A 
ATOM      4  C   UNL     1       6.838  14.335   2.036  0.00  0.00    +0.053 A 
ATOM      5  N   UNL     1       7.907  13.506   2.332  0.00  0.00    -0.300 N 
ATOM      6  C   UNL     1       7.762  12.988   3.596  0.00  0.00    +0.057 A 
ATOM      7  C   UNL     1       6.596  13.475   4.131  0.00  0.00    +0.036 A 
ATOM      8  C   UNL     1       8.763  12.078   4.091  0.00  0.00    +0.040 A 
ATOM      9  C   UNL     1       8.513  11.263   5.185  0.00  0.00    +0.014 A 
ATOM     10  C   UNL     1       9.501  10.401   5.629  0.00  0.00    +0.009 A 
ATOM     11  C   UNL     1      10.767  10.363   5.014  0.00  0.00    +0.012 A 
ATOM     12  C   UNL     1      11.009  11.179   3.895  0.00  0.00    +0.054 A 
ATOM     13  C   UNL     1       9.992  12.017   3.422  0.00  0.00    +0.133 A 
ATOM     14  O   UNL     1      10.229  12.802   2.310  0.00  0.00    -0.464 OA
ATOM     15  C   UNL     1       9.041  13.082   1.491  0.00  0.00    +0.308 C 
ATOM     16  C   UNL     1       6.000  14.310   3.159  0.00  0.00    +0.001 A 
ATOM     17  C   UNL     1       4.798  15.035   3.152  0.00  0.00    +0.020 A 
ENDROOT
BRANCH  15  18
ATOM     18  C   UNL     1       8.762  11.872   0.597  0.00  0.00    +0.014 A 
ATOM     19  C   UNL     1       9.807  11.368  -0.205  0.00  0.00    +0.009 A 
ATOM     20  C   UNL     1       9.636  10.212  -0.971  0.00  0.00    +0.000 A 
ATOM     21  C   UNL     1       8.416   9.545  -0.961  0.00  0.00    +0.000 A 
ATOM     22  C   UNL     1       7.364  10.038  -0.195  0.00  0.00    +0.000 A 
ATOM     23  C   UNL     1       7.533  11.192   0.574  0.00  0.00    +0.009 A 
ENDBRANCH  15  18
BRANCH   1  26
ATOM     24  C   UNL     1       1.139  17.184   2.697  0.00  0.00    +0.241 C 
ATOM     25  N   UNL     1       2.344  16.415   3.100  0.00  0.00    -0.254 NA
ATOM     26  C   UNL     1       3.144  16.494   2.090  0.00  0.00    +0.086 C 
ATOM     27  C   UNL     1       2.555  17.350   1.044  0.00  0.00    +0.135 C 
ATOM     28  N   UNL     1       1.397  17.810   1.374  0.00  0.00    -0.261 NA
BRANCH  24  31
ATOM     29  C   UNL     1      -0.777  16.109   0.194  0.00  0.00    +0.237 C 
ATOM     30  N   UNL     1      -0.310  15.557   1.370  0.00  0.00    -0.293 N 
ATOM     31  C   UNL     1      -0.133  16.251   2.656  0.00  0.00    +0.122 C 
ATOM     32  C   UNL     1      -0.045  15.081   3.658  0.00  0.00    +0.028 C 
ATOM     33  C   UNL     1       0.178  13.818   2.810  0.00  0.00    +0.021 C 
ATOM     34  C   UNL     1       0.414  14.311   1.393  0.00  0.00    +0.108 C 
ATOM     35  O   UNL     1      -0.427  15.669  -0.907  0.00  0.00    -0.274 OA
BRANCH  29  36
ATOM     36  C   UNL     1      -1.922  17.154   0.303  0.00  0.00    +0.165 C 
BRANCH  36  37
ATOM     37  N   UNL     1      -1.959  17.930  -0.930  0.00  0.00    -0.270 N 
ATOM     38  H   UNL     1      -1.757  17.449  -1.797  0.00  0.00    +0.153 HD
ATOM     39  C   UNL     1      -1.852  19.284  -0.953  0.00  0.00    +0.401 C 
ATOM     40  O   UNL     1      -1.893  20.017   0.022  0.00  0.00    -0.226 OA
BRANCH  39  41
ATOM     41  O   UNL     1      -1.691  19.695  -2.235  0.00  0.00    -0.454 OA
ATOM     42  C   UNL     1      -1.523  21.106  -2.376  0.00  0.00    +0.282 C 
ENDBRANCH  39  41
ENDBRANCH  36  37
BRANCH  36  44
ATOM     43  C   UNL     1      -4.424  17.424   0.785  0.00  0.00    +0.009 C 
ATOM     44  C   UNL     1      -3.274  16.432   0.570  0.00  0.00    +0.012 C 
ATOM     45  C   UNL     1      -3.665  15.445  -0.539  0.00  0.00    +0.009 C 
ENDBRANCH  36  44
ENDBRANCH  29  36
ENDBRANCH  24  31
ENDBRANCH   1  26
BRANCH  11  46
ATOM     46  C   UNL     1      11.748   9.390   5.594  0.00  0.00    +0.321 C 
ATOM     47  N   UNL     1      12.024   8.214   4.761  0.00  0.00    -0.064 NA
ATOM     48  C   UNL     1      13.300   8.013   4.921  0.00  0.00    +0.357 C 
ATOM     49  N   UNL     1      14.017   9.006   5.553  0.00  0.00    -0.047 NA
ATOM     50  C   UNL     1      13.121   9.863   5.903  0.00  0.00    +0.284 C 
BRANCH  48  51
ATOM     51  C   UNL     1      13.948   6.672   4.560  0.00  0.00    +0.197 C 
ATOM     52  N   UNL     1      13.453   6.164   3.278  0.00  0.00    -0.285 N 
ATOM     53  C   UNL     1      12.259   5.513   3.010  0.00  0.00    +0.237 C 
ATOM     54  O   UNL     1      11.987   5.161   1.855  0.00  0.00    -0.274 OA
ATOM     55  C   UNL     1      14.409   6.449   2.217  0.00  0.00    +0.109 C 
ATOM     56  C   UNL     1      15.575   7.167   2.893  0.00  0.00    +0.021 C 
ATOM     57  C   UNL     1      15.457   6.745   4.351  0.00  0.00    +0.037 C 
BRANCH  53  58
ATOM     58  C   UNL     1      11.258   5.213   4.169  0.00  0.00    +0.165 C 
BRANCH  58  59
ATOM     59  N   UNL     1       9.911   5.504   3.673  0.00  0.00    -0.270 N 
ATOM     60  H   UNL     1       9.745   5.486   2.671  0.00  0.00    +0.153 HD
ATOM     61  C   UNL     1       8.864   5.766   4.491  0.00  0.00    +0.401 C 
ATOM     62  O   UNL     1       8.918   5.794   5.716  0.00  0.00    -0.226 OA
BRANCH  61  63
ATOM     63  O   UNL     1       7.737   5.955   3.761  0.00  0.00    -0.454 OA
ATOM     64  C   UNL     1       6.544   6.162   4.524  0.00  0.00    +0.282 C 
ENDBRANCH  61  63
ENDBRANCH  58  59
BRANCH  58  65
ATOM     65  C   UNL     1      11.339   3.779   4.760  0.00  0.00    +0.012 C 
ATOM     66  C   UNL     1      12.742   3.404   5.233  0.00  0.00    +0.009 C 
ATOM     67  C   UNL     1      10.756   2.690   3.852  0.00  0.00    +0.009 C 
ENDBRANCH  58  65
ENDBRANCH  53  58
ENDBRANCH  48  51
ENDBRANCH  11  46
TORSDOF 13
