REMARK  Name = 
REMARK  12 active torsions:
REMARK  status: ('A' for Active; 'I' for Inactive)
REMARK    1  A    between atoms: C_1  and  C_2
REMARK    2  A    between atoms: N_4  and  C_5
REMARK    3  A    between atoms: C_7  and  N_26
REMARK    4  A    between atoms: C_10  and  C_23
REMARK    5  A    between atoms: C_12  and  C_14
REMARK    6  A    between atoms: C_14  and  C_16
REMARK    7  A    between atoms: C_14  and  O_21
REMARK    8  A    between atoms: C_16  and  C_18
REMARK    9  A    between atoms: C_16  and  O_20
REMARK   10  A    between atoms: C_18  and  O_19
REMARK   11  A    between atoms: O_21  and  C_22
REMARK   12  A    between atoms: C_23  and  O_25
REMARK                            x       y       z     vdW  Elec       q    Type
REMARK                         _______ _______ _______ _____ _____    ______ ____
ROOT
ATOM      1  C   UNL     1       5.029  -0.545   1.239  0.00  0.00    +0.161 C 
ATOM      2  C   UNL     1       5.089  -0.265  -0.293  0.00  0.00    +0.229 C 
ATOM      3  O   UNL     1       5.993  -1.079  -1.054  0.00  0.00    -0.477 OA
ATOM      4  C   UNL     1       6.307  -2.335  -0.600  0.00  0.00    +0.204 C 
ATOM      5  C   UNL     1       5.952  -2.822   0.591  0.00  0.00    +0.071 C 
ATOM      6  C   UNL     1       5.200  -2.040   1.604  0.00  0.00    +0.238 C 
ENDROOT
BRANCH   6   7
ATOM      7  N   UNL     1       3.873  -2.629   1.785  0.00  0.00    -0.104 NA
ATOM      8  C   UNL     1       3.688  -3.543   2.659  0.00  0.00    +0.377 C 
ATOM      9  N   UNL     1       2.448  -4.042   2.849  0.00  0.00    -0.289 N 
ATOM     10  H   UNL     1       2.441  -5.051   2.942  0.00  0.00    +0.255 HD
ATOM     11  H   UNL     1       1.826  -3.743   2.106  0.00  0.00    +0.255 HD
ATOM     12  N   UNL     1       4.553  -4.164   3.490  0.00  0.00    -0.289 N 
ATOM     13  H   UNL     1       4.163  -4.363   4.405  0.00  0.00    +0.255 HD
ATOM     14  H   UNL     1       5.485  -3.779   3.562  0.00  0.00    +0.255 HD
ENDBRANCH   6   7
BRANCH   1  17
ATOM     15  C   UNL     1       5.045   0.058   4.203  0.00  0.00    +0.109 C 
ATOM     16  C   UNL     1       6.037   0.674   3.250  0.00  0.00    +0.210 C 
ATOM     17  N   UNL     1       6.027   0.297   1.940  0.00  0.00    -0.305 N 
ATOM     18  H   UNL     1       6.742   0.762   1.392  0.00  0.00    +0.149 HD
ATOM     19  O   UNL     1       6.880   1.487   3.630  0.00  0.00    -0.276 OA
ENDBRANCH   1  17
BRANCH   4  20
ATOM     20  C   UNL     1       7.096  -3.220  -1.513  0.00  0.00    +0.372 C 
ATOM     21  O   UNL     1       7.741  -4.193  -1.169  0.00  0.00    -0.242 OA
BRANCH  20  22
ATOM     22  O   UNL     1       6.994  -2.800  -2.791  0.00  0.00    -0.475 OA
ATOM     23  H   UNL     1       6.371  -2.036  -2.855  0.00  0.00    +0.296 HD
ENDBRANCH  20  22
ENDBRANCH   4  20
BRANCH   2  24
ATOM     24  C   UNL     1       3.685  -0.170  -0.965  0.00  0.00    +0.191 C 
BRANCH  24  25
ATOM     25  O   UNL     1       2.932   0.790  -0.194  0.00  0.00    -0.373 OA
ATOM     26  C   UNL     1       1.563   0.920  -0.546  0.00  0.00    +0.194 C 
ENDBRANCH  24  25
BRANCH  24  27
ATOM     27  C   UNL     1       3.756   0.254  -2.459  0.00  0.00    +0.172 C 
BRANCH  27  28
ATOM     28  O   UNL     1       4.445  -0.714  -3.269  0.00  0.00    -0.387 OA
ATOM     29  H   UNL     1       4.461  -0.309  -4.162  0.00  0.00    +0.210 HD
ENDBRANCH  27  28
BRANCH  27  30
ATOM     30  C   UNL     1       4.409   1.629  -2.672  0.00  0.00    +0.189 C 
BRANCH  30  31
ATOM     31  O   UNL     1       4.235   2.000  -4.042  0.00  0.00    -0.392 OA
ATOM     32  H   UNL     1       4.450   2.949  -4.103  0.00  0.00    +0.210 HD
ENDBRANCH  30  31
ENDBRANCH  27  30
ENDBRANCH  24  27
ENDBRANCH   2  24
TORSDOF 10
