REMARK  Name = 
REMARK  14 active torsions:
REMARK  status: ('A' for Active; 'I' for Inactive)
REMARK    1  A    between atoms: C_1  and  C_2
REMARK    2  A    between atoms: N_4  and  C_5
REMARK    3  A    between atoms: C_5  and  C_7
REMARK    4  A    between atoms: C_5  and  C_14
REMARK    5  A    between atoms: C_7  and  C_8
REMARK    6  A    between atoms: C_14  and  C_15
REMARK    7  A    between atoms: C_15  and  C_17
REMARK    8  A    between atoms: C_15  and  O_36
REMARK    9  A    between atoms: C_17  and  C_19
REMARK   10  A    between atoms: C_17  and  N_26
REMARK   11  A    between atoms: C_19  and  C_20
REMARK   12  A    between atoms: C_27  and  O_29
REMARK   13  A    between atoms: O_29  and  C_30
REMARK   14  A    between atoms: C_30  and  C_31
REMARK                            x       y       z     vdW  Elec       q    Type
REMARK                         _______ _______ _______ _____ _____    ______ ____
ROOT
ATOM      1  C   UNL     1       7.800  -0.191   2.239  0.00  0.00    +0.109 C 
ENDROOT
BRANCH   1   2
ATOM      2  N   UNL     1       7.785   0.759   1.116  0.00  0.00    -0.275 N 
ATOM      3  H   UNL     1       7.137   0.600   0.358  0.00  0.00    +0.152 HD
ATOM      4  C   UNL     1       8.396   1.971   1.102  0.00  0.00    +0.401 C 
ATOM      5  O   UNL     1       9.114   2.415   1.991  0.00  0.00    -0.226 OA
BRANCH   4   6
ATOM      6  O   UNL     1       8.096   2.613  -0.052  0.00  0.00    -0.445 OA
BRANCH   6   7
ATOM      7  C   UNL     1       8.707   3.900  -0.220  0.00  0.00    +0.278 C 
BRANCH   7   8
ATOM      8  C   UNL     1       7.843   4.913   0.448  0.00  0.00    +0.046 A 
ATOM      9  S   UNL     1       6.553   5.685  -0.374  0.00  0.00    -0.077 S 
ATOM     10  C   UNL     1       6.177   6.547   1.062  0.00  0.00    +0.156 A 
ATOM     11  N   UNL     1       6.952   6.314   2.097  0.00  0.00    -0.255 NA
ATOM     12  C   UNL     1       7.904   5.375   1.749  0.00  0.00    +0.125 A 
ENDBRANCH   7   8
ENDBRANCH   6   7
ENDBRANCH   4   6
ENDBRANCH   1   2
BRANCH   1  13
ATOM     13  C   UNL     1       6.966   0.333   3.445  0.00  0.00    +0.137 C 
BRANCH  13  14
ATOM     14  O   UNL     1       5.718   0.862   2.976  0.00  0.00    -0.390 OA
ATOM     15  H   UNL     1       5.272   1.285   3.730  0.00  0.00    +0.210 HD
ENDBRANCH  13  14
BRANCH  13  16
ATOM     16  C   UNL     1       6.698  -0.696   4.571  0.00  0.00    +0.055 C 
BRANCH  16  17
ATOM     17  C   UNL     1       5.853  -1.976   4.266  0.00  0.00    +0.080 C 
BRANCH  17  20
ATOM     18  C   UNL     1       6.496  -4.095   7.374  0.00  0.00    +0.109 C 
ATOM     19  C   UNL     1       6.739  -3.537   5.994  0.00  0.00    +0.210 C 
ATOM     20  N   UNL     1       5.723  -2.738   5.523  0.00  0.00    -0.312 N 
ATOM     21  H   UNL     1       4.984  -2.478   6.163  0.00  0.00    +0.149 HD
ATOM     22  O   UNL     1       7.774  -3.747   5.376  0.00  0.00    -0.276 OA
ENDBRANCH  17  20
BRANCH  17  23
ATOM     23  C   UNL     1       4.464  -1.611   3.695  0.00  0.00    +0.057 C 
BRANCH  23  24
ATOM     24  C   UNL     1       3.409  -2.629   3.324  0.00  0.00    -0.046 A 
ATOM     25  C   UNL     1       2.223  -2.108   2.763  0.00  0.00    +0.004 A 
ATOM     26  C   UNL     1       1.159  -2.933   2.410  0.00  0.00    +0.000 A 
ATOM     27  C   UNL     1       1.261  -4.303   2.610  0.00  0.00    +0.000 A 
ATOM     28  C   UNL     1       2.439  -4.840   3.136  0.00  0.00    +0.000 A 
ATOM     29  C   UNL     1       3.513  -4.010   3.485  0.00  0.00    +0.004 A 
ENDBRANCH  23  24
ENDBRANCH  17  23
ENDBRANCH  16  17
ENDBRANCH  13  16
ENDBRANCH   1  13
BRANCH   1  30
ATOM     30  C   UNL     1       9.242  -0.567   2.658  0.00  0.00    +0.060 C 
BRANCH  30  31
ATOM     31  C   UNL     1      10.056  -1.214   1.559  0.00  0.00    -0.046 A 
ATOM     32  C   UNL     1       9.702  -2.477   1.069  0.00  0.00    +0.004 A 
ATOM     33  C   UNL     1      10.471  -3.096   0.084  0.00  0.00    +0.000 A 
ATOM     34  C   UNL     1      11.606  -2.462  -0.418  0.00  0.00    +0.000 A 
ATOM     35  C   UNL     1      11.969  -1.205   0.060  0.00  0.00    +0.000 A 
ATOM     36  C   UNL     1      11.197  -0.581   1.043  0.00  0.00    +0.004 A 
ENDBRANCH  30  31
ENDBRANCH   1  30
TORSDOF 13
