REMARK  Name = 
REMARK  5 active torsions:
REMARK  status: ('A' for Active; 'I' for Inactive)
REMARK    1  A    between atoms: C_1  and  C_2
REMARK    2  A    between atoms: N_4  and  C_10
REMARK    3  A    between atoms: C_14  and  O_21
REMARK    4  A    between atoms: C_16  and  C_19
REMARK    5  A    between atoms: C_19  and  O_20
REMARK                            x       y       z     vdW  Elec       q    Type
REMARK                         _______ _______ _______ _____ _____    ______ ____
ROOT
ATOM      1  C   UNL     1       5.412   2.415  -0.391  0.00  0.00    +0.260 C 
ATOM      2  O   UNL     1       6.504   2.516   0.548  0.00  0.00    -0.345 OA
ATOM      3  C   UNL     1       6.716   3.909   0.865  0.00  0.00    +0.178 C 
ATOM      4  C   UNL     1       5.747   4.732   0.015  0.00  0.00    +0.184 C 
ATOM      5  C   UNL     1       4.655   3.746  -0.328  0.00  0.00    +0.246 C 
ATOM      6  F   UNL     1       3.735   3.724   0.674  0.00  0.00    -0.238 F 
ENDROOT
BRANCH   1  15
ATOM      7  C   UNL     1       4.463  -1.689   2.292  0.00  0.00    +0.051 C 
ATOM      8  C   UNL     1       4.164  -0.722   1.195  0.00  0.00    +0.030 A 
ATOM      9  C   UNL     1       2.958  -0.969   0.371  0.00  0.00    +0.257 A 
ATOM     10  O   UNL     1       2.209  -1.917   0.582  0.00  0.00    -0.267 OA
ATOM     11  N   UNL     1       2.738  -0.080  -0.641  0.00  0.00    -0.275 N 
ATOM     12  H   UNL     1       1.928  -0.240  -1.218  0.00  0.00    +0.173 HD
ATOM     13  C   UNL     1       3.499   1.017  -0.933  0.00  0.00    +0.331 A 
ATOM     14  O   UNL     1       3.209   1.740  -1.885  0.00  0.00    -0.246 OA
ATOM     15  N   UNL     1       4.591   1.235  -0.104  0.00  0.00    -0.271 N 
ATOM     16  C   UNL     1       4.911   0.350   0.910  0.00  0.00    +0.102 A 
ENDBRANCH   1  15
BRANCH   4  17
ATOM     17  O   UNL     1       6.412   5.156  -1.184  0.00  0.00    -0.386 OA
ATOM     18  H   UNL     1       5.826   5.786  -1.642  0.00  0.00    +0.210 HD
ENDBRANCH   4  17
BRANCH   3  19
ATOM     19  C   UNL     1       6.537   4.089   2.378  0.00  0.00    +0.190 C 
BRANCH  19  20
ATOM     20  O   UNL     1       5.221   3.790   2.823  0.00  0.00    -0.392 OA
ATOM     21  H   UNL     1       4.953   2.945   2.416  0.00  0.00    +0.210 HD
ENDBRANCH  19  20
ENDBRANCH   3  19
TORSDOF 4
