REMARK  Name = 
REMARK  5 active torsions:
REMARK  status: ('A' for Active; 'I' for Inactive)
REMARK    1  A    between atoms: C_1  and  C_2
REMARK    2  A    between atoms: N_4  and  C_10
REMARK    3  A    between atoms: C_14  and  O_21
REMARK    4  A    between atoms: C_16  and  C_19
REMARK    5  A    between atoms: C_19  and  O_20
REMARK                            x       y       z     vdW  Elec       q    Type
REMARK                         _______ _______ _______ _____ _____    ______ ____
ROOT
ATOM      1  C   UNL     1       5.448   2.532  -0.290  0.00  0.00    +0.260 C 
ATOM      2  O   UNL     1       6.482   2.635   0.707  0.00  0.00    -0.345 OA
ATOM      3  C   UNL     1       6.700   4.042   0.975  0.00  0.00    +0.178 C 
ATOM      4  C   UNL     1       5.815   4.836   0.005  0.00  0.00    +0.184 C 
ATOM      5  C   UNL     1       4.696   3.862  -0.287  0.00  0.00    +0.246 C 
ATOM      6  F   UNL     1       3.802   3.919   0.740  0.00  0.00    -0.238 F 
ENDROOT
BRANCH   1  15
ATOM      7  C   UNL     1       3.381  -0.850   2.736  0.00  0.00    +0.051 C 
ATOM      8  C   UNL     1       3.628  -0.235   1.396  0.00  0.00    +0.030 A 
ATOM      9  C   UNL     1       2.930  -0.834   0.234  0.00  0.00    +0.257 A 
ATOM     10  O   UNL     1       2.173  -1.792   0.349  0.00  0.00    -0.267 OA
ATOM     11  N   UNL     1       3.170  -0.243  -0.972  0.00  0.00    -0.275 N 
ATOM     12  H   UNL     1       2.681  -0.621  -1.769  0.00  0.00    +0.173 HD
ATOM     13  C   UNL     1       3.932   0.873  -1.183  0.00  0.00    +0.331 A 
ATOM     14  O   UNL     1       3.981   1.395  -2.296  0.00  0.00    -0.246 OA
ATOM     15  N   UNL     1       4.609   1.360  -0.076  0.00  0.00    -0.271 N 
ATOM     16  C   UNL     1       4.428   0.815   1.181  0.00  0.00    +0.102 A 
ENDBRANCH   1  15
BRANCH   4  17
ATOM     17  O   UNL     1       6.542   5.140  -1.190  0.00  0.00    -0.386 OA
ATOM     18  H   UNL     1       6.010   5.761  -1.720  0.00  0.00    +0.210 HD
ENDBRANCH   4  17
BRANCH   3  19
ATOM     19  C   UNL     1       6.344   4.330   2.440  0.00  0.00    +0.190 C 
BRANCH  19  20
ATOM     20  O   UNL     1       7.212   3.646   3.343  0.00  0.00    -0.392 OA
ATOM     21  H   UNL     1       8.126   3.905   3.137  0.00  0.00    +0.210 HD
ENDBRANCH  19  20
ENDBRANCH   3  19
TORSDOF 4
