REMARK  Name = 
REMARK  17 active torsions:
REMARK  status: ('A' for Active; 'I' for Inactive)
REMARK    1  A    between atoms: C_1  and  C_2
REMARK    2  A    between atoms: C_2  and  C_3
REMARK    3  A    between atoms: C_2  and  O_4
REMARK    4  A    between atoms: O_4  and  C_5
REMARK    5  A    between atoms: C_5  and  C_7
REMARK    6  A    between atoms: C_7  and  C_8
REMARK    7  A    between atoms: C_7  and  N_9
REMARK    8  A    between atoms: N_9  and  P_10
REMARK    9  A    between atoms: P_10  and  C_12
REMARK   10  A    between atoms: P_10  and  O_27
REMARK   11  A    between atoms: C_12  and  O_13
REMARK   12  A    between atoms: O_13  and  C_14
REMARK   13  A    between atoms: C_14  and  C_15
REMARK   14  A    between atoms: C_14  and  C_16
REMARK   15  A    between atoms: C_16  and  N_17
REMARK   16  A    between atoms: C_21  and  N_26
REMARK   17  A    between atoms: O_27  and  C_28
REMARK                            x       y       z     vdW  Elec       q    Type
REMARK                         _______ _______ _______ _____ _____    ______ ____
ROOT
ATOM      1  P   UNL     1       7.119  -0.512   4.473  0.00  0.00    +0.345 P 
ATOM      2  O   UNL     1       8.162   0.562   4.332  0.00  0.00    -0.257 OA
ENDROOT
BRANCH   1   3
ATOM      3  N   UNL     1       6.542  -1.092   3.037  0.00  0.00    -0.221 NA
ATOM      4  H   UNL     1       7.285  -1.088   2.343  0.00  0.00    +0.133 HD
BRANCH   3   5
ATOM      5  C   UNL     1       5.333  -0.510   2.432  0.00  0.00    +0.169 C 
ATOM      6  C   UNL     1       4.910  -1.314   1.208  0.00  0.00    +0.036 C 
BRANCH   5   7
ATOM      7  C   UNL     1       5.504   0.960   2.045  0.00  0.00    +0.325 C 
ATOM      8  O   UNL     1       4.599   1.780   2.135  0.00  0.00    -0.249 OA
BRANCH   7   9
ATOM      9  O   UNL     1       6.748   1.216   1.554  0.00  0.00    -0.461 OA
BRANCH   9  11
ATOM     10  C   UNL     1       7.241   3.480   2.322  0.00  0.00    +0.052 C 
ATOM     11  C   UNL     1       6.992   2.570   1.123  0.00  0.00    +0.170 C 
ATOM     12  C   UNL     1       8.218   2.542   0.217  0.00  0.00    +0.052 C 
ENDBRANCH   9  11
ENDBRANCH   7   9
ENDBRANCH   5   7
ENDBRANCH   3   5
ENDBRANCH   1   3
BRANCH   1  13
ATOM     13  O   UNL     1       7.615  -1.770   5.357  0.00  0.00    -0.431 OA
BRANCH  13  14
ATOM     14  C   UNL     1       8.534  -2.699   4.979  0.00  0.00    +0.129 A 
ATOM     15  C   UNL     1       8.353  -3.983   5.494  0.00  0.00    +0.046 A 
ATOM     16  C   UNL     1       9.223  -5.012   5.141  0.00  0.00    +0.004 A 
ATOM     17  C   UNL     1      10.288  -4.747   4.288  0.00  0.00    +0.000 A 
ATOM     18  C   UNL     1      10.493  -3.452   3.804  0.00  0.00    +0.004 A 
ATOM     19  C   UNL     1       9.616  -2.422   4.152  0.00  0.00    +0.046 A 
ENDBRANCH  13  14
ENDBRANCH   1  13
BRANCH   1  20
ATOM     20  C   UNL     1       5.725   0.039   5.513  0.00  0.00    +0.286 C 
BRANCH  20  21
ATOM     21  O   UNL     1       4.798  -1.052   5.566  0.00  0.00    -0.363 OA
BRANCH  21  22
ATOM     22  C   UNL     1       3.678  -0.848   6.430  0.00  0.00    +0.136 C 
ATOM     23  C   UNL     1       2.747   0.189   5.810  0.00  0.00    +0.040 C 
BRANCH  22  24
ATOM     24  C   UNL     1       2.949  -2.197   6.560  0.00  0.00    +0.156 C 
BRANCH  24  25
ATOM     25  N   UNL     1       3.776  -3.200   7.204  0.00  0.00    -0.312 N 
ATOM     26  C   UNL     1       3.942  -3.365   8.550  0.00  0.00    +0.165 A 
ATOM     27  C   UNL     1       4.907  -4.353   8.668  0.00  0.00    +0.147 A 
ATOM     28  C   UNL     1       5.329  -4.668   9.970  0.00  0.00    +0.147 A 
ATOM     29  N   UNL     1       4.759  -4.016  11.009  0.00  0.00    -0.219 NA
ATOM     30  C   UNL     1       3.803  -3.099  10.743  0.00  0.00    +0.225 A 
ATOM     31  N   UNL     1       5.292  -4.816   7.425  0.00  0.00    -0.231 NA
ATOM     32  N   UNL     1       3.339  -2.691   9.543  0.00  0.00    -0.216 NA
ATOM     33  C   UNL     1       4.585  -4.105   6.570  0.00  0.00    +0.201 A 
BRANCH  28  34
ATOM     34  N   UNL     1       6.338  -5.587  10.243  0.00  0.00    -0.341 N 
ATOM     35  H   UNL     1       6.782  -5.392  11.131  0.00  0.00    +0.144 HD
ATOM     36  H   UNL     1       6.947  -5.744   9.447  0.00  0.00    +0.144 HD
ENDBRANCH  28  34
ENDBRANCH  24  25
ENDBRANCH  22  24
ENDBRANCH  21  22
ENDBRANCH  20  21
ENDBRANCH   1  20
TORSDOF 13
