REMARK  Name = 
REMARK  4 active torsions:
REMARK  status: ('A' for Active; 'I' for Inactive)
REMARK    1  A    between atoms: C3*_2  and  O3*_17
REMARK    2  A    between atoms: C4*_3  and  C5*_15
REMARK    3  A    between atoms: C1*_5  and  N_6
REMARK    4  A    between atoms: C5*_15  and  O5*_16
REMARK                            x       y       z     vdW  Elec       q    Type
REMARK                         _______ _______ _______ _____ _____    ______ ____
ROOT
ATOM      1  C2* UNL     1      -0.744  -1.051  -0.291  0.00  0.00    +0.086 C 
ATOM      2  C1* UNL     1       0.762  -0.986  -0.100  0.00  0.00    +0.212 C 
ATOM      3  O4* UNL     1       1.156   0.390  -0.165  0.00  0.00    -0.350 OA
ATOM      4  C4* UNL     1      -0.032   1.215  -0.205  0.00  0.00    +0.174 C 
ATOM      5  C3* UNL     1      -1.178   0.306   0.223  0.00  0.00    +0.150 C 
ENDROOT
BRANCH   2   6
ATOM      6  N   UNL     1       1.545  -1.749  -1.049  0.00  0.00    -0.258 N 
ATOM      7  C   UNL     1       1.909  -3.045  -0.757  0.00  0.00    +0.310 C 
ATOM      8  O   UNL     1       1.499  -3.672   0.213  0.00  0.00    -0.252 OA
ATOM      9  N   UNL     1       2.841  -3.584  -1.609  0.00  0.00    -0.239 N 
ATOM     10  H   UNL     1       3.155  -4.515  -1.371  0.00  0.00    +0.159 HD
ATOM     11  C   UNL     1       3.697  -2.872  -2.422  0.00  0.00    +0.235 C 
ATOM     12  O   UNL     1       4.716  -3.411  -2.851  0.00  0.00    -0.274 OA
ATOM     13  C   UNL     1       3.362  -1.401  -2.619  0.00  0.00    +0.155 C 
ATOM     14  I   UNL     1       3.860  -0.784  -4.593  0.00  0.00    -0.070 I 
ATOM     15  C   UNL     1       1.874  -1.219  -2.364  0.00  0.00    +0.135 C 
ENDBRANCH   2   6
BRANCH   5  16
ATOM     16  O3* UNL     1      -1.287   0.268   1.649  0.00  0.00    -0.389 OA
ATOM     17  H3* UNL     1      -0.394   0.275   2.039  0.00  0.00    +0.210 HD
ENDBRANCH   5  16
BRANCH   4  18
ATOM     18  C5* UNL     1      -0.237   1.777  -1.622  0.00  0.00    +0.190 C 
BRANCH  18  19
ATOM     19  O5* UNL     1       0.893   2.520  -2.065  0.00  0.00    -0.392 OA
ATOM     20  H5* UNL     1       1.213   3.064  -1.326  0.00  0.00    +0.210 HD
ENDBRANCH  18  19
ENDBRANCH   4  18
TORSDOF 4
