REMARK  Name = 
REMARK  12 active torsions:
REMARK  status: ('A' for Active; 'I' for Inactive)
REMARK    1  A    between atoms: C_1  and  C_2
REMARK    2  A    between atoms: C_2  and  C_3
REMARK    3  A    between atoms: C_2  and  C_4
REMARK    4  A    between atoms: C_2  and  C_5
REMARK    5  A    between atoms: C_12  and  C_13
REMARK    6  A    between atoms: N_15  and  C_16
REMARK    7  A    between atoms: C_16  and  C_21
REMARK    8  A    between atoms: C_18  and  C_19
REMARK    9  A    between atoms: N_23  and  S_24
REMARK   10  A    between atoms: S_24  and  C_27
REMARK   11  A    between atoms: C_37  and  O_39
REMARK   12  A    between atoms: O_39  and  C_40
REMARK                            x       y       z     vdW  Elec       q    Type
REMARK                         _______ _______ _______ _____ _____    ______ ____
ROOT
ATOM      1  C   UNL     1       2.765   0.952  -0.547  0.00  0.00    +0.168 C 
ATOM      2  N   UNL     1       1.594   1.827  -0.559  0.00  0.00    -0.269 N 
ATOM      3  H   UNL     1       1.112   2.033  -1.427  0.00  0.00    +0.153 HD
ATOM      4  C   UNL     1       1.132   2.423   0.579  0.00  0.00    +0.401 C 
ATOM      5  O   UNL     1       1.631   2.317   1.687  0.00  0.00    -0.226 OA
ATOM      6  O   UNL     1       0.172   3.343   0.284  0.00  0.00    -0.447 OA
ATOM      7  C   UNL     1       0.635   4.658   0.640  0.00  0.00    +0.182 C 
ATOM      8  C   UNL     1       0.486   5.780  -0.337  0.00  0.00    +0.033 C 
ATOM      9  C   UNL     1       0.667   7.233  -0.046  0.00  0.00    +0.007 C 
ATOM     10  C   UNL     1       1.402   7.862  -1.245  0.00  0.00    +0.000 C 
ATOM     11  C   UNL     1       2.900   8.054  -0.983  0.00  0.00    +0.000 C 
ATOM     12  C   UNL     1       3.701   8.331  -2.261  0.00  0.00    +0.006 C 
ATOM     13  C   UNL     1       3.978   7.051  -3.092  0.00  0.00    +0.061 C 
ATOM     14  C   UNL     1       5.247   7.128  -3.903  0.00  0.00    +0.103 A 
ATOM     15  C   UNL     1       6.260   6.157  -3.931  0.00  0.00    +0.238 A 
ATOM     16  N   UNL     1       7.470   6.440  -4.489  0.00  0.00    -0.210 NA
ATOM     17  C   UNL     1       7.648   7.655  -5.064  0.00  0.00    +0.096 A 
ATOM     18  C   UNL     1       8.881   8.061  -5.591  0.00  0.00    +0.075 A 
ATOM     19  C   UNL     1       9.032   9.294  -6.245  0.00  0.00    +0.122 A 
ATOM     20  C   UNL     1       7.927  10.125  -6.379  0.00  0.00    +0.048 A 
ATOM     21  C   UNL     1       6.722   9.769  -5.787  0.00  0.00    +0.033 A 
ATOM     22  C   UNL     1       6.573   8.564  -5.131  0.00  0.00    +0.090 A 
ATOM     23  O   UNL     1       6.386   5.166  -3.031  0.00  0.00    -0.470 OA
ATOM     24  C   UNL     1       5.859   3.862  -2.934  0.00  0.00    +0.195 C 
ATOM     25  C   UNL     1       6.630   2.503  -2.916  0.00  0.00    +0.078 C 
ATOM     26  C   UNL     1       5.899   1.910  -1.661  0.00  0.00    +0.166 C 
ATOM     27  N   UNL     1       4.461   2.268  -1.855  0.00  0.00    -0.285 N 
ATOM     28  C   UNL     1       4.411   3.349  -2.905  0.00  0.00    +0.153 C 
ATOM     29  N   UNL     1       5.386   8.302  -4.575  0.00  0.00    -0.245 NA
ATOM     30  C   UNL     1       1.768   5.013  -0.295  0.00  0.00    +0.052 C 
ATOM     31  C   UNL     1       3.515   1.225  -1.912  0.00  0.00    +0.237 C 
ATOM     32  O   UNL     1       3.117   0.793  -2.992  0.00  0.00    -0.274 OA
ENDROOT
BRANCH   1  34
ATOM     33  C   UNL     1       3.481  -1.458  -0.052  0.00  0.00    +0.013 C 
ATOM     34  C   UNL     1       2.291  -0.510  -0.237  0.00  0.00    -0.011 C 
ATOM     35  C   UNL     1       1.511  -0.567   1.107  0.00  0.00    +0.013 C 
ATOM     36  C   UNL     1       1.368  -1.061  -1.338  0.00  0.00    +0.013 C 
ENDBRANCH   1  34
BRANCH  26  37
ATOM     37  C   UNL     1       6.364   0.689  -0.861  0.00  0.00    +0.234 C 
ATOM     38  N   UNL     1       7.586   0.150  -1.167  0.00  0.00    -0.299 N 
ATOM     39  H   UNL     1       8.133   0.513  -1.943  0.00  0.00    +0.150 HD
ATOM     40  O   UNL     1       5.762   0.342   0.156  0.00  0.00    -0.274 OA
BRANCH  38  41
ATOM     41  C   UNL     1       8.231  -0.841  -0.307  0.00  0.00    +0.119 C 
ATOM     42  C   UNL     1       9.055  -1.911  -1.038  0.00  0.00    +0.046 C 
ATOM     43  C   UNL     1       7.742  -2.280  -0.401  0.00  0.00    +0.046 C 
BRANCH  41  44
ATOM     44  C   UNL     1       8.748  -0.318   1.036  0.00  0.00    +0.256 C 
ATOM     45  N   UNL     1       7.782   0.042   1.965  0.00  0.00    -0.188 N 
ATOM     46  H   UNL     1       6.780  -0.001   1.748  0.00  0.00    +0.176 HD
ATOM     47  O   UNL     1       9.933  -0.108   1.204  0.00  0.00    -0.272 OA
BRANCH  45  48
ATOM     48  S   UNL     1       8.128   0.578   3.514  0.00  0.00    +0.048 S 
ATOM     49  O   UNL     1       8.358  -0.589   4.335  0.00  0.00    -0.155 OA
ATOM     50  O   UNL     1       7.057   1.509   3.840  0.00  0.00    -0.155 OA
BRANCH  48  51
ATOM     51  C   UNL     1       9.686   1.511   3.514  0.00  0.00    +0.151 C 
ATOM     52  C   UNL     1       9.667   2.843   4.217  0.00  0.00    +0.030 C 
ATOM     53  C   UNL     1       9.661   2.783   2.712  0.00  0.00    +0.030 C 
ENDBRANCH  48  51
ENDBRANCH  45  48
ENDBRANCH  41  44
BRANCH  42  54
ATOM     54  C   UNL     1      10.256  -2.560  -0.501  0.00  0.00    -0.028 C 
ATOM     55  C   UNL     1      10.559  -3.855  -0.662  0.00  0.00    +0.004 C 
ENDBRANCH  42  54
ENDBRANCH  38  41
ENDBRANCH  26  37
BRANCH  19  56
ATOM     56  O   UNL     1      10.274   9.583  -6.747  0.00  0.00    -0.495 OA
ATOM     57  C   UNL     1      10.519  10.963  -7.030  0.00  0.00    +0.277 C 
ENDBRANCH  19  56
TORSDOF 8
