REMARK  Name = 
REMARK  16 active torsions:
REMARK  status: ('A' for Active; 'I' for Inactive)
REMARK    1  A    between atoms: C_1  and  C_2
REMARK    2  A    between atoms: C_2  and  C_4
REMARK    3  A    between atoms: C_2  and  N_10
REMARK    4  A    between atoms: C_4  and  O_6
REMARK    5  A    between atoms: O_6  and  C_7
REMARK    6  A    between atoms: C_7  and  C_8
REMARK    7  A    between atoms: C_7  and  C_9
REMARK    8  A    between atoms: N_10  and  P_11
REMARK    9  A    between atoms: P_11  and  O_13
REMARK   10  A    between atoms: P_11  and  O_31
REMARK   11  A    between atoms: O_13  and  C_14
REMARK   12  A    between atoms: C_14  and  C_15
REMARK   13  A    between atoms: C_16  and  O_30
REMARK   14  A    between atoms: C_17  and  C_28
REMARK   15  A    between atoms: C_18  and  N_20
REMARK   16  A    between atoms: O_31  and  C_32
REMARK                            x       y       z     vdW  Elec       q    Type
REMARK                         _______ _______ _______ _____ _____    ______ ____
ROOT
ATOM      1  O   UNL     1       4.806  -1.119  -2.264  0.00  0.00    -0.284 OA
ENDROOT
BRANCH   1   2
ATOM      2  P   UNL     1       4.740   0.216  -1.299  0.00  0.00    +0.462 P 
ATOM      3  O   UNL     1       3.192   0.216  -1.299  0.00  0.00    -0.228 OA
BRANCH   2   4
ATOM      4  N   UNL     1       4.773  -0.374   0.294  0.00  0.00    -0.199 NA
ATOM      5  H   UNL     1       3.964  -0.989   0.345  0.00  0.00    +0.135 HD
BRANCH   4   7
ATOM      6  C   UNL     1       5.840   1.536   1.522  0.00  0.00    +0.036 C 
ATOM      7  C   UNL     1       4.605   0.649   1.362  0.00  0.00    +0.171 C 
BRANCH   7   8
ATOM      8  C   UNL     1       3.388   1.558   1.128  0.00  0.00    +0.325 C 
ATOM      9  O   UNL     1       3.424   2.576   0.440  0.00  0.00    -0.249 OA
BRANCH   8  10
ATOM     10  O   UNL     1       2.292   1.081   1.781  0.00  0.00    -0.461 OA
BRANCH  10  11
ATOM     11  C   UNL     1       1.094   1.885   1.709  0.00  0.00    +0.170 C 
ATOM     12  C   UNL     1       0.171   1.437   2.839  0.00  0.00    +0.052 C 
ATOM     13  C   UNL     1       0.399   1.697   0.367  0.00  0.00    +0.052 C 
ENDBRANCH  10  11
ENDBRANCH   8  10
ENDBRANCH   7   8
ENDBRANCH   4   7
ENDBRANCH   2   4
BRANCH   2  14
ATOM     14  O   UNL     1       6.470   0.216  -1.299  0.00  0.00    -0.413 OA
BRANCH  14  15
ATOM     15  C   UNL     1       7.167   1.292  -1.780  0.00  0.00    +0.131 A 
ATOM     16  C   UNL     1       8.558   1.177  -1.734  0.00  0.00    +0.046 A 
ATOM     17  C   UNL     1       9.364   2.230  -2.162  0.00  0.00    +0.004 A 
ATOM     18  C   UNL     1       8.779   3.402  -2.638  0.00  0.00    +0.000 A 
ATOM     19  C   UNL     1       7.389   3.515  -2.688  0.00  0.00    +0.004 A 
ATOM     20  C   UNL     1       6.579   2.460  -2.260  0.00  0.00    +0.046 A 
ENDBRANCH  14  15
ENDBRANCH   2  14
ENDBRANCH   1   2
BRANCH   1  21
ATOM     21  C   UNL     1       4.836  -0.865  -3.674  0.00  0.00    +0.206 C 
BRANCH  21  22
ATOM     22  C   UNL     1       3.634  -0.091  -4.253  0.00  0.00    +0.179 C 
ATOM     23  O   UNL     1       3.558   1.234  -3.683  0.00  0.00    -0.345 OA
ATOM     24  C   UNL     1       2.152   1.608  -3.588  0.00  0.00    +0.263 C 
ATOM     25  C   UNL     1       1.325   0.484  -4.235  0.00  0.00    +0.182 C 
ATOM     26  F   UNL     1       1.167   0.748  -5.571  0.00  0.00    -0.235 F 
ATOM     27  C   UNL     1      -0.054   0.278  -3.629  0.00  0.00    +0.055 C 
ATOM     28  C   UNL     1       2.248  -0.728  -4.119  0.00  0.00    +0.187 C 
BRANCH  24  29
ATOM     29  N   UNL     1       1.980   2.953  -4.143  0.00  0.00    -0.271 N 
ATOM     30  C   UNL     1       1.054   3.796  -3.538  0.00  0.00    +0.331 A 
ATOM     31  O   UNL     1       0.298   3.459  -2.631  0.00  0.00    -0.246 OA
ATOM     32  N   UNL     1       1.033   5.086  -4.010  0.00  0.00    -0.275 N 
ATOM     33  H   UNL     1       0.421   5.730  -3.534  0.00  0.00    +0.173 HD
ATOM     34  C   UNL     1       1.877   5.610  -4.946  0.00  0.00    +0.254 A 
ATOM     35  O   UNL     1       1.922   6.803  -5.219  0.00  0.00    -0.268 OA
ATOM     36  C   UNL     1       2.756   4.645  -5.620  0.00  0.00    +0.088 A 
ATOM     37  C   UNL     1       2.770   3.383  -5.192  0.00  0.00    +0.098 A 
ENDBRANCH  24  29
BRANCH  28  38
ATOM     38  O   UNL     1       2.049  -1.473  -2.924  0.00  0.00    -0.386 OA
ATOM     39  H   UNL     1       2.405  -0.948  -2.170  0.00  0.00    +0.210 HD
ENDBRANCH  28  38
ENDBRANCH  21  22
ENDBRANCH   1  21
TORSDOF 12
