REMARK  Name = 
REMARK  34 active torsions:
REMARK  status: ('A' for Active; 'I' for Inactive)
REMARK    1  A    between atoms: C_1  and  C_2
REMARK    2  A    between atoms: C_2  and  C_4
REMARK    3  A    between atoms: C_2  and  N_10
REMARK    4  A    between atoms: C_4  and  O_6
REMARK    5  A    between atoms: O_6  and  C_7
REMARK    6  A    between atoms: C_7  and  C_8
REMARK    7  A    between atoms: C_7  and  C_9
REMARK    8  A    between atoms: N_10  and  P_11
REMARK    9  A    between atoms: P_11  and  O_13
REMARK   10  A    between atoms: P_11  and  O_34
REMARK   11  A    between atoms: O_13  and  C_14
REMARK   12  A    between atoms: C_14  and  C_15
REMARK   13  A    between atoms: C_17  and  O_33
REMARK   14  A    between atoms: C_19  and  C_31
REMARK   15  A    between atoms: C_20  and  N_23
REMARK   16  A    between atoms: O_34  and  C_35
REMARK   17  A    between atoms: C_41  and  C_42
REMARK   18  A    between atoms: C_42  and  C_43
REMARK   19  A    between atoms: C_42  and  C_44
REMARK   20  A    between atoms: C_44  and  C_46
REMARK   21  A    between atoms: C_44  and  N_107
REMARK   22  A    between atoms: C_54  and  C_56
REMARK   23  A    between atoms: C_59  and  C_61
REMARK   24  A    between atoms: C_73  and  C_76
REMARK   25  A    between atoms: C_83  and  C_85
REMARK   26  A    between atoms: C_95  and  C_97
REMARK   27  A    between atoms: C_97  and  C_99
REMARK   28  A    between atoms: C_97  and  N_102
REMARK   29  A    between atoms: C_99  and  C_100
REMARK   30  A    between atoms: C_99  and  C_101
REMARK   31  A    between atoms: C_103  and  O_105
REMARK   32  A    between atoms: O_105  and  C_106
REMARK   33  A    between atoms: C_108  and  O_110
REMARK   34  A    between atoms: O_110  and  C_111
REMARK                            x       y       z     vdW  Elec       q    Type
REMARK                         _______ _______ _______ _____ _____    ______ ____
ROOT
ATOM      1  O   UNL     1       1.374   1.764  -2.498  0.00  0.00    -0.284 OA
ENDROOT
BRANCH   1   2
ATOM      2  P   UNL     1       2.215   0.619  -3.300  0.00  0.00    +0.462 P 
ATOM      3  O   UNL     1       2.773  -0.391  -2.341  0.00  0.00    -0.228 OA
BRANCH   2   4
ATOM      4  N   UNL     1       3.331   1.336  -4.255  0.00  0.00    -0.199 NA
ATOM      5  H   UNL     1       3.966   0.576  -4.493  0.00  0.00    +0.135 HD
BRANCH   4   7
ATOM      6  C   UNL     1       3.551   3.711  -3.479  0.00  0.00    +0.036 C 
ATOM      7  C   UNL     1       4.249   2.416  -3.853  0.00  0.00    +0.171 C 
BRANCH   7   8
ATOM      8  C   UNL     1       5.310   1.928  -2.850  0.00  0.00    +0.325 C 
ATOM      9  O   UNL     1       5.705   0.769  -2.808  0.00  0.00    -0.249 OA
BRANCH   8  10
ATOM     10  O   UNL     1       5.856   2.965  -2.148  0.00  0.00    -0.461 OA
BRANCH  10  11
ATOM     11  C   UNL     1       7.001   2.661  -1.322  0.00  0.00    +0.170 C 
ATOM     12  C   UNL     1       7.045   3.676  -0.184  0.00  0.00    +0.052 C 
ATOM     13  C   UNL     1       8.275   2.762  -2.156  0.00  0.00    +0.052 C 
ENDBRANCH  10  11
ENDBRANCH   8  10
ENDBRANCH   7   8
ENDBRANCH   4   7
ENDBRANCH   2   4
BRANCH   2  14
ATOM     14  O   UNL     1       1.070  -0.027  -4.272  0.00  0.00    -0.413 OA
BRANCH  14  15
ATOM     15  C   UNL     1       1.233  -1.276  -4.829  0.00  0.00    +0.131 A 
ATOM     16  C   UNL     1       2.475  -1.725  -5.272  0.00  0.00    +0.046 A 
ATOM     17  C   UNL     1       2.665  -3.058  -5.630  0.00  0.00    +0.004 A 
ATOM     18  C   UNL     1       1.592  -3.939  -5.613  0.00  0.00    +0.000 A 
ATOM     19  C   UNL     1       0.318  -3.469  -5.290  0.00  0.00    +0.004 A 
ATOM     20  C   UNL     1       0.134  -2.134  -4.902  0.00  0.00    +0.046 A 
ENDBRANCH  14  15
ENDBRANCH   2  14
ENDBRANCH   1   2
BRANCH   1  21
ATOM     21  C   UNL     1       0.850   1.260  -1.272  0.00  0.00    +0.206 C 
BRANCH  21  22
ATOM     22  C   UNL     1      -0.050   2.186  -0.453  0.00  0.00    +0.179 C 
ATOM     23  O   UNL     1      -1.175   2.657  -1.199  0.00  0.00    -0.345 OA
ATOM     24  C   UNL     1      -2.361   1.914  -0.831  0.00  0.00    +0.263 C 
ATOM     25  C   UNL     1      -1.962   0.868   0.236  0.00  0.00    +0.182 C 
ATOM     26  C   UNL     1      -1.880  -0.586  -0.228  0.00  0.00    +0.055 C 
ATOM     27  F   UNL     1      -2.859   0.876   1.268  0.00  0.00    -0.235 F 
ATOM     28  C   UNL     1      -0.619   1.419   0.746  0.00  0.00    +0.187 C 
BRANCH  24  29
ATOM     29  N   UNL     1      -3.015   1.432  -2.059  0.00  0.00    -0.271 N 
ATOM     30  C   UNL     1      -4.291   0.891  -1.946  0.00  0.00    +0.331 A 
ATOM     31  O   UNL     1      -4.893   0.755  -0.884  0.00  0.00    -0.246 OA
ATOM     32  N   UNL     1      -4.879   0.499  -3.122  0.00  0.00    -0.275 N 
ATOM     33  H   UNL     1      -5.809   0.118  -3.053  0.00  0.00    +0.173 HD
ATOM     34  C   UNL     1      -4.429   0.797  -4.374  0.00  0.00    +0.254 A 
ATOM     35  O   UNL     1      -5.083   0.590  -5.389  0.00  0.00    -0.268 OA
ATOM     36  C   UNL     1      -3.098   1.407  -4.442  0.00  0.00    +0.088 A 
ATOM     37  C   UNL     1      -2.460   1.682  -3.305  0.00  0.00    +0.098 A 
ENDBRANCH  24  29
BRANCH  28  38
ATOM     38  O   UNL     1      -0.817   2.340   1.826  0.00  0.00    -0.386 OA
ATOM     39  H   UNL     1       0.051   2.529   2.224  0.00  0.00    +0.210 HD
ENDBRANCH  28  38
ENDBRANCH  21  22
ENDBRANCH   1  21
TORSDOF 12
REMARK  Name = 
REMARK  34 active torsions:
REMARK  status: ('A' for Active; 'I' for Inactive)
REMARK    1  A    between atoms: C_1  and  C_2
REMARK    2  A    between atoms: C_2  and  C_4
REMARK    3  A    between atoms: C_2  and  N_10
REMARK    4  A    between atoms: C_4  and  O_6
REMARK    5  A    between atoms: O_6  and  C_7
REMARK    6  A    between atoms: C_7  and  C_8
REMARK    7  A    between atoms: C_7  and  C_9
REMARK    8  A    between atoms: N_10  and  P_11
REMARK    9  A    between atoms: P_11  and  O_13
REMARK   10  A    between atoms: P_11  and  O_34
REMARK   11  A    between atoms: O_13  and  C_14
REMARK   12  A    between atoms: C_14  and  C_15
REMARK   13  A    between atoms: C_17  and  O_33
REMARK   14  A    between atoms: C_19  and  C_31
REMARK   15  A    between atoms: C_20  and  N_23
REMARK   16  A    between atoms: O_34  and  C_35
REMARK   17  A    between atoms: C_41  and  C_42
REMARK   18  A    between atoms: C_42  and  C_43
REMARK   19  A    between atoms: C_42  and  C_44
REMARK   20  A    between atoms: C_44  and  C_46
REMARK   21  A    between atoms: C_44  and  N_107
REMARK   22  A    between atoms: C_54  and  C_56
REMARK   23  A    between atoms: C_59  and  C_61
REMARK   24  A    between atoms: C_73  and  C_76
REMARK   25  A    between atoms: C_83  and  C_85
REMARK   26  A    between atoms: C_95  and  C_97
REMARK   27  A    between atoms: C_97  and  C_99
REMARK   28  A    between atoms: C_97  and  N_102
REMARK   29  A    between atoms: C_99  and  C_100
REMARK   30  A    between atoms: C_99  and  C_101
REMARK   31  A    between atoms: C_103  and  O_105
REMARK   32  A    between atoms: O_105  and  C_106
REMARK   33  A    between atoms: C_108  and  O_110
REMARK   34  A    between atoms: O_110  and  C_111
REMARK                            x       y       z     vdW  Elec       q    Type
REMARK                         _______ _______ _______ _____ _____    ______ ____
ROOT
ATOM      1  C   UNL     1     -20.679  18.503  -9.837  0.00  0.00    +0.000 A 
ATOM      2  C   UNL     1     -19.579  17.780 -10.351  0.00  0.00    +0.010 A 
ATOM      3  C   UNL     1     -18.270  18.272 -10.266  0.00  0.00    +0.009 A 
ATOM      4  C   UNL     1     -18.069  19.500  -9.664  0.00  0.00    -0.008 A 
ATOM      5  C   UNL     1     -16.869  20.283  -9.485  0.00  0.00    -0.008 A 
ATOM      6  C   UNL     1     -15.564  20.045  -9.868  0.00  0.00    +0.009 A 
ATOM      7  C   UNL     1     -14.604  21.029  -9.597  0.00  0.00    +0.009 A 
ATOM      8  C   UNL     1     -14.922  22.245  -8.932  0.00  0.00    -0.017 A 
ATOM      9  C   UNL     1     -16.254  22.449  -8.538  0.00  0.00    +0.019 A 
ATOM     10  C   UNL     1     -17.204  21.482  -8.828  0.00  0.00    +0.033 A 
ATOM     11  C   UNL     1     -18.690  21.531  -8.539  0.00  0.00    +0.300 C 
ATOM     12  F   UNL     1     -18.961  21.627  -7.207  0.00  0.00    -0.195 F 
ATOM     13  F   UNL     1     -19.298  22.604  -9.120  0.00  0.00    -0.195 F 
ATOM     14  C   UNL     1     -19.160  20.215  -9.129  0.00  0.00    +0.034 A 
ATOM     15  C   UNL     1     -20.458  19.734  -9.206  0.00  0.00    +0.020 A 
ENDROOT
BRANCH   8  16
ATOM     16  C   UNL     1     -13.887  23.269  -8.659  0.00  0.00    -0.016 A 
ATOM     17  C   UNL     1     -14.195  24.649  -8.657  0.00  0.00    +0.011 A 
ATOM     18  C   UNL     1     -13.232  25.641  -8.399  0.00  0.00    +0.030 A 
ATOM     19  C   UNL     1     -11.917  25.240  -8.156  0.00  0.00    +0.089 A 
ATOM     20  N   UNL     1     -10.785  25.983  -7.917  0.00  0.00    -0.231 NA
ATOM     21  C   UNL     1      -9.813  25.103  -7.756  0.00  0.00    +0.129 A 
ATOM     22  N   UNL     1     -10.302  23.828  -7.857  0.00  0.00    -0.340 N 
ATOM     23  H   UNL     1      -9.756  22.992  -7.735  0.00  0.00    +0.167 HD
ATOM     24  C   UNL     1     -11.629  23.886  -8.149  0.00  0.00    +0.067 A 
ATOM     25  C   UNL     1     -12.565  22.882  -8.384  0.00  0.00    +0.036 A 
BRANCH  21  26
ATOM     26  C   UNL     1      -8.360  25.375  -7.520  0.00  0.00    +0.145 C 
ATOM     27  N   UNL     1      -7.539  24.147  -7.636  0.00  0.00    -0.287 N 
ATOM     28  C   UNL     1      -7.487  23.204  -6.631  0.00  0.00    +0.237 C 
ATOM     29  O   UNL     1      -8.270  23.256  -5.671  0.00  0.00    -0.274 OA
ATOM     30  C   UNL     1      -6.607  24.350  -8.756  0.00  0.00    +0.077 C 
ATOM     31  C   UNL     1      -7.449  25.180  -9.727  0.00  0.00    +0.028 C 
ATOM     32  C   UNL     1      -5.544  25.372  -8.320  0.00  0.00    +0.023 C 
ATOM     33  C   UNL     1      -6.343  26.689  -8.277  0.00  0.00    +0.007 C 
ATOM     34  C   UNL     1      -7.765  26.243  -8.666  0.00  0.00    +0.019 C 
BRANCH  28  35
ATOM     35  C   UNL     1      -6.508  22.016  -6.751  0.00  0.00    +0.165 C 
BRANCH  35  36
ATOM     36  N   UNL     1      -6.019  21.695  -5.406  0.00  0.00    -0.270 N 
ATOM     37  H   UNL     1      -6.630  21.845  -4.612  0.00  0.00    +0.153 HD
ATOM     38  C   UNL     1      -4.891  20.955  -5.229  0.00  0.00    +0.401 C 
ATOM     39  O   UNL     1      -4.143  20.623  -6.138  0.00  0.00    -0.226 OA
BRANCH  38  40
ATOM     40  O   UNL     1      -4.747  20.596  -3.934  0.00  0.00    -0.454 OA
ATOM     41  C   UNL     1      -3.644  19.710  -3.724  0.00  0.00    +0.282 C 
ENDBRANCH  38  40
ENDBRANCH  35  36
BRANCH  35  42
ATOM     42  C   UNL     1      -7.068  20.747  -7.450  0.00  0.00    +0.012 C 
ATOM     43  C   UNL     1      -7.641  21.007  -8.842  0.00  0.00    +0.009 C 
ATOM     44  C   UNL     1      -8.082  19.952  -6.616  0.00  0.00    +0.009 C 
ENDBRANCH  35  42
ENDBRANCH  28  35
ENDBRANCH  21  26
ENDBRANCH   8  16
BRANCH   1  48
ATOM     45  C   UNL     1     -24.241  17.777  -9.754  0.00  0.00    +0.128 A 
ATOM     46  N   UNL     1     -23.097  18.298  -9.204  0.00  0.00    -0.340 N 
ATOM     47  H   UNL     1     -23.079  18.883  -8.382  0.00  0.00    +0.167 HD
ATOM     48  C   UNL     1     -22.034  17.996 -10.020  0.00  0.00    +0.066 A 
ATOM     49  C   UNL     1     -22.595  17.195 -10.996  0.00  0.00    +0.139 A 
ATOM     50  N   UNL     1     -23.946  17.053 -10.816  0.00  0.00    -0.238 NA
BRANCH  45  53
ATOM     51  C   UNL     1     -25.936  18.792  -6.821  0.00  0.00    +0.237 C 
ATOM     52  N   UNL     1     -25.577  19.068  -8.136  0.00  0.00    -0.289 N 
ATOM     53  C   UNL     1     -25.624  18.127  -9.271  0.00  0.00    +0.143 C 
ATOM     54  C   UNL     1     -26.338  18.952 -10.360  0.00  0.00    +0.039 C 
ATOM     55  C   UNL     1     -25.854  20.355 -10.078  0.00  0.00    -0.011 C 
ATOM     56  C   UNL     1     -24.971  21.055 -11.092  0.00  0.00    +0.009 C 
ATOM     57  C   UNL     1     -26.372  21.543 -10.855  0.00  0.00    +0.009 C 
ATOM     58  C   UNL     1     -25.559  20.456  -8.604  0.00  0.00    +0.115 C 
ATOM     59  O   UNL     1     -26.293  19.708  -6.078  0.00  0.00    -0.274 OA
BRANCH  51  60
ATOM     60  C   UNL     1     -25.831  17.324  -6.309  0.00  0.00    +0.165 C 
BRANCH  60  61
ATOM     61  N   UNL     1     -24.435  16.921  -6.474  0.00  0.00    -0.270 N 
ATOM     62  H   UNL     1     -23.708  17.510  -6.092  0.00  0.00    +0.153 HD
ATOM     63  C   UNL     1     -24.049  15.640  -6.714  0.00  0.00    +0.401 C 
ATOM     64  O   UNL     1     -24.793  14.714  -6.989  0.00  0.00    -0.226 OA
BRANCH  63  65
ATOM     65  O   UNL     1     -22.705  15.567  -6.569  0.00  0.00    -0.454 OA
ATOM     66  C   UNL     1     -22.158  14.266  -6.792  0.00  0.00    +0.282 C 
ENDBRANCH  63  65
ENDBRANCH  60  61
BRANCH  60  68
ATOM     67  C   UNL     1     -25.409  17.844  -3.803  0.00  0.00    +0.009 C 
ATOM     68  C   UNL     1     -26.265  17.088  -4.830  0.00  0.00    +0.012 C 
ATOM     69  C   UNL     1     -27.751  17.355  -4.573  0.00  0.00    +0.009 C 
ENDBRANCH  60  68
ENDBRANCH  51  60
ENDBRANCH  45  53
ENDBRANCH   1  48
TORSDOF 12
