REMARK  Name = 
REMARK  34 active torsions:
REMARK  status: ('A' for Active; 'I' for Inactive)
REMARK    1  A    between atoms: C_1  and  C_2
REMARK    2  A    between atoms: C_2  and  C_4
REMARK    3  A    between atoms: C_2  and  N_10
REMARK    4  A    between atoms: C_4  and  O_6
REMARK    5  A    between atoms: O_6  and  C_7
REMARK    6  A    between atoms: C_7  and  C_8
REMARK    7  A    between atoms: C_7  and  C_9
REMARK    8  A    between atoms: N_10  and  P_11
REMARK    9  A    between atoms: P_11  and  O_13
REMARK   10  A    between atoms: P_11  and  O_34
REMARK   11  A    between atoms: O_13  and  C_14
REMARK   12  A    between atoms: C_14  and  C_15
REMARK   13  A    between atoms: C_17  and  O_33
REMARK   14  A    between atoms: C_19  and  C_31
REMARK   15  A    between atoms: C_20  and  N_23
REMARK   16  A    between atoms: O_34  and  C_35
REMARK   17  A    between atoms: C_41  and  C_42
REMARK   18  A    between atoms: C_42  and  C_43
REMARK   19  A    between atoms: C_42  and  C_44
REMARK   20  A    between atoms: C_44  and  C_46
REMARK   21  A    between atoms: C_44  and  N_107
REMARK   22  A    between atoms: C_54  and  C_56
REMARK   23  A    between atoms: C_59  and  C_61
REMARK   24  A    between atoms: C_73  and  C_76
REMARK   25  A    between atoms: C_83  and  C_85
REMARK   26  A    between atoms: C_95  and  C_97
REMARK   27  A    between atoms: C_97  and  C_99
REMARK   28  A    between atoms: C_97  and  N_102
REMARK   29  A    between atoms: C_99  and  C_100
REMARK   30  A    between atoms: C_99  and  C_101
REMARK   31  A    between atoms: C_103  and  O_105
REMARK   32  A    between atoms: O_105  and  C_106
REMARK   33  A    between atoms: C_108  and  O_110
REMARK   34  A    between atoms: O_110  and  C_111
REMARK                            x       y       z     vdW  Elec       q    Type
REMARK                         _______ _______ _______ _____ _____    ______ ____
ROOT
ATOM      1  O   UNL     1       1.242  -2.494  -4.422  0.00  0.00    -0.284 OA
ENDROOT
BRANCH   1   2
ATOM      2  P   UNL     1       1.259  -0.884  -4.612  0.00  0.00    +0.462 P 
ATOM      3  O   UNL     1      -0.032  -0.432  -5.232  0.00  0.00    -0.228 OA
BRANCH   2   4
ATOM      4  N   UNL     1       2.534  -0.761  -5.617  0.00  0.00    -0.199 NA
ATOM      5  H   UNL     1       2.503  -1.587  -6.207  0.00  0.00    +0.135 HD
BRANCH   4   7
ATOM      6  C   UNL     1       4.140   0.967  -4.945  0.00  0.00    +0.036 C 
ATOM      7  C   UNL     1       3.939  -0.481  -5.346  0.00  0.00    +0.171 C 
BRANCH   7   8
ATOM      8  C   UNL     1       4.557  -1.450  -4.340  0.00  0.00    +0.325 C 
ATOM      9  O   UNL     1       4.113  -1.645  -3.214  0.00  0.00    -0.249 OA
BRANCH   8  10
ATOM     10  O   UNL     1       5.658  -2.066  -4.864  0.00  0.00    -0.461 OA
BRANCH  10  11
ATOM     11  C   UNL     1       6.355  -2.975  -3.984  0.00  0.00    +0.170 C 
ATOM     12  C   UNL     1       7.761  -3.197  -4.537  0.00  0.00    +0.052 C 
ATOM     13  C   UNL     1       5.609  -4.303  -3.904  0.00  0.00    +0.052 C 
ENDBRANCH  10  11
ENDBRANCH   8  10
ENDBRANCH   7   8
ENDBRANCH   4   7
ENDBRANCH   2   4
BRANCH   2  14
ATOM     14  O   UNL     1       1.448  -0.417  -3.089  0.00  0.00    -0.413 OA
BRANCH  14  15
ATOM     15  C   UNL     1       1.045   0.771  -2.541  0.00  0.00    +0.131 A 
ATOM     16  C   UNL     1       0.744   0.771  -1.174  0.00  0.00    +0.046 A 
ATOM     17  C   UNL     1       0.573   1.977  -0.487  0.00  0.00    +0.004 A 
ATOM     18  C   UNL     1       0.698   3.184  -1.171  0.00  0.00    +0.000 A 
ATOM     19  C   UNL     1       0.901   3.178  -2.552  0.00  0.00    +0.004 A 
ATOM     20  C   UNL     1       1.048   1.970  -3.243  0.00  0.00    +0.046 A 
ENDBRANCH  14  15
ENDBRANCH   2  14
ENDBRANCH   1   2
BRANCH   1  21
ATOM     21  C   UNL     1      -0.023  -3.090  -4.253  0.00  0.00    +0.206 C 
BRANCH  21  22
ATOM     22  C   UNL     1       0.112  -4.606  -4.201  0.00  0.00    +0.179 C 
ATOM     23  O   UNL     1      -1.206  -5.175  -4.254  0.00  0.00    -0.345 OA
ATOM     24  C   UNL     1      -1.443  -5.674  -5.595  0.00  0.00    +0.263 C 
ATOM     25  C   UNL     1      -0.171  -5.430  -6.442  0.00  0.00    +0.182 C 
ATOM     26  C   UNL     1      -0.224  -4.283  -7.447  0.00  0.00    +0.055 C 
ATOM     27  F   UNL     1       0.143  -6.546  -7.167  0.00  0.00    -0.235 F 
ATOM     28  C   UNL     1       0.890  -5.232  -5.358  0.00  0.00    +0.187 C 
BRANCH  24  29
ATOM     29  N   UNL     1      -2.715  -5.144  -6.107  0.00  0.00    -0.271 N 
ATOM     30  C   UNL     1      -3.258  -5.782  -7.217  0.00  0.00    +0.331 A 
ATOM     31  O   UNL     1      -2.680  -6.651  -7.863  0.00  0.00    -0.246 OA
ATOM     32  N   UNL     1      -4.523  -5.394  -7.571  0.00  0.00    -0.275 N 
ATOM     33  H   UNL     1      -4.949  -5.898  -8.333  0.00  0.00    +0.173 HD
ATOM     34  C   UNL     1      -5.302  -4.493  -6.909  0.00  0.00    +0.254 A 
ATOM     35  O   UNL     1      -6.472  -4.274  -7.200  0.00  0.00    -0.268 OA
ATOM     36  C   UNL     1      -4.651  -3.791  -5.796  0.00  0.00    +0.088 A 
ATOM     37  C   UNL     1      -3.416  -4.151  -5.442  0.00  0.00    +0.098 A 
ENDBRANCH  24  29
BRANCH  28  38
ATOM     38  O   UNL     1       1.387  -6.512  -4.923  0.00  0.00    -0.386 OA
ATOM     39  H   UNL     1       2.095  -6.360  -4.274  0.00  0.00    +0.210 HD
ENDBRANCH  28  38
ENDBRANCH  21  22
ENDBRANCH   1  21
TORSDOF 12
REMARK  Name = 
REMARK  34 active torsions:
REMARK  status: ('A' for Active; 'I' for Inactive)
REMARK    1  A    between atoms: C_1  and  C_2
REMARK    2  A    between atoms: C_2  and  C_4
REMARK    3  A    between atoms: C_2  and  N_10
REMARK    4  A    between atoms: C_4  and  O_6
REMARK    5  A    between atoms: O_6  and  C_7
REMARK    6  A    between atoms: C_7  and  C_8
REMARK    7  A    between atoms: C_7  and  C_9
REMARK    8  A    between atoms: N_10  and  P_11
REMARK    9  A    between atoms: P_11  and  O_13
REMARK   10  A    between atoms: P_11  and  O_34
REMARK   11  A    between atoms: O_13  and  C_14
REMARK   12  A    between atoms: C_14  and  C_15
REMARK   13  A    between atoms: C_17  and  O_33
REMARK   14  A    between atoms: C_19  and  C_31
REMARK   15  A    between atoms: C_20  and  N_23
REMARK   16  A    between atoms: O_34  and  C_35
REMARK   17  A    between atoms: C_41  and  C_42
REMARK   18  A    between atoms: C_42  and  C_43
REMARK   19  A    between atoms: C_42  and  C_44
REMARK   20  A    between atoms: C_44  and  C_46
REMARK   21  A    between atoms: C_44  and  N_107
REMARK   22  A    between atoms: C_54  and  C_56
REMARK   23  A    between atoms: C_59  and  C_61
REMARK   24  A    between atoms: C_73  and  C_76
REMARK   25  A    between atoms: C_83  and  C_85
REMARK   26  A    between atoms: C_95  and  C_97
REMARK   27  A    between atoms: C_97  and  C_99
REMARK   28  A    between atoms: C_97  and  N_102
REMARK   29  A    between atoms: C_99  and  C_100
REMARK   30  A    between atoms: C_99  and  C_101
REMARK   31  A    between atoms: C_103  and  O_105
REMARK   32  A    between atoms: O_105  and  C_106
REMARK   33  A    between atoms: C_108  and  O_110
REMARK   34  A    between atoms: O_110  and  C_111
REMARK                            x       y       z     vdW  Elec       q    Type
REMARK                         _______ _______ _______ _____ _____    ______ ____
ROOT
ATOM      1  C   UNL     1     -13.015  38.122  22.921  0.00  0.00    +0.000 A 
ATOM      2  C   UNL     1     -12.008  37.670  22.040  0.00  0.00    +0.010 A 
ATOM      3  C   UNL     1     -11.475  36.369  22.133  0.00  0.00    +0.009 A 
ATOM      4  C   UNL     1     -11.957  35.522  23.117  0.00  0.00    -0.008 A 
ATOM      5  C   UNL     1     -11.612  34.158  23.468  0.00  0.00    -0.008 A 
ATOM      6  C   UNL     1     -10.694  33.278  22.932  0.00  0.00    +0.009 A 
ATOM      7  C   UNL     1     -10.564  32.005  23.517  0.00  0.00    +0.009 A 
ATOM      8  C   UNL     1     -11.349  31.583  24.623  0.00  0.00    -0.017 A 
ATOM      9  C   UNL     1     -12.287  32.496  25.136  0.00  0.00    +0.019 A 
ATOM     10  C   UNL     1     -12.401  33.759  24.565  0.00  0.00    +0.033 A 
ATOM     11  C   UNL     1     -13.327  34.883  24.987  0.00  0.00    +0.300 C 
ATOM     12  F   UNL     1     -14.641  34.531  24.913  0.00  0.00    -0.195 F 
ATOM     13  F   UNL     1     -13.117  35.268  26.278  0.00  0.00    -0.195 F 
ATOM     14  C   UNL     1     -12.962  35.970  23.996  0.00  0.00    +0.034 A 
ATOM     15  C   UNL     1     -13.497  37.251  23.911  0.00  0.00    +0.020 A 
ENDROOT
BRANCH   8  16
ATOM     16  C   UNL     1     -11.179  30.234  25.228  0.00  0.00    -0.016 A 
ATOM     17  C   UNL     1     -10.803  29.124  24.443  0.00  0.00    +0.011 A 
ATOM     18  C   UNL     1     -10.591  27.847  24.990  0.00  0.00    +0.030 A 
ATOM     19  C   UNL     1     -10.786  27.667  26.361  0.00  0.00    +0.089 A 
ATOM     20  N   UNL     1     -10.616  26.550  27.135  0.00  0.00    -0.231 NA
ATOM     21  C   UNL     1     -10.996  26.894  28.351  0.00  0.00    +0.129 A 
ATOM     22  N   UNL     1     -11.382  28.215  28.378  0.00  0.00    -0.340 N 
ATOM     23  H   UNL     1     -11.723  28.714  29.186  0.00  0.00    +0.167 HD
ATOM     24  C   UNL     1     -11.210  28.741  27.126  0.00  0.00    +0.067 A 
ATOM     25  C   UNL     1     -11.393  30.029  26.610  0.00  0.00    +0.036 A 
BRANCH  21  26
ATOM     26  C   UNL     1     -11.029  26.045  29.592  0.00  0.00    +0.145 C 
ATOM     27  N   UNL     1     -10.427  24.721  29.368  0.00  0.00    -0.287 N 
ATOM     28  C   UNL     1     -11.065  23.816  28.545  0.00  0.00    +0.237 C 
ATOM     29  O   UNL     1     -12.259  23.995  28.261  0.00  0.00    -0.274 OA
ATOM     30  C   UNL     1      -9.283  24.602  30.281  0.00  0.00    +0.077 C 
ATOM     31  C   UNL     1      -8.737  26.029  30.284  0.00  0.00    +0.028 C 
ATOM     32  C   UNL     1      -9.816  24.495  31.730  0.00  0.00    +0.023 C 
ATOM     33  C   UNL     1     -10.361  25.906  32.009  0.00  0.00    +0.007 C 
ATOM     34  C   UNL     1     -10.091  26.632  30.684  0.00  0.00    +0.019 C 
BRANCH  28  35
ATOM     35  C   UNL     1     -10.388  22.505  28.046  0.00  0.00    +0.165 C 
BRANCH  35  36
ATOM     36  N   UNL     1      -8.953  22.572  27.781  0.00  0.00    -0.270 N 
ATOM     37  H   UNL     1      -8.295  22.869  28.478  0.00  0.00    +0.153 HD
ATOM     38  C   UNL     1      -8.462  22.596  26.509  0.00  0.00    +0.401 C 
ATOM     39  O   UNL     1      -9.087  22.323  25.497  0.00  0.00    -0.226 OA
BRANCH  38  40
ATOM     40  O   UNL     1      -7.163  22.990  26.538  0.00  0.00    -0.454 OA
ATOM     41  C   UNL     1      -6.612  23.184  25.233  0.00  0.00    +0.282 C 
ENDBRANCH  38  40
ENDBRANCH  35  36
BRANCH  35  42
ATOM     42  C   UNL     1     -10.822  21.261  28.861  0.00  0.00    +0.012 C 
ATOM     43  C   UNL     1     -10.332  21.258  30.306  0.00  0.00    +0.009 C 
ATOM     44  C   UNL     1     -10.454  19.953  28.144  0.00  0.00    +0.009 C 
ENDBRANCH  35  42
ENDBRANCH  28  35
ENDBRANCH  21  26
ENDBRANCH   8  16
BRANCH   1  48
ATOM     45  C   UNL     1     -13.726  41.689  22.580  0.00  0.00    +0.128 A 
ATOM     46  N   UNL     1     -12.909  40.591  22.419  0.00  0.00    -0.340 N 
ATOM     47  H   UNL     1     -11.959  40.625  22.077  0.00  0.00    +0.167 HD
ATOM     48  C   UNL     1     -13.579  39.468  22.843  0.00  0.00    +0.066 A 
ATOM     49  C   UNL     1     -14.824  39.955  23.195  0.00  0.00    +0.139 A 
ATOM     50  N   UNL     1     -14.900  41.313  23.044  0.00  0.00    -0.238 NA
BRANCH  45  53
ATOM     51  C   UNL     1     -11.056  43.057  21.019  0.00  0.00    +0.237 C 
ATOM     52  N   UNL     1     -12.431  43.070  21.066  0.00  0.00    -0.289 N 
ATOM     53  C   UNL     1     -13.293  43.099  22.249  0.00  0.00    +0.143 C 
ATOM     54  C   UNL     1     -14.463  43.969  21.781  0.00  0.00    +0.039 C 
ATOM     55  C   UNL     1     -14.528  43.702  20.292  0.00  0.00    -0.011 C 
ATOM     56  C   UNL     1     -15.849  43.357  19.641  0.00  0.00    +0.009 C 
ATOM     57  C   UNL     1     -15.229  44.702  19.398  0.00  0.00    +0.009 C 
ATOM     58  C   UNL     1     -13.242  43.030  19.856  0.00  0.00    +0.115 C 
ATOM     59  O   UNL     1     -10.465  42.650  20.016  0.00  0.00    -0.274 OA
BRANCH  51  60
ATOM     60  C   UNL     1     -10.278  43.482  22.295  0.00  0.00    +0.165 C 
BRANCH  60  61
ATOM     61  N   UNL     1     -10.171  42.289  23.130  0.00  0.00    -0.270 N 
ATOM     62  H   UNL     1      -9.733  41.455  22.764  0.00  0.00    +0.153 HD
ATOM     63  C   UNL     1     -10.695  42.220  24.384  0.00  0.00    +0.401 C 
ATOM     64  O   UNL     1     -11.201  43.154  24.982  0.00  0.00    -0.226 OA
BRANCH  63  65
ATOM     65  O   UNL     1     -10.606  40.947  24.836  0.00  0.00    -0.454 OA
ATOM     66  C   UNL     1     -11.270  40.739  26.088  0.00  0.00    +0.282 C 
ENDBRANCH  63  65
ENDBRANCH  60  61
BRANCH  60  68
ATOM     67  C   UNL     1      -8.982  45.300  21.063  0.00  0.00    +0.009 C 
ATOM     68  C   UNL     1      -8.880  44.060  21.963  0.00  0.00    +0.012 C 
ATOM     69  C   UNL     1      -8.117  44.457  23.234  0.00  0.00    +0.009 C 
ENDBRANCH  60  68
ENDBRANCH  51  60
ENDBRANCH  45  53
ENDBRANCH   1  48
TORSDOF 12
