REMARK  Name = 
REMARK  4 active torsions:
REMARK  status: ('A' for Active; 'I' for Inactive)
REMARK    1  A    between atoms: C_1  and  C_2
REMARK    2  A    between atoms: N_4  and  C_10
REMARK    3  A    between atoms: C_14  and  C_17
REMARK    4  A    between atoms: C_17  and  O_18
REMARK                            x       y       z     vdW  Elec       q    Type
REMARK                         _______ _______ _______ _____ _____    ______ ____
ROOT
ATOM      1  C   UNL     1       9.045   2.993   3.119  0.00  0.00    +0.051 C 
ATOM      2  C   UNL     1       8.396   2.304   1.965  0.00  0.00    +0.030 A 
ATOM      3  C   UNL     1       8.939   0.990   1.556  0.00  0.00    +0.257 A 
ATOM      4  O   UNL     1       9.865   0.454   2.154  0.00  0.00    -0.267 OA
ATOM      5  N   UNL     1       8.326   0.402   0.489  0.00  0.00    -0.275 N 
ATOM      6  H   UNL     1       8.656  -0.514   0.227  0.00  0.00    +0.173 HD
ATOM      7  C   UNL     1       7.179   0.835  -0.120  0.00  0.00    +0.332 A 
ATOM      8  O   UNL     1       6.609   0.113  -0.937  0.00  0.00    -0.246 OA
ATOM      9  N   UNL     1       6.732   2.095   0.259  0.00  0.00    -0.270 N 
ATOM     10  C   UNL     1       7.339   2.782   1.295  0.00  0.00    +0.102 A 
ENDROOT
BRANCH   9  11
ATOM     11  C   UNL     1       5.501   2.575  -0.367  0.00  0.00    +0.248 C 
ATOM     12  O   UNL     1       5.094   3.860   0.164  0.00  0.00    -0.343 OA
ATOM     13  C   UNL     1       5.480   4.881  -0.790  0.00  0.00    +0.169 C 
ATOM     14  C   UNL     1       5.638   4.146  -2.072  0.00  0.00    +0.007 C 
ATOM     15  C   UNL     1       5.678   2.837  -1.822  0.00  0.00    +0.025 C 
BRANCH  13  16
ATOM     16  C   UNL     1       4.422   5.991  -0.792  0.00  0.00    +0.191 C 
BRANCH  16  17
ATOM     17  O   UNL     1       3.136   5.501  -1.173  0.00  0.00    -0.392 OA
ATOM     18  H   UNL     1       3.044   4.625  -0.755  0.00  0.00    +0.210 HD
ENDBRANCH  16  17
ENDBRANCH  13  16
ENDBRANCH   9  11
TORSDOF 3
