REMARK  Name = 
REMARK  22 active torsions:
REMARK  status: ('A' for Active; 'I' for Inactive)
REMARK    1  A    between atoms: C_1  and  C_2
REMARK    2  A    between atoms: C_2  and  C_3
REMARK    3  A    between atoms: C_2  and  C_4
REMARK    4  A    between atoms: C_2  and  C_5
REMARK    5  A    between atoms: C_5  and  O_7
REMARK    6  A    between atoms: O_7  and  C_8
REMARK    7  A    between atoms: C_8  and  O_9
REMARK    8  A    between atoms: O_9  and  P_10
REMARK    9  A    between atoms: P_10  and  C_11
REMARK   10  A    between atoms: P_10  and  O_25
REMARK   11  A    between atoms: C_11  and  O_12
REMARK   12  A    between atoms: O_12  and  C_13
REMARK   13  A    between atoms: C_13  and  C_14
REMARK   14  A    between atoms: C_14  and  N_15
REMARK   15  A    between atoms: C_19  and  N_24
REMARK   16  A    between atoms: O_25  and  C_26
REMARK   17  A    between atoms: C_26  and  O_27
REMARK   18  A    between atoms: O_27  and  C_28
REMARK   19  A    between atoms: C_28  and  C_30
REMARK   20  A    between atoms: C_30  and  C_31
REMARK   21  A    between atoms: C_30  and  C_32
REMARK   22  A    between atoms: C_30  and  C_33
REMARK                            x       y       z     vdW  Elec       q    Type
REMARK                         _______ _______ _______ _____ _____    ______ ____
ROOT
ATOM      1  P   UNL     1       6.910  -0.764   4.710  0.00  0.00    +0.205 P 
ENDROOT
BRANCH   1   2
ATOM      2  O   UNL     1       6.412  -0.828   3.162  0.00  0.00    -0.293 OA
BRANCH   2   3
ATOM      3  C   UNL     1       5.002  -0.849   2.945  0.00  0.00    +0.404 C 
BRANCH   3   4
ATOM      4  O   UNL     1       4.681  -0.728   1.556  0.00  0.00    -0.437 OA
BRANCH   4   5
ATOM      5  C   UNL     1       4.497   0.549   1.130  0.00  0.00    +0.314 C 
ATOM      6  O   UNL     1       4.645   1.543   1.829  0.00  0.00    -0.250 OA
BRANCH   5   8
ATOM      7  C   UNL     1       3.911   2.038  -0.785  0.00  0.00    +0.022 C 
ATOM      8  C   UNL     1       4.002   0.577  -0.321  0.00  0.00    +0.059 C 
ATOM      9  C   UNL     1       4.977  -0.181  -1.231  0.00  0.00    +0.022 C 
ATOM     10  C   UNL     1       2.608  -0.059  -0.388  0.00  0.00    +0.022 C 
ENDBRANCH   5   8
ENDBRANCH   4   5
ENDBRANCH   3   4
ENDBRANCH   2   3
ENDBRANCH   1   2
BRANCH   1  11
ATOM     11  O   UNL     1       8.490  -1.060   4.470  0.00  0.00    -0.293 OA
BRANCH  11  12
ATOM     12  C   UNL     1       9.257  -0.025   3.862  0.00  0.00    +0.404 C 
BRANCH  12  13
ATOM     13  O   UNL     1      10.659  -0.347   3.860  0.00  0.00    -0.437 OA
BRANCH  13  14
ATOM     14  C   UNL     1      11.341   0.064   4.963  0.00  0.00    +0.314 C 
ATOM     15  O   UNL     1      10.834   0.636   5.918  0.00  0.00    -0.250 OA
BRANCH  14  16
ATOM     16  C   UNL     1      12.843  -0.226   4.838  0.00  0.00    +0.059 C 
ATOM     17  C   UNL     1      13.088  -1.719   4.585  0.00  0.00    +0.022 C 
ATOM     18  C   UNL     1      13.542   0.174   6.149  0.00  0.00    +0.022 C 
ATOM     19  C   UNL     1      13.428   0.607   3.690  0.00  0.00    +0.022 C 
ENDBRANCH  14  16
ENDBRANCH  13  14
ENDBRANCH  12  13
ENDBRANCH  11  12
ENDBRANCH   1  11
BRANCH   1  20
ATOM     20  C   UNL     1       6.394  -2.481   5.277  0.00  0.00    +0.248 C 
BRANCH  20  21
ATOM     21  O   UNL     1       6.839  -3.561   4.450  0.00  0.00    -0.369 OA
BRANCH  21  22
ATOM     22  C   UNL     1       6.325  -4.817   4.873  0.00  0.00    +0.182 C 
BRANCH  22  23
ATOM     23  C   UNL     1       6.962  -5.907   4.019  0.00  0.00    +0.153 C 
BRANCH  23  24
ATOM     24  N   UNL     1       6.500  -7.218   4.402  0.00  0.00    -0.313 N 
ATOM     25  C   UNL     1       5.387  -7.849   3.923  0.00  0.00    +0.165 A 
ATOM     26  C   UNL     1       5.287  -9.005   4.679  0.00  0.00    +0.147 A 
ATOM     27  C   UNL     1       4.179  -9.829   4.428  0.00  0.00    +0.147 A 
ATOM     28  N   UNL     1       3.326  -9.477   3.439  0.00  0.00    -0.219 NA
ATOM     29  C   UNL     1       3.557  -8.324   2.772  0.00  0.00    +0.225 A 
ATOM     30  N   UNL     1       6.343  -9.104   5.567  0.00  0.00    -0.231 NA
ATOM     31  N   UNL     1       4.550  -7.433   2.959  0.00  0.00    -0.216 NA
ATOM     32  C   UNL     1       7.057  -8.017   5.362  0.00  0.00    +0.201 A 
BRANCH  27  33
ATOM     33  N   UNL     1       3.912 -10.983   5.152  0.00  0.00    -0.341 N 
ATOM     34  H   UNL     1       3.313 -11.628   4.657  0.00  0.00    +0.144 HD
ATOM     35  H   UNL     1       4.718 -11.353   5.643  0.00  0.00    +0.144 HD
ENDBRANCH  27  33
ENDBRANCH  23  24
ENDBRANCH  22  23
ENDBRANCH  21  22
ENDBRANCH  20  21
ENDBRANCH   1  20
TORSDOF 16
