REMARK  Name = 
REMARK  2 active torsions:
REMARK  status: ('A' for Active; 'I' for Inactive)
REMARK    1  A    between atoms: C_1  and  C_2
REMARK    2  A    between atoms: N_17  and  C_18
REMARK                            x       y       z     vdW  Elec       q    Type
REMARK                         _______ _______ _______ _____ _____    ______ ____
ROOT
ATOM      1  C   UNL     1       1.090   0.028  -0.321  0.00  0.00    +0.009 C 
ATOM      2  C   UNL     1       2.545   0.327   0.081  0.00  0.00    +0.010 C 
ATOM      3  C   UNL     1       2.824   0.171   1.592  0.00  0.00    +0.107 C 
ATOM      4  N   UNL     1       2.275  -1.105   2.047  0.00  0.00    -0.309 N 
ATOM      5  H   UNL     1       1.290  -1.170   1.834  0.00  0.00    +0.149 HD
ATOM      6  C   UNL     1       2.544  -1.415   3.362  0.00  0.00    +0.219 C 
ATOM      7  C   UNL     1       1.337  -1.123   4.233  0.00  0.00    +0.107 C 
ATOM      8  C   UNL     1       1.425   0.396   4.545  0.00  0.00    +0.138 C 
ATOM      9  N   UNL     1       1.127   1.225   3.294  0.00  0.00    -0.266 NA
ATOM     10  N   UNL     1       0.559   0.764   5.680  0.00  0.00    -0.300 NA
ATOM     11  H   UNL     1       0.809   1.712   5.953  0.00  0.00    +0.123 HD
ATOM     12  C   UNL     1       0.789  -0.078   6.854  0.00  0.00    +0.082 C 
ATOM     13  C   UNL     1       0.429  -1.519   6.543  0.00  0.00    +0.016 C 
ATOM     14  C   UNL     1       1.357  -2.037   5.459  0.00  0.00    +0.017 C 
ATOM     15  O   UNL     1       3.669  -1.644   3.788  0.00  0.00    -0.275 OA
ATOM     16  C   UNL     1       2.387   1.424   2.503  0.00  0.00    +0.147 C 
ATOM     17  N   UNL     1       2.506   2.720   1.840  0.00  0.00    -0.300 NA
ATOM     18  H   UNL     1       1.997   3.424   2.369  0.00  0.00    +0.123 HD
ATOM     19  C   UNL     1       2.196   2.770   0.426  0.00  0.00    +0.083 C 
ATOM     20  C   UNL     1       2.969   1.726  -0.358  0.00  0.00    +0.020 C 
ENDROOT
BRANCH   9  21
ATOM     21  C   UNL     1       0.148   2.336   3.492  0.00  0.00    +0.060 C 
ATOM     22  C   UNL     1      -1.232   2.057   2.920  0.00  0.00    +0.020 C 
ATOM     23  C   UNL     1      -0.487   3.267   2.496  0.00  0.00    +0.020 C 
ENDBRANCH   9  21
TORSDOF 1
