REMARK  Name = 
REMARK  2 active torsions:
REMARK  status: ('A' for Active; 'I' for Inactive)
REMARK    1  A    between atoms: C_1  and  C_2
REMARK    2  A    between atoms: N_17  and  C_18
REMARK                            x       y       z     vdW  Elec       q    Type
REMARK                         _______ _______ _______ _____ _____    ______ ____
ROOT
ATOM      1  C   UNL     1       1.114   0.149  -0.458  0.00  0.00    +0.009 C 
ATOM      2  C   UNL     1       2.571   0.458  -0.067  0.00  0.00    +0.010 C 
ATOM      3  C   UNL     1       2.858   0.303   1.443  0.00  0.00    +0.107 C 
ATOM      4  N   UNL     1       2.324  -0.977   1.890  0.00  0.00    -0.309 N 
ATOM      5  H   UNL     1       1.345  -1.062   1.668  0.00  0.00    +0.149 HD
ATOM      6  C   UNL     1       2.581  -1.282   3.207  0.00  0.00    +0.219 C 
ATOM      7  C   UNL     1       1.365  -1.002   4.068  0.00  0.00    +0.107 C 
ATOM      8  C   UNL     1       1.443   0.516   4.386  0.00  0.00    +0.138 C 
ATOM      9  N   UNL     1       1.144   1.346   3.141  0.00  0.00    -0.266 NA
ATOM     10  N   UNL     1       0.568   0.870   5.522  0.00  0.00    -0.300 NA
ATOM     11  H   UNL     1       0.814   1.817   5.804  0.00  0.00    +0.123 HD
ATOM     12  C   UNL     1       0.799   0.021   6.693  0.00  0.00    +0.082 C 
ATOM     13  C   UNL     1       0.444  -1.418   6.370  0.00  0.00    +0.016 C 
ATOM     14  C   UNL     1       1.379  -1.928   5.287  0.00  0.00    +0.017 C 
ATOM     15  O   UNL     1       3.708  -1.489   3.650  0.00  0.00    -0.275 OA
ATOM     16  C   UNL     1       2.405   1.552   2.356  0.00  0.00    +0.147 C 
ATOM     17  N   UNL     1       2.516   2.848   1.693  0.00  0.00    -0.300 NA
ATOM     18  H   UNL     1       2.006   3.550   2.219  0.00  0.00    +0.123 HD
ATOM     19  C   UNL     1       2.207   2.897   0.276  0.00  0.00    +0.083 C 
ATOM     20  C   UNL     1       2.983   1.858  -0.510  0.00  0.00    +0.020 C 
ENDROOT
BRANCH   9  21
ATOM     21  C   UNL     1       0.168   2.454   3.347  0.00  0.00    +0.060 C 
ATOM     22  C   UNL     1      -1.222   2.175   2.795  0.00  0.00    +0.020 C 
ATOM     23  C   UNL     1      -0.478   3.382   2.352  0.00  0.00    +0.020 C 
ENDBRANCH   9  21
TORSDOF 1
