REMARK  Name = 
REMARK  22 active torsions:
REMARK  status: ('A' for Active; 'I' for Inactive)
REMARK    1  A    between atoms: C_1  and  C_2
REMARK    2  A    between atoms: C_2  and  C_3
REMARK    3  A    between atoms: C_2  and  C_4
REMARK    4  A    between atoms: C_2  and  C_5
REMARK    5  A    between atoms: C_5  and  O_7
REMARK    6  A    between atoms: O_7  and  C_8
REMARK    7  A    between atoms: C_8  and  O_9
REMARK    8  A    between atoms: O_9  and  P_10
REMARK    9  A    between atoms: P_10  and  C_11
REMARK   10  A    between atoms: P_10  and  O_25
REMARK   11  A    between atoms: C_11  and  O_12
REMARK   12  A    between atoms: O_12  and  C_13
REMARK   13  A    between atoms: C_13  and  C_14
REMARK   14  A    between atoms: C_14  and  N_15
REMARK   15  A    between atoms: C_19  and  N_24
REMARK   16  A    between atoms: O_25  and  C_26
REMARK   17  A    between atoms: C_26  and  O_27
REMARK   18  A    between atoms: O_27  and  C_28
REMARK   19  A    between atoms: C_28  and  C_30
REMARK   20  A    between atoms: C_30  and  C_31
REMARK   21  A    between atoms: C_30  and  C_32
REMARK   22  A    between atoms: C_30  and  C_33
REMARK                            x       y       z     vdW  Elec       q    Type
REMARK                         _______ _______ _______ _____ _____    ______ ____
ROOT
ATOM      1  P   UNL     1       6.882   4.196  -1.933  0.00  0.00    +0.205 P 
ENDROOT
BRANCH   1   2
ATOM      2  O   UNL     1       8.466   4.156  -1.574  0.00  0.00    -0.293 OA
BRANCH   2   3
ATOM      3  C   UNL     1       9.225   3.074  -2.099  0.00  0.00    +0.404 C 
BRANCH   3   4
ATOM      4  O   UNL     1      10.629   3.251  -1.839  0.00  0.00    -0.437 OA
BRANCH   4   5
ATOM      5  C   UNL     1      11.301   3.945  -2.796  0.00  0.00    +0.314 C 
ATOM      6  O   UNL     1      10.786   4.420  -3.803  0.00  0.00    -0.250 OA
BRANCH   5   7
ATOM      7  C   UNL     1      12.804   4.011  -2.494  0.00  0.00    +0.059 C 
ATOM      8  C   UNL     1      13.051   4.632  -1.114  0.00  0.00    +0.022 C 
ATOM      9  C   UNL     1      13.495   4.883  -3.558  0.00  0.00    +0.022 C 
ATOM     10  C   UNL     1      13.399   2.597  -2.550  0.00  0.00    +0.022 C 
ENDBRANCH   5   7
ENDBRANCH   4   5
ENDBRANCH   3   4
ENDBRANCH   2   3
ENDBRANCH   1   2
BRANCH   1  11
ATOM     11  O   UNL     1       6.393   2.940  -1.021  0.00  0.00    -0.293 OA
BRANCH  11  12
ATOM     12  C   UNL     1       4.985   2.782  -0.852  0.00  0.00    +0.404 C 
BRANCH  12  13
ATOM     13  O   UNL     1       4.668   1.557  -0.184  0.00  0.00    -0.437 OA
BRANCH  13  14
ATOM     14  C   UNL     1       4.452   0.503  -1.011  0.00  0.00    +0.314 C 
ATOM     15  O   UNL     1       4.568   0.540  -2.228  0.00  0.00    -0.250 OA
BRANCH  14  17
ATOM     16  C   UNL     1       3.850  -1.914  -1.190  0.00  0.00    +0.022 C 
ATOM     17  C   UNL     1       3.961  -0.719  -0.229  0.00  0.00    +0.059 C 
ATOM     18  C   UNL     1       4.943  -1.069   0.895  0.00  0.00    +0.022 C 
ATOM     19  C   UNL     1       2.573  -0.415   0.354  0.00  0.00    +0.022 C 
ENDBRANCH  14  17
ENDBRANCH  13  14
ENDBRANCH  12  13
ENDBRANCH  11  12
ENDBRANCH   1  11
BRANCH   1  20
ATOM     20  C   UNL     1       6.396   5.613  -0.798  0.00  0.00    +0.248 C 
BRANCH  20  21
ATOM     21  O   UNL     1       6.879   5.503   0.544  0.00  0.00    -0.369 OA
BRANCH  21  22
ATOM     22  C   UNL     1       6.389   6.538   1.383  0.00  0.00    +0.182 C 
BRANCH  22  23
ATOM     23  C   UNL     1       7.062   6.409   2.744  0.00  0.00    +0.153 C 
BRANCH  23  24
ATOM     24  N   UNL     1       6.592   7.426   3.651  0.00  0.00    -0.313 N 
ATOM     25  C   UNL     1       5.432   7.375   4.369  0.00  0.00    +0.165 A 
ATOM     26  C   UNL     1       5.313   8.635   4.930  0.00  0.00    +0.147 A 
ATOM     27  C   UNL     1       4.149   8.880   5.676  0.00  0.00    +0.147 A 
ATOM     28  N   UNL     1       3.267   7.867   5.846  0.00  0.00    -0.219 NA
ATOM     29  C   UNL     1       3.526   6.683   5.251  0.00  0.00    +0.225 A 
ATOM     30  N   UNL     1       6.404   9.422   4.609  0.00  0.00    -0.231 NA
ATOM     31  N   UNL     1       4.573   6.350   4.476  0.00  0.00    -0.216 NA
ATOM     32  C   UNL     1       7.156   8.657   3.844  0.00  0.00    +0.201 A 
BRANCH  27  33
ATOM     33  N   UNL     1       3.858  10.111   6.248  0.00  0.00    -0.341 N 
ATOM     34  H   UNL     1       3.201  10.036   7.012  0.00  0.00    +0.144 HD
ATOM     35  H   UNL     1       4.671  10.703   6.372  0.00  0.00    +0.144 HD
ENDBRANCH  27  33
ENDBRANCH  23  24
ENDBRANCH  22  23
ENDBRANCH  21  22
ENDBRANCH  20  21
ENDBRANCH   1  20
TORSDOF 16
