REMARK  Name = 
REMARK  21 active torsions:
REMARK  status: ('A' for Active; 'I' for Inactive)
REMARK    1  A    between atoms: C_1  and  C_2
REMARK    2  A    between atoms: C_2  and  C_3
REMARK    3  A    between atoms: C_2  and  C_4
REMARK    4  A    between atoms: C_2  and  C_5
REMARK    5  A    between atoms: C_5  and  C_7
REMARK    6  A    between atoms: C_5  and  N_47
REMARK    7  A    between atoms: C_11  and  O_33
REMARK    8  A    between atoms: C_13  and  C_15
REMARK    9  A    between atoms: N_17  and  S_27
REMARK   10  A    between atoms: C_18  and  C_20
REMARK   11  A    between atoms: C_20  and  N_26
REMARK   12  A    between atoms: C_22  and  C_24
REMARK   13  A    between atoms: S_27  and  C_30
REMARK   14  A    between atoms: O_33  and  C_34
REMARK   15  A    between atoms: C_37  and  O_45
REMARK   16  A    between atoms: O_45  and  C_46
REMARK   17  A    between atoms: C_48  and  O_50
REMARK   18  A    between atoms: O_50  and  C_51
REMARK   19  A    between atoms: C_51  and  C_52
REMARK   20  A    between atoms: C_51  and  C_53
REMARK   21  A    between atoms: C_51  and  C_54
REMARK                            x       y       z     vdW  Elec       q    Type
REMARK                         _______ _______ _______ _____ _____    ______ ____
ROOT
ATOM      1  C   UNL     1       2.086  -1.764  -1.845  0.00  0.00    +0.237 C 
ATOM      2  N   UNL     1       0.686  -1.753  -1.892  0.00  0.00    -0.285 N 
ATOM      3  C   UNL     1      -0.189  -0.653  -2.450  0.00  0.00    +0.168 C 
ATOM      4  C   UNL     1      -1.380  -1.439  -3.055  0.00  0.00    +0.078 C 
ATOM      5  C   UNL     1      -0.852  -2.830  -3.353  0.00  0.00    +0.195 C 
ATOM      6  C   UNL     1       0.076  -3.061  -2.175  0.00  0.00    +0.153 C 
ATOM      7  O   UNL     1       2.689  -2.667  -2.438  0.00  0.00    -0.274 OA
ENDROOT
BRANCH   3   8
ATOM      8  C   UNL     1      -0.832   0.353  -1.432  0.00  0.00    +0.262 C 
ATOM      9  N   UNL     1      -1.371   1.642  -1.782  0.00  0.00    -0.107 N 
ATOM     10  C   UNL     1      -1.542   1.963  -3.162  0.00  0.00    +0.262 C 
ATOM     11  O   UNL     1      -1.105   1.261  -4.063  0.00  0.00    -0.272 OA
ATOM     12  O   UNL     1      -0.947  -0.019  -0.268  0.00  0.00    -0.272 OA
BRANCH   9  13
ATOM     13  S   UNL     1      -1.897   2.728  -0.596  0.00  0.00    +0.057 S 
ATOM     14  O   UNL     1      -3.341   2.845  -0.679  0.00  0.00    -0.154 OA
ATOM     15  O   UNL     1      -1.072   3.911  -0.740  0.00  0.00    -0.154 OA
BRANCH  13  16
ATOM     16  C   UNL     1      -1.567   2.213   1.109  0.00  0.00    +0.152 C 
ATOM     17  C   UNL     1      -2.758   1.862   1.972  0.00  0.00    +0.030 C 
ATOM     18  C   UNL     1      -2.101   3.202   2.126  0.00  0.00    +0.030 C 
ENDBRANCH  13  16
ENDBRANCH   9  13
BRANCH  10  19
ATOM     19  C   UNL     1      -2.218   3.285  -3.575  0.00  0.00    +0.103 C 
ATOM     20  C   UNL     1      -3.735   3.429  -3.629  0.00  0.00    +0.042 C 
ATOM     21  C   UNL     1      -2.969   3.313  -4.906  0.00  0.00    +0.042 C 
BRANCH  19  22
ATOM     22  N   UNL     1      -1.367   4.494  -3.378  0.00  0.00    -0.317 NA
ATOM     23  H   UNL     1      -1.207   4.669  -2.377  0.00  0.00    +0.119 HD
ATOM     24  H   UNL     1      -0.442   4.352  -3.783  0.00  0.00    +0.119 HD
ENDBRANCH  19  22
BRANCH  20  25
ATOM     25  C   UNL     1      -4.637   2.361  -3.173  0.00  0.00    -0.029 C 
ATOM     26  C   UNL     1      -4.836   1.130  -3.659  0.00  0.00    +0.004 C 
ENDBRANCH  20  25
ENDBRANCH  10  19
ENDBRANCH   3   8
BRANCH   1  27
ATOM     27  C   UNL     1       2.908  -0.618  -1.141  0.00  0.00    +0.168 C 
BRANCH  27  29
ATOM     28  C   UNL     1       5.225  -1.664  -1.798  0.00  0.00    +0.013 C 
ATOM     29  C   UNL     1       4.377  -1.060  -0.652  0.00  0.00    -0.011 C 
ATOM     30  C   UNL     1       5.185   0.162  -0.145  0.00  0.00    +0.013 C 
ATOM     31  C   UNL     1       4.357  -2.090   0.499  0.00  0.00    +0.013 C 
ENDBRANCH  27  29
BRANCH  27  32
ATOM     32  N   UNL     1       2.142   0.063  -0.091  0.00  0.00    -0.269 N 
ATOM     33  H   UNL     1       2.310   1.042   0.094  0.00  0.00    +0.153 HD
ATOM     34  C   UNL     1       1.608  -0.654   0.948  0.00  0.00    +0.401 C 
ATOM     35  O   UNL     1       1.524  -1.872   0.960  0.00  0.00    -0.226 OA
BRANCH  34  36
ATOM     36  O   UNL     1       1.176   0.169   1.935  0.00  0.00    -0.445 OA
BRANCH  36  37
ATOM     37  C   UNL     1       0.441  -0.435   3.036  0.00  0.00    +0.107 C 
ATOM     38  C   UNL     1      -0.829  -1.155   2.549  0.00  0.00    +0.055 C 
ATOM     39  C   UNL     1       0.055   0.722   3.969  0.00  0.00    +0.055 C 
ATOM     40  C   UNL     1       1.315  -1.387   3.859  0.00  0.00    +0.055 C 
ENDBRANCH  36  37
ENDBRANCH  34  36
ENDBRANCH  27  32
ENDBRANCH   1  27
BRANCH   5  41
ATOM     41  O   UNL     1      -0.112  -2.812  -4.586  0.00  0.00    -0.471 OA
BRANCH  41  42
ATOM     42  C   UNL     1      -0.140  -4.007  -5.286  0.00  0.00    +0.223 A 
ATOM     43  C   UNL     1       0.847  -4.243  -6.261  0.00  0.00    +0.049 A 
ATOM     44  C   UNL     1       1.917  -3.361  -6.529  0.00  0.00    +0.034 A 
ATOM     45  C   UNL     1       2.859  -3.656  -7.516  0.00  0.00    +0.042 A 
ATOM     46 CL   UNL     1       4.150  -2.561  -7.829  0.00  0.00    -0.084 Cl
ATOM     47  C   UNL     1       2.765  -4.829  -8.252  0.00  0.00    +0.021 A 
ATOM     48  C   UNL     1       1.718  -5.717  -7.998  0.00  0.00    +0.014 A 
ATOM     49  C   UNL     1       0.746  -5.449  -7.007  0.00  0.00    +0.030 A 
ATOM     50  C   UNL     1      -0.323  -6.334  -6.754  0.00  0.00    +0.146 A 
ATOM     51  C   UNL     1      -1.234  -5.977  -5.771  0.00  0.00    +0.160 A 
ATOM     52  N   UNL     1      -1.171  -4.845  -5.042  0.00  0.00    -0.217 NA
BRANCH  50  53
ATOM     53  O   UNL     1      -0.380  -7.484  -7.497  0.00  0.00    -0.493 OA
ATOM     54  C   UNL     1      -1.477  -8.359  -7.257  0.00  0.00    +0.277 C 
ENDBRANCH  50  53
ENDBRANCH  41  42
ENDBRANCH   5  41
TORSDOF 14
