REMARK  Name = 
REMARK  12 active torsions:
REMARK  status: ('A' for Active; 'I' for Inactive)
REMARK    1  A    between atoms: C_1  and  C_2
REMARK    2  A    between atoms: N_4  and  C_5
REMARK    3  A    between atoms: C_6  and  N_21
REMARK    4  A    between atoms: C_8  and  C_18
REMARK    5  A    between atoms: C_10  and  C_11
REMARK    6  A    between atoms: C_11  and  C_12
REMARK    7  A    between atoms: C_11  and  O_16
REMARK    8  A    between atoms: C_12  and  C_13
REMARK    9  A    between atoms: C_12  and  O_15
REMARK   10  A    between atoms: C_13  and  O_14
REMARK   11  A    between atoms: O_16  and  C_17
REMARK   12  A    between atoms: C_18  and  O_20
REMARK                            x       y       z     vdW  Elec       q    Type
REMARK                         _______ _______ _______ _____ _____    ______ ____
ROOT
ATOM      1  C   UNL     1       4.372  -0.952  -0.900  0.00  0.00    +0.161 C 
ATOM      2  C   UNL     1       5.185  -1.966  -0.045  0.00  0.00    +0.229 C 
ATOM      3  O   UNL     1       6.143  -1.483   0.906  0.00  0.00    -0.477 OA
ATOM      4  C   UNL     1       6.229  -0.145   1.137  0.00  0.00    +0.204 C 
ATOM      5  C   UNL     1       5.692   0.809   0.375  0.00  0.00    +0.071 C 
ATOM      6  C   UNL     1       4.926   0.494  -0.872  0.00  0.00    +0.238 C 
ENDROOT
BRANCH   6   7
ATOM      7  N   UNL     1       3.818   1.456  -1.005  0.00  0.00    -0.104 NA
ATOM      8  C   UNL     1       4.022   2.548  -1.649  0.00  0.00    +0.377 C 
ATOM      9  N   UNL     1       3.004   3.423  -1.788  0.00  0.00    -0.289 N 
ATOM     10  H   UNL     1       2.959   3.892  -2.682  0.00  0.00    +0.255 HD
ATOM     11  H   UNL     1       2.116   3.006  -1.534  0.00  0.00    +0.255 HD
ATOM     12  N   UNL     1       5.136   3.005  -2.255  0.00  0.00    -0.289 N 
ATOM     13  H   UNL     1       5.175   3.969  -2.556  0.00  0.00    +0.255 HD
ATOM     14  H   UNL     1       6.037   2.603  -2.022  0.00  0.00    +0.255 HD
ENDBRANCH   6   7
BRANCH   1  17
ATOM     15  C   UNL     1       0.730  -1.985  -0.426  0.00  0.00    +0.109 C 
ATOM     16  C   UNL     1       2.192  -2.131  -0.728  0.00  0.00    +0.210 C 
ATOM     17  N   UNL     1       2.946  -1.000  -0.516  0.00  0.00    -0.305 N 
ATOM     18  H   UNL     1       2.501  -0.089  -0.432  0.00  0.00    +0.149 HD
ATOM     19  O   UNL     1       2.668  -3.187  -1.136  0.00  0.00    -0.276 OA
ENDBRANCH   1  17
BRANCH   4  20
ATOM     20  C   UNL     1       7.070   0.258   2.304  0.00  0.00    +0.372 C 
ATOM     21  O   UNL     1       7.327   1.405   2.627  0.00  0.00    -0.242 OA
BRANCH  20  22
ATOM     22  O   UNL     1       7.520  -0.835   2.962  0.00  0.00    -0.475 OA
ATOM     23  H   UNL     1       7.213  -1.652   2.514  0.00  0.00    +0.296 HD
ENDBRANCH  20  22
ENDBRANCH   4  20
BRANCH   2  24
ATOM     24  C   UNL     1       5.879  -3.073  -0.889  0.00  0.00    +0.191 C 
BRANCH  24  25
ATOM     25  O   UNL     1       6.349  -4.130  -0.024  0.00  0.00    -0.373 OA
ATOM     26  C   UNL     1       5.316  -4.957   0.508  0.00  0.00    +0.194 C 
ENDBRANCH  24  25
BRANCH  24  27
ATOM     27  C   UNL     1       7.110  -2.507  -1.640  0.00  0.00    +0.172 C 
BRANCH  27  28
ATOM     28  O   UNL     1       6.760  -1.414  -2.507  0.00  0.00    -0.387 OA
ATOM     29  H   UNL     1       6.273  -1.784  -3.268  0.00  0.00    +0.210 HD
ENDBRANCH  27  28
BRANCH  27  30
ATOM     30  C   UNL     1       7.835  -3.548  -2.503  0.00  0.00    +0.189 C 
BRANCH  30  31
ATOM     31  O   UNL     1       8.963  -2.932  -3.137  0.00  0.00    -0.392 OA
ATOM     32  H   UNL     1       8.782  -1.972  -3.166  0.00  0.00    +0.210 HD
ENDBRANCH  30  31
ENDBRANCH  27  30
ENDBRANCH  24  27
ENDBRANCH   2  24
TORSDOF 10
