REMARK  Name = 
REMARK  3 active torsions:
REMARK  status: ('A' for Active; 'I' for Inactive)
REMARK    1  A    between atoms: C_2  and  N_10
REMARK    2  A    between atoms: C_5  and  C_8
REMARK    3  A    between atoms: C_8  and  O_9
REMARK                            x       y       z     vdW  Elec       q    Type
REMARK                         _______ _______ _______ _____ _____    ______ ____
ROOT
ATOM      1  N   UNL     1      -2.471   0.704  -0.431  0.00  0.00    -0.272 N 
ATOM      2  C   UNL     1      -3.619   0.372   0.295  0.00  0.00    +0.352 A 
ATOM      3  O   UNL     1      -3.530  -0.142   1.409  0.00  0.00    -0.244 OA
ATOM      4  N   UNL     1      -4.848   0.609  -0.272  0.00  0.00    -0.178 NA
ATOM      5  C   UNL     1      -4.921   1.082  -1.477  0.00  0.00    +0.123 A 
ATOM      6  N   UNL     1      -6.172   1.259  -1.997  0.00  0.00    -0.343 N 
ATOM      7  H   UNL     1      -6.901   1.230  -1.290  0.00  0.00    +0.144 HD
ATOM      8  H   UNL     1      -6.303   1.979  -2.696  0.00  0.00    +0.144 HD
ATOM      9  C   UNL     1      -3.735   1.424  -2.287  0.00  0.00    +0.061 A 
ATOM     10  C   UNL     1      -2.554   1.206  -1.711  0.00  0.00    +0.096 A 
ENDROOT
BRANCH   1  15
ATOM     11  C   UNL     1      -0.882  -1.157  -0.085  0.00  0.00    +0.126 C 
ATOM     12  S   UNL     1       0.864  -1.280   0.335  0.00  0.00    -0.123 S 
ATOM     13  C   UNL     1       1.124   0.496   0.035  0.00  0.00    +0.203 C 
ATOM     14  O   UNL     1      -0.113   1.085  -0.402  0.00  0.00    -0.340 OA
ATOM     15  C   UNL     1      -1.194   0.321   0.161  0.00  0.00    +0.235 C 
BRANCH  13  16
ATOM     16  C   UNL     1       2.206   0.705  -1.033  0.00  0.00    +0.198 C 
BRANCH  16  17
ATOM     17  O   UNL     1       1.864   0.089  -2.281  0.00  0.00    -0.392 OA
ATOM     18  H   UNL     1       1.608  -0.827  -2.070  0.00  0.00    +0.210 HD
ENDBRANCH  16  17
ENDBRANCH  13  16
ENDBRANCH   1  15
TORSDOF 3
