REMARK  Name = 
REMARK  3 active torsions:
REMARK  status: ('A' for Active; 'I' for Inactive)
REMARK    1  A    between atoms: C_2  and  N_10
REMARK    2  A    between atoms: C_5  and  C_8
REMARK    3  A    between atoms: C_8  and  O_9
REMARK                            x       y       z     vdW  Elec       q    Type
REMARK                         _______ _______ _______ _____ _____    ______ ____
ROOT
ATOM      1  N   UNL     1      -2.472   0.701  -0.430  0.00  0.00    -0.272 N 
ATOM      2  C   UNL     1      -3.618   0.366   0.298  0.00  0.00    +0.352 A 
ATOM      3  O   UNL     1      -3.527  -0.147   1.411  0.00  0.00    -0.244 OA
ATOM      4  N   UNL     1      -4.848   0.600  -0.269  0.00  0.00    -0.178 NA
ATOM      5  C   UNL     1      -4.924   1.075  -1.472  0.00  0.00    +0.123 A 
ATOM      6  N   UNL     1      -6.176   1.248  -1.990  0.00  0.00    -0.343 N 
ATOM      7  H   UNL     1      -6.904   1.215  -1.284  0.00  0.00    +0.144 HD
ATOM      8  H   UNL     1      -6.311   1.965  -2.691  0.00  0.00    +0.144 HD
ATOM      9  C   UNL     1      -3.740   1.423  -2.282  0.00  0.00    +0.061 A 
ATOM     10  C   UNL     1      -2.557   1.205  -1.709  0.00  0.00    +0.096 A 
ENDROOT
BRANCH   1  15
ATOM     11  C   UNL     1      -0.881  -1.159  -0.086  0.00  0.00    +0.126 C 
ATOM     12  S   UNL     1       0.865  -1.280   0.334  0.00  0.00    -0.123 S 
ATOM     13  C   UNL     1       1.123   0.496   0.035  0.00  0.00    +0.203 C 
ATOM     14  O   UNL     1      -0.113   1.084  -0.403  0.00  0.00    -0.340 OA
ATOM     15  C   UNL     1      -1.194   0.320   0.160  0.00  0.00    +0.235 C 
BRANCH  13  16
ATOM     16  C   UNL     1       2.207   0.706  -1.033  0.00  0.00    +0.198 C 
BRANCH  16  17
ATOM     17  O   UNL     1       1.862   0.095  -2.282  0.00  0.00    -0.392 OA
ATOM     18  H   UNL     1       1.599  -0.821  -2.075  0.00  0.00    +0.210 HD
ENDBRANCH  16  17
ENDBRANCH  13  16
ENDBRANCH   1  15
TORSDOF 3
