REMARK  Name = 
REMARK  12 active torsions:
REMARK  status: ('A' for Active; 'I' for Inactive)
REMARK    1  A    between atoms: C_1  and  C_2
REMARK    2  A    between atoms: C_2  and  C_3
REMARK    3  A    between atoms: C_3  and  C_4
REMARK    4  A    between atoms: C_3  and  C_6
REMARK    5  A    between atoms: C_4  and  C_5
REMARK    6  A    between atoms: C_6  and  C_8
REMARK    7  A    between atoms: C_6  and  N_22
REMARK    8  A    between atoms: C_9  and  O_21
REMARK    9  A    between atoms: C_11  and  C_18
REMARK   10  A    between atoms: C_13  and  N_14
REMARK   11  A    between atoms: C_18  and  O_20
REMARK   12  A    between atoms: C_23  and  C_25
REMARK                            x       y       z     vdW  Elec       q    Type
REMARK                         _______ _______ _______ _____ _____    ______ ____
ROOT
ATOM      1  C   UNL     1       5.211   1.143   1.070  0.00  0.00    +0.079 C 
ATOM      2  C   UNL     1       6.744   1.157   1.336  0.00  0.00    +0.196 C 
ATOM      3  C   UNL     1       7.109   2.598   1.750  0.00  0.00    +0.062 C 
ATOM      4  C   UNL     1       5.902   3.461   1.426  0.00  0.00    +0.130 C 
ATOM      5  C   UNL     1       4.732   2.499   1.609  0.00  0.00    +0.137 C 
ENDROOT
BRANCH   2   6
ATOM      6  N   UNL     1       7.488   0.854   0.116  0.00  0.00    -0.110 NA
ATOM      7  C   UNL     1       8.018  -0.296  -0.056  0.00  0.00    +0.377 C 
ATOM      8  N   UNL     1       8.793  -0.526  -1.140  0.00  0.00    -0.289 N 
ATOM      9  H   UNL     1       9.605  -1.087  -0.924  0.00  0.00    +0.255 HD
ATOM     10  H   UNL     1       9.053   0.351  -1.580  0.00  0.00    +0.255 HD
ATOM     11  N   UNL     1       8.007  -1.410   0.708  0.00  0.00    -0.289 N 
ATOM     12  H   UNL     1       8.000  -2.264   0.165  0.00  0.00    +0.255 HD
ATOM     13  H   UNL     1       7.266  -1.480   1.406  0.00  0.00    +0.255 HD
ENDBRANCH   2   6
BRANCH   4  14
ATOM     14  C   UNL     1       5.976   4.073   0.038  0.00  0.00    +0.310 C 
ATOM     15  O   UNL     1       5.238   3.785  -0.892  0.00  0.00    -0.251 OA
BRANCH  14  16
ATOM     16  O   UNL     1       6.890   5.067  -0.053  0.00  0.00    -0.480 OA
ATOM     17  H   UNL     1       7.381   5.226   0.774  0.00  0.00    +0.295 HD
ENDBRANCH  14  16
ENDBRANCH   4  14
BRANCH   5  18
ATOM     18  O   UNL     1       3.568   3.003   0.976  0.00  0.00    -0.391 OA
ATOM     19  H   UNL     1       3.759   3.108   0.017  0.00  0.00    +0.210 HD
ENDBRANCH   5  18
BRANCH   1  20
ATOM     20  C   UNL     1       4.506  -0.133   1.645  0.00  0.00    +0.085 C 
BRANCH  20  21
ATOM     21  N   UNL     1       4.857  -0.409   3.048  0.00  0.00    -0.312 N 
ATOM     22  H   UNL     1       4.428   0.147   3.778  0.00  0.00    +0.149 HD
ATOM     23  C   UNL     1       5.682  -1.457   3.402  0.00  0.00    +0.210 C 
ATOM     24  C   UNL     1       6.026  -1.530   4.867  0.00  0.00    +0.109 C 
ATOM     25  O   UNL     1       6.201  -2.220   2.589  0.00  0.00    -0.276 OA
ENDBRANCH  20  21
BRANCH  20  26
ATOM     26  C   UNL     1       2.960  -0.308   1.408  0.00  0.00    +0.009 C 
BRANCH  26  28
ATOM     27  C   UNL     1       0.582   0.562   2.050  0.00  0.00    +0.004 C 
ATOM     28  C   UNL     1       2.087   0.647   2.264  0.00  0.00    +0.002 C 
ENDBRANCH  26  28
BRANCH  26  29
ATOM     29  C   UNL     1       2.595  -0.281  -0.096  0.00  0.00    +0.002 C 
ATOM     30  C   UNL     1       3.226  -1.405  -0.916  0.00  0.00    +0.004 C 
ENDBRANCH  26  29
ENDBRANCH  20  26
ENDBRANCH   1  20
TORSDOF 9
