REMARK  Name = 
REMARK  12 active torsions:
REMARK  status: ('A' for Active; 'I' for Inactive)
REMARK    1  A    between atoms: C_1  and  C_2
REMARK    2  A    between atoms: C_2  and  C_3
REMARK    3  A    between atoms: C_3  and  C_4
REMARK    4  A    between atoms: C_3  and  C_6
REMARK    5  A    between atoms: C_4  and  C_5
REMARK    6  A    between atoms: C_6  and  C_8
REMARK    7  A    between atoms: C_6  and  N_22
REMARK    8  A    between atoms: C_9  and  O_21
REMARK    9  A    between atoms: C_11  and  C_18
REMARK   10  A    between atoms: C_13  and  N_14
REMARK   11  A    between atoms: C_18  and  O_20
REMARK   12  A    between atoms: C_23  and  C_25
REMARK                            x       y       z     vdW  Elec       q    Type
REMARK                         _______ _______ _______ _____ _____    ______ ____
ROOT
ATOM      1  C   UNL     1       5.011  -0.501   1.297  0.00  0.00    +0.079 C 
ATOM      2  C   UNL     1       6.564  -0.375   1.293  0.00  0.00    +0.196 C 
ATOM      3  C   UNL     1       7.037  -0.569   2.749  0.00  0.00    +0.062 C 
ATOM      4  C   UNL     1       5.796  -0.489   3.616  0.00  0.00    +0.130 C 
ATOM      5  C   UNL     1       4.698  -1.028   2.707  0.00  0.00    +0.137 C 
ENDROOT
BRANCH   2   6
ATOM      6  N   UNL     1       6.964   0.966   0.880  0.00  0.00    -0.110 NA
ATOM      7  C   UNL     1       7.341   1.182  -0.321  0.00  0.00    +0.377 C 
ATOM      8  N   UNL     1       7.793   2.418  -0.641  0.00  0.00    -0.289 N 
ATOM      9  H   UNL     1       7.572   2.767  -1.559  0.00  0.00    +0.255 HD
ATOM     10  H   UNL     1       7.620   3.089   0.100  0.00  0.00    +0.255 HD
ATOM     11  N   UNL     1       7.430   0.352  -1.380  0.00  0.00    -0.289 N 
ATOM     12  H   UNL     1       7.324   0.741  -2.303  0.00  0.00    +0.255 HD
ATOM     13  H   UNL     1       7.020  -0.580  -1.325  0.00  0.00    +0.255 HD
ENDBRANCH   2   6
BRANCH   4  14
ATOM     14  C   UNL     1       5.532   0.923   4.111  0.00  0.00    +0.310 C 
ATOM     15  O   UNL     1       4.612   1.637   3.733  0.00  0.00    -0.251 OA
BRANCH  14  16
ATOM     16  O   UNL     1       6.369   1.298   5.105  0.00  0.00    -0.480 OA
ATOM     17  H   UNL     1       7.036   0.622   5.329  0.00  0.00    +0.295 HD
ENDBRANCH  14  16
ENDBRANCH   4  14
BRANCH   5  18
ATOM     18  O   UNL     1       3.432  -0.650   3.218  0.00  0.00    -0.391 OA
ATOM     19  H   UNL     1       3.366   0.330   3.180  0.00  0.00    +0.210 HD
ENDBRANCH   5  18
BRANCH   1  20
ATOM     20  C   UNL     1       4.486  -1.349   0.088  0.00  0.00    +0.085 C 
BRANCH  20  21
ATOM     21  N   UNL     1       5.077  -2.690   0.046  0.00  0.00    -0.312 N 
ATOM     22  H   UNL     1       4.739  -3.393   0.682  0.00  0.00    +0.149 HD
ATOM     23  C   UNL     1       6.045  -3.050  -0.875  0.00  0.00    +0.210 C 
ATOM     24  C   UNL     1       6.550  -4.462  -0.738  0.00  0.00    +0.109 C 
ATOM     25  O   UNL     1       6.496  -2.278  -1.719  0.00  0.00    -0.276 OA
ENDBRANCH  20  21
BRANCH  20  26
ATOM     26  C   UNL     1       2.932  -1.436  -0.154  0.00  0.00    +0.009 C 
BRANCH  26  28
ATOM     27  C   UNL     1       0.706  -2.445   0.816  0.00  0.00    +0.004 C 
ATOM     28  C   UNL     1       2.206  -2.251   0.942  0.00  0.00    +0.002 C 
ENDBRANCH  26  28
BRANCH  26  29
ATOM     29  C   UNL     1       2.303  -0.041  -0.387  0.00  0.00    +0.002 C 
ATOM     30  C   UNL     1       2.813   0.678  -1.638  0.00  0.00    +0.004 C 
ENDBRANCH  26  29
ENDBRANCH  20  26
ENDBRANCH   1  20
TORSDOF 9
