REMARK  Name = 
REMARK  16 active torsions:
REMARK  status: ('A' for Active; 'I' for Inactive)
REMARK    1  A    between atoms: C_1  and  C_2
REMARK    2  A    between atoms: C_2  and  C_4
REMARK    3  A    between atoms: C_2  and  N_10
REMARK    4  A    between atoms: C_4  and  O_6
REMARK    5  A    between atoms: O_6  and  C_7
REMARK    6  A    between atoms: C_7  and  C_8
REMARK    7  A    between atoms: C_7  and  C_9
REMARK    8  A    between atoms: N_10  and  P_11
REMARK    9  A    between atoms: P_11  and  O_13
REMARK   10  A    between atoms: P_11  and  O_33
REMARK   11  A    between atoms: O_13  and  C_14
REMARK   12  A    between atoms: C_14  and  C_15
REMARK   13  A    between atoms: C_16  and  O_32
REMARK   14  A    between atoms: C_18  and  C_30
REMARK   15  A    between atoms: C_19  and  N_22
REMARK   16  A    between atoms: O_33  and  C_34
REMARK                            x       y       z     vdW  Elec       q    Type
REMARK                         _______ _______ _______ _____ _____    ______ ____
ROOT
ATOM      1  O   UNL     1       4.906   0.595  -1.039  0.00  0.00    -0.284 OA
ENDROOT
BRANCH   1   2
ATOM      2  P   UNL     1       4.814   1.194   0.510  0.00  0.00    +0.462 P 
ATOM      3  O   UNL     1       3.266   1.194   0.510  0.00  0.00    -0.228 OA
BRANCH   2   4
ATOM      4  N   UNL     1       4.902  -0.145   1.537  0.00  0.00    -0.199 NA
ATOM      5  H   UNL     1       4.093  -0.720   1.315  0.00  0.00    +0.135 HD
BRANCH   4   7
ATOM      6  C   UNL     1       6.010   0.958   3.566  0.00  0.00    +0.036 C 
ATOM      7  C   UNL     1       4.885   0.082   3.008  0.00  0.00    +0.171 C 
BRANCH   7   8
ATOM      8  C   UNL     1       3.528   0.620   3.490  0.00  0.00    +0.325 C 
ATOM      9  O   UNL     1       3.286   1.796   3.730  0.00  0.00    -0.249 OA
BRANCH   8  10
ATOM     10  O   UNL     1       2.662  -0.427   3.643  0.00  0.00    -0.461 OA
BRANCH  10  11
ATOM     11  C   UNL     1       1.378  -0.138   4.219  0.00  0.00    +0.170 C 
ATOM     12  C   UNL     1       0.808  -1.467   4.707  0.00  0.00    +0.052 C 
ATOM     13  C   UNL     1       0.457   0.479   3.173  0.00  0.00    +0.052 C 
ENDBRANCH  10  11
ENDBRANCH   8  10
ENDBRANCH   7   8
ENDBRANCH   4   7
ENDBRANCH   2   4
BRANCH   2  14
ATOM     14  O   UNL     1       6.544   1.194   0.510  0.00  0.00    -0.413 OA
BRANCH  14  15
ATOM     15  C   UNL     1       7.122   2.437   0.707  0.00  0.00    +0.131 A 
ATOM     16  C   UNL     1       8.512   2.488   0.765  0.00  0.00    +0.046 A 
ATOM     17  C   UNL     1       9.158   3.704   1.016  0.00  0.00    +0.004 A 
ATOM     18  C   UNL     1       8.419   4.872   1.204  0.00  0.00    +0.000 A 
ATOM     19  C   UNL     1       7.030   4.828   1.137  0.00  0.00    +0.004 A 
ATOM     20  C   UNL     1       6.382   3.617   0.889  0.00  0.00    +0.046 A 
ENDBRANCH  14  15
ENDBRANCH   2  14
ENDBRANCH   1   2
BRANCH   1  21
ATOM     21  C   UNL     1       3.823   0.883  -1.944  0.00  0.00    +0.206 C 
BRANCH  21  22
ATOM     22  C   UNL     1       3.571   2.389  -2.153  0.00  0.00    +0.179 C 
ATOM     23  O   UNL     1       2.408   2.591  -2.981  0.00  0.00    -0.345 OA
ATOM     24  C   UNL     1       2.622   3.775  -3.794  0.00  0.00    +0.263 C 
ATOM     25  C   UNL     1       3.980   4.382  -3.376  0.00  0.00    +0.182 C 
ATOM     26  C   UNL     1       3.908   5.503  -2.342  0.00  0.00    +0.055 C 
ATOM     27  F   UNL     1       4.660   4.873  -4.447  0.00  0.00    -0.235 F 
ATOM     28  C   UNL     1       4.708   3.147  -2.833  0.00  0.00    +0.187 C 
BRANCH  24  29
ATOM     29  N   UNL     1       1.440   4.655  -3.742  0.00  0.00    -0.271 N 
ATOM     30  C   UNL     1       1.355   5.653  -4.707  0.00  0.00    +0.331 A 
ATOM     31  O   UNL     1       2.223   5.888  -5.539  0.00  0.00    -0.246 OA
ATOM     32  N   UNL     1       0.194   6.389  -4.707  0.00  0.00    -0.275 N 
ATOM     33  H   UNL     1       0.101   7.065  -5.448  0.00  0.00    +0.173 HD
ATOM     34  C   UNL     1      -0.926   6.102  -3.988  0.00  0.00    +0.254 A 
ATOM     35  O   UNL     1      -2.011   6.636  -4.192  0.00  0.00    -0.268 OA
ATOM     36  C   UNL     1      -0.761   5.084  -2.941  0.00  0.00    +0.088 A 
ATOM     37  C   UNL     1       0.393   4.414  -2.869  0.00  0.00    +0.098 A 
ENDBRANCH  24  29
BRANCH  28  38
ATOM     38  O   UNL     1       5.253   2.371  -3.904  0.00  0.00    -0.386 OA
ATOM     39  H   UNL     1       5.797   1.660  -3.517  0.00  0.00    +0.210 HD
ENDBRANCH  28  38
ENDBRANCH  21  22
ENDBRANCH   1  21
TORSDOF 12
