REMARK  Name = 
REMARK  11 active torsions:
REMARK  status: ('A' for Active; 'I' for Inactive)
REMARK    1  A    between atoms: C_1  and  C_2
REMARK    2  A    between atoms: N_4  and  C_5
REMARK    3  A    between atoms: C_7  and  N_26
REMARK    4  A    between atoms: C_10  and  C_23
REMARK    5  A    between atoms: C_13  and  C_15
REMARK    6  A    between atoms: C_15  and  C_17
REMARK    7  A    between atoms: C_15  and  O_22
REMARK    8  A    between atoms: C_17  and  C_19
REMARK    9  A    between atoms: C_17  and  O_21
REMARK   10  A    between atoms: C_19  and  O_20
REMARK   11  A    between atoms: C_23  and  O_25
REMARK                            x       y       z     vdW  Elec       q    Type
REMARK                         _______ _______ _______ _____ _____    ______ ____
ROOT
ATOM      1  C   UNL     1       4.707  -1.203   0.147  0.00  0.00    +0.145 C 
ATOM      2  C   UNL     1       5.327  -1.534  -1.241  0.00  0.00    +0.174 C 
ATOM      3  O   UNL     1       4.867  -2.843  -1.676  0.00  0.00    -0.357 OA
ATOM      4  C   UNL     1       5.208  -3.917  -0.770  0.00  0.00    +0.230 C 
ATOM      5  C   UNL     1       4.643  -3.667   0.624  0.00  0.00    +0.089 C 
ATOM      6  C   UNL     1       5.107  -2.311   1.147  0.00  0.00    +0.214 C 
ENDROOT
BRANCH   6   7
ATOM      7  N   UNL     1       4.478  -2.027   2.443  0.00  0.00    -0.108 NA
ATOM      8  C   UNL     1       5.056  -2.367   3.528  0.00  0.00    +0.377 C 
ATOM      9  N   UNL     1       4.471  -2.105   4.714  0.00  0.00    -0.289 N 
ATOM     10  H   UNL     1       4.561  -2.866   5.376  0.00  0.00    +0.255 HD
ATOM     11  H   UNL     1       3.495  -1.858   4.586  0.00  0.00    +0.255 HD
ATOM     12  N   UNL     1       6.236  -2.993   3.736  0.00  0.00    -0.289 N 
ATOM     13  H   UNL     1       6.727  -2.660   4.560  0.00  0.00    +0.255 HD
ATOM     14  H   UNL     1       6.861  -3.076   2.948  0.00  0.00    +0.255 HD
ENDBRANCH   6   7
BRANCH   1  17
ATOM     15  C   UNL     1       5.042   2.521   0.832  0.00  0.00    +0.109 C 
ATOM     16  C   UNL     1       4.698   1.282   0.049  0.00  0.00    +0.210 C 
ATOM     17  N   UNL     1       5.058   0.114   0.696  0.00  0.00    -0.307 N 
ATOM     18  H   UNL     1       4.984   0.153   1.712  0.00  0.00    +0.149 HD
ATOM     19  O   UNL     1       4.198   1.314  -1.068  0.00  0.00    -0.276 OA
ENDBRANCH   1  17
BRANCH   4  20
ATOM     20  C   UNL     1       4.659  -5.234  -1.326  0.00  0.00    +0.334 C 
ATOM     21  O   UNL     1       4.807  -6.325  -0.795  0.00  0.00    -0.248 OA
BRANCH  20  22
ATOM     22  O   UNL     1       3.986  -5.061  -2.489  0.00  0.00    -0.479 OA
ATOM     23  H   UNL     1       3.971  -4.102  -2.706  0.00  0.00    +0.295 HD
ENDBRANCH  20  22
ENDBRANCH   4  20
BRANCH   2  24
ATOM     24  C   UNL     1       6.885  -1.408  -1.321  0.00  0.00    +0.176 C 
BRANCH  24  25
ATOM     25  O   UNL     1       7.369  -0.165  -0.815  0.00  0.00    -0.387 OA
ATOM     26  H   UNL     1       6.874   0.047  -0.002  0.00  0.00    +0.210 HD
ENDBRANCH  24  25
BRANCH  24  27
ATOM     27  C   UNL     1       7.394  -1.580  -2.769  0.00  0.00    +0.171 C 
BRANCH  27  28
ATOM     28  O   UNL     1       7.046  -2.863  -3.312  0.00  0.00    -0.387 OA
ATOM     29  H   UNL     1       6.072  -2.889  -3.361  0.00  0.00    +0.210 HD
ENDBRANCH  27  28
BRANCH  27  30
ATOM     30  C   UNL     1       8.922  -1.461  -2.851  0.00  0.00    +0.189 C 
BRANCH  30  31
ATOM     31  O   UNL     1       9.333  -1.595  -4.214  0.00  0.00    -0.392 OA
ATOM     32  H   UNL     1       8.778  -2.311  -4.579  0.00  0.00    +0.210 HD
ENDBRANCH  30  31
ENDBRANCH  27  30
ENDBRANCH  24  27
ENDBRANCH   2  24
TORSDOF 10
