REMARK  Name = 
REMARK  5 active torsions:
REMARK  status: ('A' for Active; 'I' for Inactive)
REMARK    1  A    between atoms: C3*_2  and  O3*_19
REMARK    2  A    between atoms: C4*_3  and  C5*_17
REMARK    3  A    between atoms: C1*_5  and  N_6
REMARK    4  A    between atoms: C_8  and  C_14
REMARK    5  A    between atoms: C5*_17  and  O5*_18
REMARK                            x       y       z     vdW  Elec       q    Type
REMARK                         _______ _______ _______ _____ _____    ______ ____
ROOT
ATOM      1  N   UNL     1       1.511  -1.791  -1.015  0.00  0.00    -0.258 N 
ATOM      2  C   UNL     1       1.426  -3.168  -0.948  0.00  0.00    +0.310 C 
ATOM      3  O   UNL     1       0.594  -3.771  -0.278  0.00  0.00    -0.252 OA
ATOM      4  N   UNL     1       2.395  -3.846  -1.640  0.00  0.00    -0.239 N 
ATOM      5  H   UNL     1       2.347  -4.853  -1.576  0.00  0.00    +0.159 HD
ATOM      6  C   UNL     1       3.622  -3.343  -2.001  0.00  0.00    +0.229 C 
ATOM      7  O   UNL     1       4.532  -4.105  -2.320  0.00  0.00    -0.275 OA
ATOM      8  C   UNL     1       3.795  -1.831  -1.863  0.00  0.00    +0.116 C 
ATOM      9  C   UNL     1       2.417  -1.190  -1.988  0.00  0.00    +0.128 C 
ENDROOT
BRANCH   1  11
ATOM     10  C2* UNL     1      -0.772  -1.033  -0.274  0.00  0.00    +0.086 C 
ATOM     11  C1* UNL     1       0.740  -1.001  -0.072  0.00  0.00    +0.212 C 
ATOM     12  O4* UNL     1       1.152   0.374  -0.103  0.00  0.00    -0.350 OA
ATOM     13  C4* UNL     1      -0.021   1.212  -0.211  0.00  0.00    +0.174 C 
ATOM     14  C3* UNL     1      -1.186   0.332   0.222  0.00  0.00    +0.150 C 
BRANCH  14  15
ATOM     15  O3* UNL     1      -1.299   0.315   1.648  0.00  0.00    -0.389 OA
ATOM     16  H3* UNL     1      -0.407   0.280   2.038  0.00  0.00    +0.210 HD
ENDBRANCH  14  15
BRANCH  13  17
ATOM     17  C5* UNL     1      -0.177   1.715  -1.654  0.00  0.00    +0.190 C 
BRANCH  17  18
ATOM     18  O5* UNL     1       0.944   2.495  -2.066  0.00  0.00    -0.392 OA
ATOM     19  H5* UNL     1       1.186   3.091  -1.337  0.00  0.00    +0.210 HD
ENDBRANCH  17  18
ENDBRANCH  13  17
ENDBRANCH   1  11
BRANCH   8  20
ATOM     20  C   UNL     1       4.747  -1.308  -2.907  0.00  0.00    -0.005 C 
ATOM     21  C   UNL     1       5.885  -0.659  -2.616  0.00  0.00    +0.047 C 
ATOM     22 BR   UNL     1       7.071  -0.027  -3.890  0.00  0.00    -0.059 Br
ENDBRANCH   8  20
TORSDOF 5
