REMARK  Name = 
REMARK  19 active torsions:
REMARK  status: ('A' for Active; 'I' for Inactive)
REMARK    1  A    between atoms: C_1  and  C_2
REMARK    2  A    between atoms: C_2  and  C_3
REMARK    3  A    between atoms: C_2  and  C_4
REMARK    4  A    between atoms: C_4  and  C_5
REMARK    5  A    between atoms: C_4  and  N_50
REMARK    6  A    between atoms: C_11  and  C_12
REMARK    7  A    between atoms: C_15  and  C_17
REMARK    8  A    between atoms: C_20  and  C_23
REMARK    9  A    between atoms: C_26  and  C_29
REMARK   10  A    between atoms: C_32  and  C_34
REMARK   11  A    between atoms: C_39  and  C_41
REMARK   12  A    between atoms: C_41  and  C_42
REMARK   13  A    between atoms: C_41  and  N_45
REMARK   14  A    between atoms: C_42  and  C_43
REMARK   15  A    between atoms: C_42  and  C_44
REMARK   16  A    between atoms: C_46  and  O_48
REMARK   17  A    between atoms: O_48  and  C_49
REMARK   18  A    between atoms: C_51  and  O_53
REMARK   19  A    between atoms: O_53  and  C_54
REMARK                            x       y       z     vdW  Elec       q    Type
REMARK                         _______ _______ _______ _____ _____    ______ ____
ROOT
ATOM      1  C   UNL     1       3.084   6.097  -4.312  0.00  0.00    -0.000 A 
ATOM      2  C   UNL     1       3.557   4.968  -4.989  0.00  0.00    +0.010 A 
ATOM      3  C   UNL     1       4.240   5.099  -6.201  0.00  0.00    +0.009 A 
ATOM      4  C   UNL     1       4.453   6.357  -6.781  0.00  0.00    -0.018 A 
ATOM      5  C   UNL     1       4.025   7.484  -6.058  0.00  0.00    +0.009 A 
ATOM      6  C   UNL     1       3.357   7.359  -4.840  0.00  0.00    +0.010 A 
ENDROOT
BRANCH   1  10
ATOM      7  C   UNL     1       1.472   6.351  -1.082  0.00  0.00    +0.128 A 
ATOM      8  N   UNL     1       2.259   6.859  -2.084  0.00  0.00    -0.340 N 
ATOM      9  H   UNL     1       2.756   7.738  -2.048  0.00  0.00    +0.167 HD
ATOM     10  C   UNL     1       2.302   5.941  -3.102  0.00  0.00    +0.066 A 
ATOM     11  C   UNL     1       1.453   4.935  -2.682  0.00  0.00    +0.139 A 
ATOM     12  N   UNL     1       0.946   5.197  -1.439  0.00  0.00    -0.238 NA
BRANCH   7  15
ATOM     13  C   UNL     1      -0.595   8.716  -0.425  0.00  0.00    +0.237 C 
ATOM     14  N   UNL     1       0.671   8.380   0.060  0.00  0.00    -0.290 N 
ATOM     15  C   UNL     1       1.261   7.048   0.216  0.00  0.00    +0.142 C 
ATOM     16  C   UNL     1       2.605   7.279   0.938  0.00  0.00    +0.032 C 
ATOM     17  C   UNL     1       2.783   8.794   0.978  0.00  0.00    +0.021 C 
ATOM     18  C   UNL     1       1.364   9.323   0.919  0.00  0.00    +0.108 C 
ATOM     19  O   UNL     1      -1.035   9.857  -0.259  0.00  0.00    -0.274 OA
BRANCH  13  20
ATOM     20  C   UNL     1      -1.410   7.635  -1.196  0.00  0.00    +0.165 C 
BRANCH  20  21
ATOM     21  N   UNL     1      -1.901   6.645  -0.244  0.00  0.00    -0.270 N 
ATOM     22  H   UNL     1      -1.624   5.678  -0.359  0.00  0.00    +0.153 HD
ATOM     23  C   UNL     1      -2.908   6.890   0.641  0.00  0.00    +0.401 C 
ATOM     24  O   UNL     1      -3.437   7.968   0.843  0.00  0.00    -0.226 OA
BRANCH  23  25
ATOM     25  O   UNL     1      -3.246   5.729   1.257  0.00  0.00    -0.454 OA
ATOM     26  C   UNL     1      -4.328   5.865   2.179  0.00  0.00    +0.282 C 
ENDBRANCH  23  25
ENDBRANCH  20  21
BRANCH  20  28
ATOM     27  C   UNL     1      -1.975   9.148  -3.186  0.00  0.00    +0.009 C 
ATOM     28  C   UNL     1      -2.521   8.162  -2.145  0.00  0.00    +0.012 C 
ATOM     29  C   UNL     1      -3.174   6.990  -2.900  0.00  0.00    +0.009 C 
ENDBRANCH  20  28
ENDBRANCH  13  20
ENDBRANCH   7  15
ENDBRANCH   1  10
BRANCH   4  30
ATOM     30  C   UNL     1       5.031   6.503  -8.130  0.00  0.00    -0.018 A 
ATOM     31  C   UNL     1       4.791   5.547  -9.134  0.00  0.00    +0.009 A 
ATOM     32  C   UNL     1       5.263   5.723 -10.435  0.00  0.00    +0.010 A 
ATOM     33  C   UNL     1       5.979   6.870 -10.775  0.00  0.00    -0.000 A 
ATOM     34  C   UNL     1       6.238   7.823  -9.786  0.00  0.00    +0.010 A 
ATOM     35  C   UNL     1       5.782   7.634  -8.482  0.00  0.00    +0.009 A 
BRANCH  33  36
ATOM     36  C   UNL     1       6.479   7.056 -12.122  0.00  0.00    +0.066 A 
ATOM     37  N   UNL     1       6.612   8.282 -12.722  0.00  0.00    -0.340 N 
ATOM     38  H   UNL     1       6.348   9.169 -12.312  0.00  0.00    +0.167 HD
ATOM     39  C   UNL     1       7.251   8.111 -13.920  0.00  0.00    +0.128 A 
ATOM     40  N   UNL     1       7.457   6.830 -14.161  0.00  0.00    -0.238 NA
ATOM     41  C   UNL     1       6.927   6.171 -13.081  0.00  0.00    +0.139 A 
BRANCH  39  42
ATOM     42  C   UNL     1       7.736   9.286 -14.683  0.00  0.00    +0.142 C 
ATOM     43  N   UNL     1       7.918   9.084 -16.119  0.00  0.00    -0.290 N 
ATOM     44  C   UNL     1       7.051   8.620 -17.093  0.00  0.00    +0.237 C 
ATOM     45  O   UNL     1       7.435   8.622 -18.271  0.00  0.00    -0.274 OA
ATOM     46  C   UNL     1       9.179   9.682 -16.550  0.00  0.00    +0.108 C 
ATOM     47  C   UNL     1       9.750  10.399 -15.335  0.00  0.00    +0.021 C 
ATOM     48  C   UNL     1       9.154   9.624 -14.181  0.00  0.00    +0.032 C 
BRANCH  44  49
ATOM     49  C   UNL     1       5.672   7.992 -16.727  0.00  0.00    +0.165 C 
BRANCH  49  50
ATOM     50  N   UNL     1       5.827   6.548 -16.586  0.00  0.00    -0.270 N 
ATOM     51  H   UNL     1       6.575   6.072 -17.071  0.00  0.00    +0.153 HD
ATOM     52  C   UNL     1       5.000   5.782 -15.827  0.00  0.00    +0.401 C 
ATOM     53  O   UNL     1       4.048   6.198 -15.181  0.00  0.00    -0.226 OA
BRANCH  52  54
ATOM     54  O   UNL     1       5.374   4.480 -15.916  0.00  0.00    -0.454 OA
ATOM     55  C   UNL     1       4.570   3.585 -15.145  0.00  0.00    +0.282 C 
ENDBRANCH  52  54
ENDBRANCH  49  50
BRANCH  49  56
ATOM     56  C   UNL     1       4.553   8.268 -17.779  0.00  0.00    +0.012 C 
ATOM     57  C   UNL     1       4.809   7.670 -19.170  0.00  0.00    +0.009 C 
ATOM     58  C   UNL     1       4.222   9.756 -17.885  0.00  0.00    +0.009 C 
ENDBRANCH  49  56
ENDBRANCH  44  49
ENDBRANCH  39  42
ENDBRANCH  33  36
ENDBRANCH   4  30
TORSDOF 13
