REMARK  Name = 
REMARK  19 active torsions:
REMARK  status: ('A' for Active; 'I' for Inactive)
REMARK    1  A    between atoms: C_1  and  C_2
REMARK    2  A    between atoms: C_2  and  C_3
REMARK    3  A    between atoms: C_2  and  C_4
REMARK    4  A    between atoms: C_4  and  C_5
REMARK    5  A    between atoms: C_4  and  N_50
REMARK    6  A    between atoms: C_11  and  C_12
REMARK    7  A    between atoms: C_15  and  C_17
REMARK    8  A    between atoms: C_20  and  C_23
REMARK    9  A    between atoms: C_26  and  C_29
REMARK   10  A    between atoms: C_32  and  C_34
REMARK   11  A    between atoms: C_39  and  C_41
REMARK   12  A    between atoms: C_41  and  C_42
REMARK   13  A    between atoms: C_41  and  N_45
REMARK   14  A    between atoms: C_42  and  C_43
REMARK   15  A    between atoms: C_42  and  C_44
REMARK   16  A    between atoms: C_46  and  O_48
REMARK   17  A    between atoms: O_48  and  C_49
REMARK   18  A    between atoms: C_51  and  O_53
REMARK   19  A    between atoms: O_53  and  C_54
REMARK                            x       y       z     vdW  Elec       q    Type
REMARK                         _______ _______ _______ _____ _____    ______ ____
ROOT
ATOM      1  C   UNL     1       3.497   3.959  -5.984  0.00  0.00    -0.000 A 
ATOM      2  C   UNL     1       4.144   2.885  -6.600  0.00  0.00    +0.010 A 
ATOM      3  C   UNL     1       5.022   3.104  -7.663  0.00  0.00    +0.009 A 
ATOM      4  C   UNL     1       5.256   4.397  -8.155  0.00  0.00    -0.018 A 
ATOM      5  C   UNL     1       4.643   5.468  -7.485  0.00  0.00    +0.009 A 
ATOM      6  C   UNL     1       3.781   5.256  -6.412  0.00  0.00    +0.010 A 
ENDROOT
BRANCH   1  10
ATOM      7  C   UNL     1       1.127   4.122  -3.259  0.00  0.00    +0.128 A 
ATOM      8  N   UNL     1       2.176   4.627  -3.978  0.00  0.00    -0.340 N 
ATOM      9  H   UNL     1       2.593   5.537  -3.838  0.00  0.00    +0.167 HD
ATOM     10  C   UNL     1       2.496   3.725  -4.961  0.00  0.00    +0.066 A 
ATOM     11  C   UNL     1       1.627   2.674  -4.754  0.00  0.00    +0.139 A 
ATOM     12  N   UNL     1       0.788   2.927  -3.705  0.00  0.00    -0.238 NA
BRANCH   7  15
ATOM     13  C   UNL     1      -0.978   6.518  -3.600  0.00  0.00    +0.237 C 
ATOM     14  N   UNL     1      -0.046   6.202  -2.610  0.00  0.00    -0.290 N 
ATOM     15  C   UNL     1       0.445   4.888  -2.182  0.00  0.00    +0.142 C 
ATOM     16  C   UNL     1       1.407   5.193  -1.013  0.00  0.00    +0.032 C 
ATOM     17  C   UNL     1       1.437   6.716  -0.898  0.00  0.00    +0.021 C 
ATOM     18  C   UNL     1       0.128   7.144  -1.521  0.00  0.00    +0.108 C 
ATOM     19  O   UNL     1      -1.507   7.631  -3.595  0.00  0.00    -0.274 OA
BRANCH  13  20
ATOM     20  C   UNL     1      -1.193   5.530  -4.787  0.00  0.00    +0.165 C 
BRANCH  20  21
ATOM     21  N   UNL     1      -1.690   4.252  -4.300  0.00  0.00    -0.270 N 
ATOM     22  H   UNL     1      -1.161   3.405  -4.489  0.00  0.00    +0.153 HD
ATOM     23  C   UNL     1      -2.914   4.103  -3.737  0.00  0.00    +0.401 C 
ATOM     24  O   UNL     1      -3.646   5.017  -3.392  0.00  0.00    -0.226 OA
BRANCH  23  25
ATOM     25  O   UNL     1      -3.207   2.786  -3.635  0.00  0.00    -0.454 OA
ATOM     26  C   UNL     1      -4.525   2.550  -3.142  0.00  0.00    +0.282 C 
ENDBRANCH  23  25
ENDBRANCH  20  21
BRANCH  20  28
ATOM     27  C   UNL     1      -1.507   7.361  -6.575  0.00  0.00    +0.009 C 
ATOM     28  C   UNL     1      -2.055   6.064  -5.968  0.00  0.00    +0.012 C 
ATOM     29  C   UNL     1      -2.130   5.021  -7.100  0.00  0.00    +0.009 C 
ENDBRANCH  20  28
ENDBRANCH  13  20
ENDBRANCH   7  15
ENDBRANCH   1  10
BRANCH   4  30
ATOM     30  C   UNL     1       6.046   4.635  -9.377  0.00  0.00    -0.018 A 
ATOM     31  C   UNL     1       6.048   3.712 -10.437  0.00  0.00    +0.009 A 
ATOM     32  C   UNL     1       6.717   3.979 -11.633  0.00  0.00    +0.010 A 
ATOM     33  C   UNL     1       7.393   5.187 -11.808  0.00  0.00    -0.000 A 
ATOM     34  C   UNL     1       7.413   6.107 -10.756  0.00  0.00    +0.010 A 
ATOM     35  C   UNL     1       6.762   5.828  -9.556  0.00  0.00    +0.009 A 
BRANCH  33  36
ATOM     36  C   UNL     1       8.098   5.469 -13.045  0.00  0.00    +0.066 A 
ATOM     37  N   UNL     1       8.340   6.737 -13.509  0.00  0.00    -0.340 N 
ATOM     38  H   UNL     1       8.033   7.593 -13.069  0.00  0.00    +0.167 HD
ATOM     39  C   UNL     1       9.205   6.650 -14.570  0.00  0.00    +0.128 A 
ATOM     40  N   UNL     1       9.376   5.392 -14.918  0.00  0.00    -0.238 NA
ATOM     41  C   UNL     1       8.704   4.654 -13.977  0.00  0.00    +0.139 A 
BRANCH  39  42
ATOM     42  C   UNL     1       9.887   7.871 -15.072  0.00  0.00    +0.142 C 
ATOM     43  N   UNL     1      10.474   7.783 -16.410  0.00  0.00    -0.290 N 
ATOM     44  C   UNL     1       9.873   7.532 -17.631  0.00  0.00    +0.237 C 
ATOM     45  O   UNL     1      10.470   7.839 -18.668  0.00  0.00    -0.274 OA
ATOM     46  C   UNL     1      11.798   8.408 -16.411  0.00  0.00    +0.108 C 
ATOM     47  C   UNL     1      11.986   9.021 -15.032  0.00  0.00    +0.021 C 
ATOM     48  C   UNL     1      11.095   8.161 -14.161  0.00  0.00    +0.032 C 
BRANCH  44  49
ATOM     49  C   UNL     1       8.503   6.795 -17.711  0.00  0.00    +0.165 C 
BRANCH  49  50
ATOM     50  N   UNL     1       8.727   5.353 -17.585  0.00  0.00    -0.270 N 
ATOM     51  H   UNL     1       8.709   4.953 -16.652  0.00  0.00    +0.153 HD
ATOM     52  C   UNL     1       9.399   4.603 -18.502  0.00  0.00    +0.401 C 
ATOM     53  O   UNL     1       9.829   4.994 -19.574  0.00  0.00    -0.226 OA
BRANCH  52  54
ATOM     54  O   UNL     1       9.539   3.335 -18.036  0.00  0.00    -0.454 OA
ATOM     55  C   UNL     1      10.321   2.491 -18.884  0.00  0.00    +0.282 C 
ENDBRANCH  52  54
ENDBRANCH  49  50
BRANCH  49  56
ATOM     56  C   UNL     1       7.690   7.145 -18.989  0.00  0.00    +0.012 C 
ATOM     57  C   UNL     1       7.399   8.645 -19.099  0.00  0.00    +0.009 C 
ATOM     58  C   UNL     1       6.356   6.381 -19.032  0.00  0.00    +0.009 C 
ENDBRANCH  49  56
ENDBRANCH  44  49
ENDBRANCH  39  42
ENDBRANCH  33  36
ENDBRANCH   4  30
TORSDOF 13
