REMARK  Name = 
REMARK  21 active torsions:
REMARK  status: ('A' for Active; 'I' for Inactive)
REMARK    1  A    between atoms: C_1  and  C_2
REMARK    2  A    between atoms: C_2  and  C_3
REMARK    3  A    between atoms: C_2  and  C_4
REMARK    4  A    between atoms: C_9  and  C_12
REMARK    5  A    between atoms: C_18  and  O_21
REMARK    6  A    between atoms: O_21  and  C_22
REMARK    7  A    between atoms: C_23  and  O_25
REMARK    8  A    between atoms: O_25  and  C_26
REMARK    9  A    between atoms: C_28  and  C_47
REMARK   10  A    between atoms: C_31  and  C_33
REMARK   11  A    between atoms: C_33  and  C_34
REMARK   12  A    between atoms: C_33  and  N_38
REMARK   13  A    between atoms: C_34  and  C_35
REMARK   14  A    between atoms: C_34  and  C_36
REMARK   15  A    between atoms: C_34  and  C_37
REMARK   16  A    between atoms: C_39  and  O_41
REMARK   17  A    between atoms: O_41  and  C_42
REMARK   18  A    between atoms: N_49  and  C_50
REMARK   19  A    between atoms: C_50  and  C_55
REMARK   20  A    between atoms: C_52  and  C_53
REMARK   21  A    between atoms: C_55  and  O_57
REMARK                            x       y       z     vdW  Elec       q    Type
REMARK                         _______ _______ _______ _____ _____    ______ ____
ROOT
ATOM      1  C   UNL     1       7.331  -2.862  -9.309  0.00  0.00    +0.193 C 
ATOM      2  C   UNL     1       8.518  -3.423 -10.115  0.00  0.00    +0.153 C 
ATOM      3  N   UNL     1       8.192  -4.839 -10.273  0.00  0.00    -0.285 N 
ATOM      4  C   UNL     1       8.986  -5.837 -10.797  0.00  0.00    +0.237 C 
ATOM      5  O   UNL     1       8.464  -6.940 -10.988  0.00  0.00    -0.274 OA
ATOM      6  C   UNL     1       6.752  -5.062 -10.014  0.00  0.00    +0.166 C 
ATOM      7  C   UNL     1       6.172  -3.649  -9.924  0.00  0.00    +0.078 C 
ENDROOT
BRANCH   6   8
ATOM      8  C   UNL     1       6.432  -5.839  -8.711  0.00  0.00    +0.235 C 
ATOM      9  N   UNL     1       6.982  -7.090  -8.588  0.00  0.00    -0.298 N 
ATOM     10  H   UNL     1       7.483  -7.489  -9.384  0.00  0.00    +0.150 HD
ATOM     11  O   UNL     1       5.625  -5.440  -7.869  0.00  0.00    -0.274 OA
BRANCH   9  12
ATOM     12  C   UNL     1       6.651  -7.949  -7.452  0.00  0.00    +0.138 C 
ATOM     13  C   UNL     1       7.119  -7.523  -6.059  0.00  0.00    +0.048 C 
ATOM     14  C   UNL     1       7.828  -8.631  -6.778  0.00  0.00    +0.048 C 
BRANCH  12  15
ATOM     15  C   UNL     1       5.335  -8.686  -7.558  0.00  0.00    +0.329 C 
ATOM     16  O   UNL     1       5.265  -9.906  -7.589  0.00  0.00    -0.249 OA
BRANCH  15  17
ATOM     17  O   UNL     1       4.257  -7.871  -7.654  0.00  0.00    -0.479 OA
ATOM     18  H   UNL     1       4.502  -6.917  -7.560  0.00  0.00    +0.295 HD
ENDBRANCH  15  17
ENDBRANCH  12  15
BRANCH  13  19
ATOM     19  C   UNL     1       6.448  -7.888  -4.806  0.00  0.00    -0.028 C 
ATOM     20  C   UNL     1       5.975  -7.019  -3.905  0.00  0.00    +0.004 C 
ENDBRANCH  13  19
ENDBRANCH   9  12
ENDBRANCH   6   8
BRANCH   1  21
ATOM     21  O   UNL     1       7.178  -1.465  -9.502  0.00  0.00    -0.486 OA
BRANCH  21  24
ATOM     22  C   UNL     1       5.125  -0.426  -6.619  0.00  0.00    +0.094 A 
ATOM     23  C   UNL     1       5.806  -1.278  -7.473  0.00  0.00    +0.076 A 
ATOM     24  C   UNL     1       6.446  -0.741  -8.585  0.00  0.00    +0.132 A 
ATOM     25  C   UNL     1       6.348   0.646  -8.833  0.00  0.00    +0.043 A 
ATOM     26  C   UNL     1       6.934   1.226  -9.975  0.00  0.00    +0.017 A 
ATOM     27  C   UNL     1       6.813   2.584 -10.248  0.00  0.00    +0.047 A 
ATOM     28  C   UNL     1       6.108   3.403  -9.378  0.00  0.00    +0.136 A 
ATOM     29  C   UNL     1       5.544   2.832  -8.216  0.00  0.00    +0.085 A 
ATOM     30 BR   UNL     1       4.600   3.969  -6.989  0.00  0.00    -0.044 Br
ATOM     31  C   UNL     1       5.638   1.456  -7.919  0.00  0.00    +0.093 A 
ATOM     32  N   UNL     1       5.062   0.913  -6.813  0.00  0.00    -0.244 NA
BRANCH  22  39
ATOM     33  C   UNL     1       2.474  -4.742  -4.973  0.00  0.00    +0.221 C 
ATOM     34  N   UNL     1       2.712  -3.760  -4.030  0.00  0.00    -0.264 N 
ATOM     35  H   UNL     1       2.335  -3.827  -3.097  0.00  0.00    +0.157 HD
ATOM     36  C   UNL     1       3.337  -2.588  -4.378  0.00  0.00    +0.165 A 
ATOM     37  S   UNL     1       3.282  -1.343  -3.212  0.00  0.00    -0.060 S 
ATOM     38  C   UNL     1       4.087  -0.291  -4.319  0.00  0.00    +0.078 A 
ATOM     39  C   UNL     1       4.403  -0.984  -5.474  0.00  0.00    +0.098 A 
ATOM     40  N   UNL     1       3.978  -2.307  -5.481  0.00  0.00    -0.223 NA
ATOM     41  O   UNL     1       2.734  -4.658  -6.168  0.00  0.00    -0.275 OA
BRANCH  33  43
ATOM     42  C   UNL     1       1.375  -6.935  -5.538  0.00  0.00    +0.017 C 
ATOM     43  C   UNL     1       1.798  -5.995  -4.405  0.00  0.00    +0.069 C 
ATOM     44  C   UNL     1       2.761  -6.749  -3.504  0.00  0.00    +0.017 C 
ENDBRANCH  33  43
ENDBRANCH  22  39
BRANCH  28  45
ATOM     45  O   UNL     1       5.924   4.749  -9.584  0.00  0.00    -0.494 OA
ATOM     46  C   UNL     1       6.398   5.300 -10.808  0.00  0.00    +0.277 C 
ENDBRANCH  28  45
ENDBRANCH  21  24
ENDBRANCH   1  21
BRANCH   4  47
ATOM     47  C   UNL     1      10.506  -5.567 -11.108  0.00  0.00    +0.168 C 
BRANCH  47  48
ATOM     48  N   UNL     1      10.692  -4.903 -12.410  0.00  0.00    -0.269 N 
ATOM     49  H   UNL     1      10.497  -5.418 -13.258  0.00  0.00    +0.153 HD
ATOM     50  C   UNL     1      11.385  -3.735 -12.575  0.00  0.00    +0.401 C 
ATOM     51  O   UNL     1      11.743  -3.004 -11.659  0.00  0.00    -0.226 OA
BRANCH  50  52
ATOM     52  O   UNL     1      11.603  -3.500 -13.899  0.00  0.00    -0.447 OA
BRANCH  52  53
ATOM     53  C   UNL     1      12.324  -2.298 -14.245  0.00  0.00    +0.178 C 
ATOM     54  C   UNL     1      12.106  -1.957 -15.728  0.00  0.00    +0.045 C 
ATOM     55  C   UNL     1      13.443  -1.448 -16.274  0.00  0.00    +0.004 C 
ATOM     56  C   UNL     1      14.388  -1.400 -15.083  0.00  0.00    +0.004 C 
ATOM     57  C   UNL     1      13.840  -2.456 -14.133  0.00  0.00    +0.045 C 
ENDBRANCH  52  53
ENDBRANCH  50  52
ENDBRANCH  47  48
BRANCH  47  58
ATOM     58  C   UNL     1      11.388  -6.881 -11.009  0.00  0.00    -0.011 C 
ATOM     59  C   UNL     1      11.250  -7.512  -9.604  0.00  0.00    +0.013 C 
ATOM     60  C   UNL     1      12.886  -6.544 -11.203  0.00  0.00    +0.013 C 
ATOM     61  C   UNL     1      11.030  -7.946 -12.070  0.00  0.00    +0.013 C 
ENDBRANCH  47  58
ENDBRANCH   4  47
TORSDOF 15
