REMARK  Name = 
REMARK  21 active torsions:
REMARK  status: ('A' for Active; 'I' for Inactive)
REMARK    1  A    between atoms: C_1  and  C_2
REMARK    2  A    between atoms: C_2  and  C_3
REMARK    3  A    between atoms: C_2  and  C_4
REMARK    4  A    between atoms: C_2  and  C_5
REMARK    5  A    between atoms: C_5  and  C_7
REMARK    6  A    between atoms: C_5  and  N_48
REMARK    7  A    between atoms: C_11  and  O_34
REMARK    8  A    between atoms: C_14  and  C_16
REMARK    9  A    between atoms: N_18  and  C_19
REMARK   10  A    between atoms: C_19  and  C_25
REMARK   11  A    between atoms: C_21  and  C_23
REMARK   12  A    between atoms: N_27  and  S_28
REMARK   13  A    between atoms: S_28  and  C_31
REMARK   14  A    between atoms: O_34  and  C_35
REMARK   15  A    between atoms: C_38  and  O_46
REMARK   16  A    between atoms: O_46  and  C_47
REMARK   17  A    between atoms: C_49  and  O_51
REMARK   18  A    between atoms: O_51  and  C_52
REMARK   19  A    between atoms: C_52  and  C_53
REMARK   20  A    between atoms: C_52  and  C_54
REMARK   21  A    between atoms: C_52  and  C_55
REMARK                            x       y       z     vdW  Elec       q    Type
REMARK                         _______ _______ _______ _____ _____    ______ ____
ROOT
ATOM      1  C   UNL     1      -5.654   1.377   3.023  0.00  0.00    +0.237 C 
ATOM      2  N   UNL     1      -5.069   2.615   2.812  0.00  0.00    -0.285 N 
ATOM      3  C   UNL     1      -3.900   3.029   2.012  0.00  0.00    +0.166 C 
ATOM      4  C   UNL     1      -4.071   4.556   1.821  0.00  0.00    +0.078 C 
ATOM      5  C   UNL     1      -5.479   4.883   2.336  0.00  0.00    +0.195 C 
ATOM      6  C   UNL     1      -5.692   3.803   3.389  0.00  0.00    +0.153 C 
ATOM      7  O   UNL     1      -6.730   1.303   3.636  0.00  0.00    -0.274 OA
ENDROOT
BRANCH   3   8
ATOM      8  C   UNL     1      -2.546   2.764   2.712  0.00  0.00    +0.234 C 
ATOM      9  N   UNL     1      -1.422   3.182   2.014  0.00  0.00    -0.299 N 
ATOM     10  H   UNL     1      -1.516   3.484   1.051  0.00  0.00    +0.150 HD
ATOM     11  O   UNL     1      -2.459   2.251   3.823  0.00  0.00    -0.274 OA
BRANCH   9  12
ATOM     12  C   UNL     1      -0.056   2.875   2.472  0.00  0.00    +0.119 C 
ATOM     13  C   UNL     1       0.546   1.508   2.133  0.00  0.00    +0.046 C 
ATOM     14  C   UNL     1       1.012   2.719   1.380  0.00  0.00    +0.046 C 
BRANCH  12  15
ATOM     15  C   UNL     1       0.447   3.558   3.754  0.00  0.00    +0.256 C 
ATOM     16  N   UNL     1      -0.490   3.765   4.766  0.00  0.00    -0.188 N 
ATOM     17  H   UNL     1      -1.351   3.213   4.736  0.00  0.00    +0.176 HD
ATOM     18  O   UNL     1       1.617   3.901   3.852  0.00  0.00    -0.272 OA
BRANCH  16  19
ATOM     19  S   UNL     1      -0.130   4.330   6.280  0.00  0.00    +0.048 S 
ATOM     20  O   UNL     1       0.371   3.209   7.045  0.00  0.00    -0.155 OA
ATOM     21  O   UNL     1      -1.306   5.055   6.718  0.00  0.00    -0.155 OA
BRANCH  19  22
ATOM     22  C   UNL     1       1.242   5.514   6.166  0.00  0.00    +0.151 C 
ATOM     23  C   UNL     1       1.060   6.819   6.892  0.00  0.00    +0.030 C 
ATOM     24  C   UNL     1       0.912   6.767   5.395  0.00  0.00    +0.030 C 
ENDBRANCH  19  22
ENDBRANCH  16  19
ENDBRANCH  12  15
BRANCH  13  25
ATOM     25  C   UNL     1      -0.242   0.503   1.407  0.00  0.00    -0.028 C 
ATOM     26  C   UNL     1       0.152  -0.158   0.311  0.00  0.00    +0.004 C 
ENDBRANCH  13  25
ENDBRANCH   9  12
ENDBRANCH   3   8
BRANCH   1  27
ATOM     27  C   UNL     1      -4.997   0.050   2.527  0.00  0.00    +0.168 C 
BRANCH  27  29
ATOM     28  C   UNL     1      -5.078   0.488   0.001  0.00  0.00    +0.013 C 
ATOM     29  C   UNL     1      -5.481  -0.477   1.123  0.00  0.00    -0.011 C 
ATOM     30  C   UNL     1      -4.814  -1.836   0.788  0.00  0.00    +0.013 C 
ATOM     31  C   UNL     1      -7.009  -0.684   1.059  0.00  0.00    +0.013 C 
ENDBRANCH  27  29
BRANCH  27  32
ATOM     32  N   UNL     1      -5.306  -0.948   3.571  0.00  0.00    -0.269 N 
ATOM     33  H   UNL     1      -6.231  -0.940   3.988  0.00  0.00    +0.153 HD
ATOM     34  C   UNL     1      -4.442  -1.927   3.952  0.00  0.00    +0.401 C 
ATOM     35  O   UNL     1      -3.294  -2.007   3.541  0.00  0.00    -0.226 OA
BRANCH  34  36
ATOM     36  O   UNL     1      -5.049  -2.815   4.782  0.00  0.00    -0.445 OA
BRANCH  36  37
ATOM     37  C   UNL     1      -4.325  -4.004   5.214  0.00  0.00    +0.107 C 
ATOM     38  C   UNL     1      -3.953  -4.899   4.022  0.00  0.00    +0.055 C 
ATOM     39  C   UNL     1      -5.286  -4.807   6.111  0.00  0.00    +0.055 C 
ATOM     40  C   UNL     1      -3.097  -3.628   6.052  0.00  0.00    +0.055 C 
ENDBRANCH  36  37
ENDBRANCH  34  36
ENDBRANCH  27  32
ENDBRANCH   1  27
BRANCH   5  41
ATOM     41  O   UNL     1      -6.469   4.692   1.316  0.00  0.00    -0.471 OA
BRANCH  41  42
ATOM     42  C   UNL     1      -6.452   5.659   0.331  0.00  0.00    +0.223 A 
ATOM     43  C   UNL     1      -6.838   5.266  -0.959  0.00  0.00    +0.049 A 
ATOM     44  C   UNL     1      -7.306   3.968  -1.262  0.00  0.00    +0.034 A 
ATOM     45  C   UNL     1      -7.583   3.601  -2.575  0.00  0.00    +0.042 A 
ATOM     46 CL   UNL     1      -8.096   1.998  -2.925  0.00  0.00    -0.084 Cl
ATOM     47  C   UNL     1      -7.422   4.519  -3.605  0.00  0.00    +0.021 A 
ATOM     48  C   UNL     1      -6.995   5.817  -3.314  0.00  0.00    +0.014 A 
ATOM     49  C   UNL     1      -6.693   6.218  -1.993  0.00  0.00    +0.030 A 
ATOM     50  C   UNL     1      -6.232   7.515  -1.673  0.00  0.00    +0.146 A 
ATOM     51  C   UNL     1      -5.924   7.788  -0.345  0.00  0.00    +0.160 A 
ATOM     52  N   UNL     1      -6.004   6.888   0.659  0.00  0.00    -0.217 NA
BRANCH  50  53
ATOM     53  O   UNL     1      -6.111   8.405  -2.709  0.00  0.00    -0.493 OA
ATOM     54  C   UNL     1      -5.612   9.702  -2.399  0.00  0.00    +0.277 C 
ENDBRANCH  50  53
ENDBRANCH  41  42
ENDBRANCH   5  41
TORSDOF 14
