REMARK  Name = 
REMARK  12 active torsions:
REMARK  status: ('A' for Active; 'I' for Inactive)
REMARK    1  A    between atoms: C_3  and  N_4
REMARK    2  A    between atoms: N_4  and  C_5
REMARK    3  A    between atoms: N_12  and  C_15
REMARK    4  A    between atoms: C_17  and  C_21
REMARK    5  A    between atoms: C_21  and  O_22
REMARK    6  A    between atoms: C_25  and  N_26
REMARK    7  A    between atoms: N_26  and  C_27
REMARK    8  A    between atoms: N_34  and  C_37
REMARK    9  A    between atoms: C_39  and  C_43
REMARK   10  A    between atoms: C_43  and  O_44
REMARK   11  A    between atoms: O_45  and  S_46
REMARK   12  A    between atoms: S_46  and  O_49
REMARK                            x       y       z     vdW  Elec       q    Type
REMARK                         _______ _______ _______ _____ _____    ______ ____
ROOT
ATOM      1  C   UNL     1       1.878  -2.627   1.467  0.00  0.00    +0.152 A 
ATOM      2  N   UNL     1       1.236  -3.605   0.805  0.00  0.00    -0.198 NA
ATOM      3  C   UNL     1       1.693  -4.855   0.984  0.00  0.00    +0.216 A 
ATOM      4  N   UNL     1       0.989  -5.798   0.259  0.00  0.00    -0.327 N 
ATOM      5  H   UNL     1       0.091  -5.375   0.021  0.00  0.00    +0.145 HD
ATOM      6  H   UNL     1       0.975  -6.681   0.723  0.00  0.00    +0.145 HD
ATOM      7  N   UNL     1       2.731  -5.255   1.759  0.00  0.00    -0.195 NA
ATOM      8  C   UNL     1       3.380  -4.211   2.328  0.00  0.00    +0.168 A 
ATOM      9  N   UNL     1       4.550  -4.131   3.051  0.00  0.00    -0.308 N 
ATOM     10  C   UNL     1       4.814  -2.809   3.303  0.00  0.00    +0.202 A 
ATOM     11  N   UNL     1       3.922  -2.024   2.766  0.00  0.00    -0.231 NA
ATOM     12  C   UNL     1       3.017  -2.897   2.216  0.00  0.00    +0.148 A 
ENDROOT
BRANCH   9  13
ATOM     13  C   UNL     1       5.409  -5.252   3.363  0.00  0.00    +0.113 C 
ATOM     14  C   UNL     1       5.954  -5.832   2.093  0.00  0.00    -0.006 C 
ATOM     15  C   UNL     1       7.243  -5.553   1.914  0.00  0.00    -0.023 C 
ATOM     16  C   UNL     1       7.826  -4.807   3.077  0.00  0.00    +0.039 C 
ATOM     17  C   UNL     1       6.707  -4.931   4.134  0.00  0.00    +0.039 C 
BRANCH  16  18
ATOM     18  C   UNL     1       8.239  -3.367   2.762  0.00  0.00    +0.163 C 
BRANCH  18  19
ATOM     19  O   UNL     1       8.710  -2.728   3.946  0.00  0.00    -0.394 OA
ATOM     20  H   UNL     1       9.454  -3.254   4.288  0.00  0.00    +0.209 HD
ENDBRANCH  18  19
ENDBRANCH  16  18
ENDBRANCH   9  13
BRANCH   1  21
ATOM     21  N   UNL     1       1.527  -0.817   1.200  0.00  0.00    -0.324 N 
ATOM     22  H   UNL     1       2.099  -0.015   1.855  0.00  0.00    +0.148 HD
BRANCH  21  24
ATOM     23  C   UNL     1      -0.029   0.883   0.000  0.00  0.00    +0.024 C 
ATOM     24  C   UNL     1       0.779  -0.417   0.000  0.00  0.00    +0.072 C 
ATOM     25  C   UNL     1      -0.751  -0.466   0.000  0.00  0.00    +0.024 C 
ENDBRANCH  21  24
ENDBRANCH   1  21
TORSDOF 5
REMARK  Name = 
REMARK  12 active torsions:
REMARK  status: ('A' for Active; 'I' for Inactive)
REMARK    1  A    between atoms: C_3  and  N_4
REMARK    2  A    between atoms: N_4  and  C_5
REMARK    3  A    between atoms: N_12  and  C_15
REMARK    4  A    between atoms: C_17  and  C_21
REMARK    5  A    between atoms: C_21  and  O_22
REMARK    6  A    between atoms: C_25  and  N_26
REMARK    7  A    between atoms: N_26  and  C_27
REMARK    8  A    between atoms: N_34  and  C_37
REMARK    9  A    between atoms: C_39  and  C_43
REMARK   10  A    between atoms: C_43  and  O_44
REMARK   11  A    between atoms: O_45  and  S_46
REMARK   12  A    between atoms: S_46  and  O_49
REMARK                            x       y       z     vdW  Elec       q    Type
REMARK                         _______ _______ _______ _____ _____    ______ ____
ROOT
ATOM      1  C   UNL     1       0.733  -0.613   2.901  0.00  0.00    +0.152 A 
ATOM      2  N   UNL     1       1.501  -0.905   3.990  0.00  0.00    -0.198 NA
ATOM      3  C   UNL     1       1.031  -0.644   5.215  0.00  0.00    +0.216 A 
ATOM      4  N   UNL     1       1.895  -0.982   6.235  0.00  0.00    -0.327 N 
ATOM      5  H   UNL     1       2.605  -1.617   5.893  0.00  0.00    +0.145 HD
ATOM      6  H   UNL     1       1.448  -1.173   7.116  0.00  0.00    +0.145 HD
ATOM      7  N   UNL     1      -0.156  -0.081   5.531  0.00  0.00    -0.195 NA
ATOM      8  C   UNL     1      -0.879   0.261   4.446  0.00  0.00    +0.168 A 
ATOM      9  N   UNL     1      -2.121   0.864   4.331  0.00  0.00    -0.308 N 
ATOM     10  C   UNL     1      -2.382   1.089   3.023  0.00  0.00    +0.202 A 
ATOM     11  N   UNL     1      -1.458   0.550   2.316  0.00  0.00    -0.231 NA
ATOM     12  C   UNL     1      -0.507   0.024   3.142  0.00  0.00    +0.148 A 
ENDROOT
BRANCH   9  13
ATOM     13  C   UNL     1      -3.176   1.129   5.270  0.00  0.00    +0.113 C 
ATOM     14  C   UNL     1      -4.390   0.293   4.913  0.00  0.00    -0.006 C 
ATOM     15  C   UNL     1      -4.539  -0.725   5.763  0.00  0.00    -0.023 C 
ATOM     16  C   UNL     1      -3.456  -0.724   6.809  0.00  0.00    +0.039 C 
ATOM     17  C   UNL     1      -2.892   0.702   6.693  0.00  0.00    +0.039 C 
BRANCH  16  18
ATOM     18  C   UNL     1      -2.451  -1.849   6.530  0.00  0.00    +0.163 C 
BRANCH  18  19
ATOM     19  O   UNL     1      -3.047  -3.112   6.829  0.00  0.00    -0.394 OA
ATOM     20  H   UNL     1      -3.699  -3.279   6.126  0.00  0.00    +0.209 HD
ENDBRANCH  18  19
ENDBRANCH  16  18
ENDBRANCH   9  13
BRANCH   1  21
ATOM     21  N   UNL     1       1.527  -0.817   1.200  0.00  0.00    -0.324 N 
ATOM     22  H   UNL     1       2.700  -0.984   1.142  0.00  0.00    +0.148 HD
BRANCH  21  24
ATOM     23  C   UNL     1      -0.029   0.883   0.000  0.00  0.00    +0.024 C 
ATOM     24  C   UNL     1       0.779  -0.417   0.000  0.00  0.00    +0.072 C 
ATOM     25  C   UNL     1      -0.751  -0.466   0.000  0.00  0.00    +0.024 C 
ENDBRANCH  21  24
ENDBRANCH   1  21
TORSDOF 5
REMARK  Name = 
REMARK  12 active torsions:
REMARK  status: ('A' for Active; 'I' for Inactive)
REMARK    1  A    between atoms: C_3  and  N_4
REMARK    2  A    between atoms: N_4  and  C_5
REMARK    3  A    between atoms: N_12  and  C_15
REMARK    4  A    between atoms: C_17  and  C_21
REMARK    5  A    between atoms: C_21  and  O_22
REMARK    6  A    between atoms: C_25  and  N_26
REMARK    7  A    between atoms: N_26  and  C_27
REMARK    8  A    between atoms: N_34  and  C_37
REMARK    9  A    between atoms: C_39  and  C_43
REMARK   10  A    between atoms: C_43  and  O_44
REMARK   11  A    between atoms: O_45  and  S_46
REMARK   12  A    between atoms: S_46  and  O_49
REMARK                            x       y       z     vdW  Elec       q    Type
REMARK                         _______ _______ _______ _____ _____    ______ ____
ROOT
ATOM      1  S   UNL     1       3.784   1.319  -2.240  0.00  0.00    +0.205 S 
ATOM      2  O   UNL     1       4.248   2.277  -1.270  0.00  0.00    -0.118 OA
ATOM      3  O   UNL     1       4.228   1.294  -3.608  0.00  0.00    -0.118 OA
ENDROOT
BRANCH   1   4
ATOM      4  O   UNL     1       2.193   1.443  -2.251  0.00  0.00    -0.231 OA
ATOM      5  H   UNL     1       1.954   1.856  -1.394  0.00  0.00    +0.247 HD
ENDBRANCH   1   4
BRANCH   1   6
ATOM      6  O   UNL     1       3.972  -0.155  -1.631  0.00  0.00    -0.231 OA
ATOM      7  H   UNL     1       3.392  -0.770  -2.125  0.00  0.00    +0.247 HD
ENDBRANCH   1   6
TORSDOF 2
