REMARK  Name = 
REMARK  16 active torsions:
REMARK  status: ('A' for Active; 'I' for Inactive)
REMARK    1  A    between atoms: C_1  and  C_2
REMARK    2  A    between atoms: C_2  and  C_3
REMARK    3  A    between atoms: C_2  and  O_4
REMARK    4  A    between atoms: O_4  and  C_5
REMARK    5  A    between atoms: C_5  and  C_7
REMARK    6  A    between atoms: C_7  and  C_8
REMARK    7  A    between atoms: C_7  and  N_9
REMARK    8  A    between atoms: N_9  and  P_10
REMARK    9  A    between atoms: P_10  and  O_12
REMARK   10  A    between atoms: P_10  and  O_30
REMARK   11  A    between atoms: O_12  and  C_13
REMARK   12  A    between atoms: C_13  and  C_14
REMARK   13  A    between atoms: C_15  and  O_29
REMARK   14  A    between atoms: C_16  and  C_27
REMARK   15  A    between atoms: C_17  and  N_19
REMARK   16  A    between atoms: O_30  and  C_31
REMARK                            x       y       z     vdW  Elec       q    Type
REMARK                         _______ _______ _______ _____ _____    ______ ____
ROOT
ATOM      1  O   UNL     1       5.991   4.049   3.380  0.00  0.00    -0.284 OA
ENDROOT
BRANCH   1   2
ATOM      2  P   UNL     1       6.994   4.273   2.094  0.00  0.00    +0.462 P 
ATOM      3  O   UNL     1       6.201   5.063   1.040  0.00  0.00    -0.228 OA
BRANCH   2   4
ATOM      4  N   UNL     1       6.401   2.779   1.330  0.00  0.00    -0.199 NA
ATOM      5  H   UNL     1       5.514   2.578   1.791  0.00  0.00    +0.135 HD
BRANCH   4   6
ATOM      6  C   UNL     1       7.339   1.650   1.515  0.00  0.00    +0.171 C 
ATOM      7  C   UNL     1       6.831   0.384   0.836  0.00  0.00    +0.036 C 
BRANCH   6   8
ATOM      8  C   UNL     1       7.582   1.338   2.998  0.00  0.00    +0.325 C 
ATOM      9  O   UNL     1       6.769   1.496   3.899  0.00  0.00    -0.249 OA
BRANCH   8  10
ATOM     10  O   UNL     1       8.845   0.855   3.163  0.00  0.00    -0.461 OA
BRANCH  10  12
ATOM     11  C   UNL     1       8.763  -0.963   4.759  0.00  0.00    +0.052 C 
ATOM     12  C   UNL     1       9.213   0.471   4.502  0.00  0.00    +0.170 C 
ATOM     13  C   UNL     1      10.729   0.590   4.599  0.00  0.00    +0.052 C 
ENDBRANCH  10  12
ENDBRANCH   8  10
ENDBRANCH   6   8
ENDBRANCH   4   6
ENDBRANCH   2   4
BRANCH   2  14
ATOM     14  O   UNL     1       7.571   5.725   2.836  0.00  0.00    -0.413 OA
BRANCH  14  15
ATOM     15  C   UNL     1       8.735   6.236   2.299  0.00  0.00    +0.131 A 
ATOM     16  C   UNL     1       9.581   6.934   3.154  0.00  0.00    +0.046 A 
ATOM     17  C   UNL     1      10.802   7.423   2.680  0.00  0.00    +0.004 A 
ATOM     18  C   UNL     1      11.174   7.221   1.349  0.00  0.00    +0.000 A 
ATOM     19  C   UNL     1      10.319   6.543   0.487  0.00  0.00    +0.004 A 
ATOM     20  C   UNL     1       9.098   6.060   0.958  0.00  0.00    +0.046 A 
ENDBRANCH  14  15
ENDBRANCH   2  14
ENDBRANCH   1   2
BRANCH   1  21
ATOM     21  C   UNL     1       5.032   5.068   3.673  0.00  0.00    +0.206 C 
BRANCH  21  22
ATOM     22  C   UNL     1       4.124   4.638   4.816  0.00  0.00    +0.178 C 
ATOM     23  O   UNL     1       4.882   4.434   6.025  0.00  0.00    -0.347 OA
ATOM     24  C   UNL     1       4.075   3.617   6.903  0.00  0.00    +0.249 C 
ATOM     25  C   UNL     1       2.992   2.945   6.005  0.00  0.00    +0.179 C 
ATOM     26  F   UNL     1       1.768   3.517   6.236  0.00  0.00    -0.235 F 
ATOM     27  C   UNL     1       2.868   1.442   6.192  0.00  0.00    +0.054 C 
ATOM     28  C   UNL     1       3.382   3.330   4.583  0.00  0.00    +0.186 C 
BRANCH  24  29
ATOM     29  N   UNL     1       3.545   4.482   7.971  0.00  0.00    -0.256 N 
ATOM     30  C   UNL     1       2.648   3.932   8.868  0.00  0.00    +0.310 C 
ATOM     31  O   UNL     1       2.346   2.743   8.906  0.00  0.00    -0.252 OA
ATOM     32  N   UNL     1       2.102   4.802   9.769  0.00  0.00    -0.240 N 
ATOM     33  H   UNL     1       1.405   4.414  10.387  0.00  0.00    +0.159 HD
ATOM     34  C   UNL     1       2.426   6.117   9.953  0.00  0.00    +0.222 C 
ATOM     35  O   UNL     1       1.881   6.795  10.822  0.00  0.00    -0.275 OA
ATOM     36  C   UNL     1       3.437   6.690   9.003  0.00  0.00    +0.115 C 
ATOM     37  C   UNL     1       4.340   5.589   8.484  0.00  0.00    +0.121 C 
ENDBRANCH  24  29
BRANCH  28  38
ATOM     38  O   UNL     1       4.143   2.316   3.926  0.00  0.00    -0.386 OA
ATOM     39  H   UNL     1       5.091   2.420   4.174  0.00  0.00    +0.210 HD
ENDBRANCH  28  38
ENDBRANCH  21  22
ENDBRANCH   1  21
TORSDOF 12
