REMARK  Name = 
REMARK  7 active torsions:
REMARK  status: ('A' for Active; 'I' for Inactive)
REMARK    1  A    between atoms: N_11  and  C_12
REMARK    2  A    between atoms: C_12  and  O_13
REMARK    3  A    between atoms: O_13  and  C_14
REMARK    4  A    between atoms: C_14  and  C_15
REMARK    5  A    between atoms: C_14  and  C_17
REMARK    6  A    between atoms: C_15  and  O_16
REMARK    7  A    between atoms: C_17  and  O_18
REMARK                            x       y       z     vdW  Elec       q    Type
REMARK                         _______ _______ _______ _____ _____    ______ ____
ROOT
ATOM      1  C   UNL     1       1.394   1.133   0.571  0.00  0.00    +0.304 C 
ATOM      2  N   UNL     1       0.497   0.124   0.788  0.00  0.00    -0.154 N 
ATOM      3  C   UNL     1       1.199  -1.057   0.756  0.00  0.00    +0.338 C 
ATOM      4  N   UNL     1       0.857  -2.300   0.667  0.00  0.00    +0.023 NA
ATOM      5  C   UNL     1       1.879  -3.186   0.417  0.00  0.00    +0.450 C 
ATOM      6  N   UNL     1       1.714  -4.477   0.787  0.00  0.00    -0.241 N 
ATOM      7  H   UNL     1       2.584  -4.997   0.755  0.00  0.00    +0.242 HD
ATOM      8  H   UNL     1       1.216  -4.584   1.661  0.00  0.00    +0.242 HD
ATOM      9  N   UNL     1       2.993  -2.860  -0.169  0.00  0.00    +0.008 NA
ATOM     10  C   UNL     1       3.182  -1.521  -0.434  0.00  0.00    +0.347 C 
ATOM     11  O   UNL     1       3.671  -1.103  -1.475  0.00  0.00    -0.251 OA
ATOM     12  C   UNL     1       2.665  -0.657   0.693  0.00  0.00    +0.329 C 
ATOM     13  N   UNL     1       2.658   0.828   0.458  0.00  0.00    -0.228 NA
ENDROOT
BRANCH   2  14
ATOM     14  C   UNL     1      -0.855   0.257   0.273  0.00  0.00    +0.400 C 
BRANCH  14  15
ATOM     15  O   UNL     1      -1.833   0.267   1.324  0.00  0.00    -0.334 OA
BRANCH  15  16
ATOM     16  C   UNL     1      -3.149   0.659   0.845  0.00  0.00    +0.173 C 
BRANCH  16  17
ATOM     17  C   UNL     1      -4.109   0.772   2.041  0.00  0.00    +0.189 C 
BRANCH  17  18
ATOM     18  O   UNL     1      -3.724   1.832   2.909  0.00  0.00    -0.392 OA
ATOM     19  H   UNL     1      -2.966   1.501   3.424  0.00  0.00    +0.210 HD
ENDBRANCH  17  18
ENDBRANCH  16  17
BRANCH  16  20
ATOM     20  C   UNL     1      -3.723  -0.357  -0.158  0.00  0.00    +0.189 C 
BRANCH  20  21
ATOM     21  O   UNL     1      -3.727  -1.670   0.397  0.00  0.00    -0.392 OA
ATOM     22  H   UNL     1      -2.839  -1.834   0.766  0.00  0.00    +0.210 HD
ENDBRANCH  20  21
ENDBRANCH  16  20
ENDBRANCH  15  16
ENDBRANCH  14  15
ENDBRANCH   2  14
TORSDOF 7
REMARK  Name = 
REMARK  7 active torsions:
REMARK  status: ('A' for Active; 'I' for Inactive)
REMARK    1  A    between atoms: N_11  and  C_12
REMARK    2  A    between atoms: C_12  and  O_13
REMARK    3  A    between atoms: O_13  and  C_14
REMARK    4  A    between atoms: C_14  and  C_15
REMARK    5  A    between atoms: C_14  and  C_17
REMARK    6  A    between atoms: C_15  and  O_16
REMARK    7  A    between atoms: C_17  and  O_18
REMARK                            x       y       z     vdW  Elec       q    Type
REMARK                         _______ _______ _______ _____ _____    ______ ____
ROOT
ATOM      1  O   HOH     1       0.536  -0.883  -2.286  0.00  0.00    -0.410 OA
ATOM      2  H   HOH     0       0.557  -1.840  -2.109  0.00  0.00    +0.205 HD
ATOM      3  H   HOH     0       1.458  -0.701  -2.549  0.00  0.00    +0.205 HD
ENDROOT
TORSDOF 0
