REMARK  Name = 
REMARK  1 active torsions:
REMARK  status: ('A' for Active; 'I' for Inactive)
REMARK    1  A    between atoms: C_7  and  N_9
REMARK                            x       y       z     vdW  Elec       q    Type
REMARK                         _______ _______ _______ _____ _____    ______ ____
ROOT
ATOM      1  C   UNL     1       0.766   1.149   0.173  0.00  0.00    +0.216 C 
ATOM      2  N   UNL     1       1.359  -0.094   0.638  0.00  0.00    -0.216 N 
ATOM      3  C   UNL     1       2.587  -0.093   1.378  0.00  0.00    +0.419 C 
ATOM      4  N   UNL     1       3.537   0.678   0.981  0.00  0.00    -0.128 NA
ATOM      5  H   UNL     1       3.470   1.225   0.107  0.00  0.00    +0.306 HD
ATOM      6  C   UNL     1       0.652  -1.323   0.303  0.00  0.00    +0.216 C 
ATOM      7  C   UNL     1      -0.836  -1.162   0.650  0.00  0.00    +0.195 C 
ATOM      8  O   UNL     1      -1.369   0.015   0.061  0.00  0.00    -0.374 OA
ATOM      9  C   UNL     1      -0.709   1.153   0.591  0.00  0.00    +0.195 C 
ENDROOT
BRANCH   3  10
ATOM     10  N   UNL     1       2.696  -0.840   2.593  0.00  0.00    -0.006 NA
ATOM     11  C   UNL     1       3.737  -1.034   3.351  0.00  0.00    +0.387 C 
ATOM     12  N   UNL     1       3.544  -1.688   4.594  0.00  0.00    -0.289 N 
ATOM     13  H   UNL     1       4.339  -1.827   5.237  0.00  0.00    +0.255 HD
ATOM     14  H   UNL     1       2.603  -1.974   4.897  0.00  0.00    +0.255 HD
ATOM     15  N   UNL     1       5.055  -0.611   3.013  0.00  0.00    -0.289 N 
ATOM     16  H   UNL     1       5.828  -0.783   3.680  0.00  0.00    +0.255 HD
ATOM     17  H   UNL     1       5.321  -0.211   2.106  0.00  0.00    +0.255 HD
ENDBRANCH   3  10
TORSDOF 1
REMARK  Name = 
REMARK  1 active torsions:
REMARK  status: ('A' for Active; 'I' for Inactive)
REMARK    1  A    between atoms: C_7  and  N_9
REMARK                            x       y       z     vdW  Elec       q    Type
REMARK                         _______ _______ _______ _____ _____    ______ ____
ROOT
ATOM      1 CL   UNL     1       1.093  -0.036  -3.405  0.00  0.00    -0.145 Cl
ATOM      2  H   UNL     1       2.078  -0.067  -2.443  0.00  0.00    +0.145 HD
ENDROOT
TORSDOF 0
