REMARK  Name = 
REMARK  1 active torsions:
REMARK  status: ('A' for Active; 'I' for Inactive)
REMARK    1  A    between atoms: C_7  and  N_9
REMARK                            x       y       z     vdW  Elec       q    Type
REMARK                         _______ _______ _______ _____ _____    ______ ____
ROOT
ATOM      1  C   UNL     1       0.810   1.176   0.143  0.00  0.00    +0.216 C 
ATOM      2  N   UNL     1       1.345  -0.101   0.571  0.00  0.00    -0.216 N 
ATOM      3  C   UNL     1       2.562  -0.207   1.311  0.00  0.00    +0.419 C 
ATOM      4  N   UNL     1       2.645  -1.025   2.299  0.00  0.00    -0.128 NA
ATOM      5  H   UNL     1       1.827  -1.545   2.647  0.00  0.00    +0.306 HD
ATOM      6  C   UNL     1       0.592  -1.278   0.179  0.00  0.00    +0.216 C 
ATOM      7  C   UNL     1      -0.864  -1.093   0.602  0.00  0.00    +0.195 C 
ATOM      8  O   UNL     1      -1.381   0.118   0.066  0.00  0.00    -0.374 OA
ATOM      9  C   UNL     1      -0.662   1.226   0.592  0.00  0.00    +0.195 C 
ENDROOT
BRANCH   3  10
ATOM     10  N   UNL     1       3.725   0.464   0.797  0.00  0.00    -0.006 NA
ATOM     11  C   UNL     1       4.943   0.504   1.241  0.00  0.00    +0.387 C 
ATOM     12  N   UNL     1       5.935   1.107   0.428  0.00  0.00    -0.289 N 
ATOM     13  H   UNL     1       6.922   1.116   0.723  0.00  0.00    +0.255 HD
ATOM     14  H   UNL     1       5.694   1.478  -0.503  0.00  0.00    +0.255 HD
ATOM     15  N   UNL     1       5.353  -0.071   2.485  0.00  0.00    -0.289 N 
ATOM     16  H   UNL     1       6.346  -0.027   2.753  0.00  0.00    +0.255 HD
ATOM     17  H   UNL     1       4.711  -0.476   3.173  0.00  0.00    +0.255 HD
ENDBRANCH   3  10
TORSDOF 1
REMARK  Name = 
REMARK  1 active torsions:
REMARK  status: ('A' for Active; 'I' for Inactive)
REMARK    1  A    between atoms: C_7  and  N_9
REMARK                            x       y       z     vdW  Elec       q    Type
REMARK                         _______ _______ _______ _____ _____    ______ ____
ROOT
ATOM      1 CL   UNL     1       2.094  -0.010  -3.185  0.00  0.00    -0.145 Cl
ATOM      2  H   UNL     1       2.697  -0.100  -1.952  0.00  0.00    +0.145 HD
ENDROOT
TORSDOF 0
