REMARK  Name = 
REMARK  5 active torsions:
REMARK  status: ('A' for Active; 'I' for Inactive)
REMARK    1  A    between atoms: C_1  and  C_2
REMARK    2  A    between atoms: N_4  and  C_10
REMARK    3  A    between atoms: C_14  and  O_21
REMARK    4  A    between atoms: C_16  and  C_19
REMARK    5  A    between atoms: C_19  and  O_20
REMARK                            x       y       z     vdW  Elec       q    Type
REMARK                         _______ _______ _______ _____ _____    ______ ____
ROOT
ATOM      1  C   UNL     1       1.714  -3.035  -2.188  0.00  0.00    +0.247 C 
ATOM      2  O   UNL     1       0.438  -2.712  -1.606  0.00  0.00    -0.347 OA
ATOM      3  C   UNL     1      -0.016  -3.829  -0.813  0.00  0.00    +0.177 C 
ATOM      4  C   UNL     1       0.913  -4.995  -1.107  0.00  0.00    +0.183 C 
ATOM      5  C   UNL     1       2.204  -4.297  -1.464  0.00  0.00    +0.244 C 
ATOM      6  F   UNL     1       2.950  -5.132  -2.225  0.00  0.00    -0.238 F 
ENDROOT
BRANCH   1  15
ATOM      7  C   UNL     1      -0.174  -5.338  -4.836  0.00  0.00    +0.019 C 
ATOM      8  C   UNL     1       0.085  -3.947  -5.411  0.00  0.00    +0.090 C 
ATOM      9  C   UNL     1       1.310  -3.980  -6.302  0.00  0.00    +0.225 C 
ATOM     10  O   UNL     1       1.275  -4.399  -7.462  0.00  0.00    -0.275 OA
ATOM     11  N   UNL     1       2.485  -3.588  -5.718  0.00  0.00    -0.240 N 
ATOM     12  H   UNL     1       3.319  -3.710  -6.287  0.00  0.00    +0.159 HD
ATOM     13  C   UNL     1       2.707  -3.330  -4.390  0.00  0.00    +0.310 C 
ATOM     14  O   UNL     1       3.847  -3.220  -3.947  0.00  0.00    -0.252 OA
ATOM     15  N   UNL     1       1.563  -3.200  -3.628  0.00  0.00    -0.256 N 
ATOM     16  C   UNL     1       0.317  -2.906  -4.322  0.00  0.00    +0.124 C 
ENDBRANCH   1  15
BRANCH   4  17
ATOM     17  O   UNL     1       1.046  -5.851   0.024  0.00  0.00    -0.386 OA
ATOM     18  H   UNL     1       1.882  -6.345  -0.085  0.00  0.00    +0.210 HD
ENDBRANCH   4  17
BRANCH   3  19
ATOM     19  C   UNL     1      -1.477  -4.160  -1.131  0.00  0.00    +0.190 C 
BRANCH  19  20
ATOM     20  O   UNL     1      -2.351  -3.099  -0.767  0.00  0.00    -0.392 OA
ATOM     21  H   UNL     1      -2.200  -2.897   0.174  0.00  0.00    +0.210 HD
ENDBRANCH  19  20
ENDBRANCH   3  19
TORSDOF 4
