REMARK  Name = 
REMARK  13 active torsions:
REMARK  status: ('A' for Active; 'I' for Inactive)
REMARK    1  A    between atoms: C_1  and  C_2
REMARK    2  A    between atoms: C_2  and  C_3
REMARK    3  A    between atoms: C_2  and  C_4
REMARK    4  A    between atoms: C_4  and  C_5
REMARK    5  A    between atoms: C_4  and  N_26
REMARK    6  A    between atoms: C_5  and  O_7
REMARK    7  A    between atoms: O_7  and  C_8
REMARK    8  A    between atoms: C_8  and  C_9
REMARK    9  A    between atoms: C_9  and  C_11
REMARK   10  A    between atoms: C_9  and  O_13
REMARK   11  A    between atoms: C_11  and  O_12
REMARK   12  A    between atoms: O_13  and  C_14
REMARK   13  A    between atoms: C_14  and  N_15
REMARK                            x       y       z     vdW  Elec       q    Type
REMARK                         _______ _______ _______ _____ _____    ______ ____
ROOT
ATOM      1  C   UNL     1      -6.215   1.433  -2.813  0.00  0.00    +0.185 C 
ENDROOT
BRANCH   1   2
ATOM      2  C   UNL     1      -5.440   1.886  -1.545  0.00  0.00    +0.266 C 
BRANCH   2   3
ATOM      3  O   UNL     1      -5.238   0.772  -0.629  0.00  0.00    -0.461 OA
BRANCH   3   4
ATOM      4  C   UNL     1      -6.282   0.469   0.186  0.00  0.00    +0.324 C 
ATOM      5  O   UNL     1      -7.335   1.097   0.224  0.00  0.00    -0.249 OA
BRANCH   4   6
ATOM      6  C   UNL     1      -6.010  -0.776   1.057  0.00  0.00    +0.163 C 
BRANCH   6   8
ATOM      7  C   UNL     1      -6.965  -2.317  -0.734  0.00  0.00    +0.009 C 
ATOM      8  C   UNL     1      -7.043  -1.888   0.735  0.00  0.00    +0.010 C 
ATOM      9  C   UNL     1      -6.873  -3.129   1.623  0.00  0.00    +0.009 C 
ENDBRANCH   6   8
BRANCH   6  10
ATOM     10  N   UNL     1      -6.112  -0.397   2.486  0.00  0.00    -0.318 NA
ATOM     11  H   UNL     1      -5.450   0.350   2.693  0.00  0.00    +0.119 HD
ATOM     12  H   UNL     1      -7.040   0.006   2.646  0.00  0.00    +0.119 HD
ENDBRANCH   6  10
ENDBRANCH   4   6
ENDBRANCH   3   4
ENDBRANCH   2   3
ENDBRANCH   1   2
BRANCH   1  13
ATOM     13  O   UNL     1      -6.519   2.564  -3.669  0.00  0.00    -0.333 OA
BRANCH  13  14
ATOM     14  C   UNL     1      -7.629   2.382  -4.596  0.00  0.00    +0.400 C 
BRANCH  14  15
ATOM     15  N   UNL     1      -7.572   3.365  -5.673  0.00  0.00    -0.154 N 
ATOM     16  C   UNL     1      -8.481   4.336  -6.057  0.00  0.00    +0.338 C 
ATOM     17  N   UNL     1      -9.715   4.641  -5.831  0.00  0.00    +0.023 NA
ATOM     18  C   UNL     1     -10.119   5.881  -6.314  0.00  0.00    +0.450 C 
ATOM     19  N   UNL     1     -11.411   6.129  -6.669  0.00  0.00    -0.241 N 
ATOM     20  H   UNL     1     -11.500   7.128  -6.855  0.00  0.00    +0.242 HD
ATOM     21  H   UNL     1     -11.644   5.665  -7.543  0.00  0.00    +0.242 HD
ATOM     22  N   UNL     1      -9.315   6.895  -6.484  0.00  0.00    +0.008 NA
ATOM     23  C   UNL     1      -7.974   6.608  -6.394  0.00  0.00    +0.347 C 
ATOM     24  O   UNL     1      -7.136   7.385  -5.946  0.00  0.00    -0.251 OA
ATOM     25  C   UNL     1      -7.678   5.249  -6.974  0.00  0.00    +0.329 C 
ATOM     26  N   UNL     1      -6.269   4.742  -6.950  0.00  0.00    -0.228 NA
ATOM     27  C   UNL     1      -6.367   3.651  -6.247  0.00  0.00    +0.304 C 
ENDBRANCH  14  15
ENDBRANCH  13  14
ENDBRANCH   1  13
BRANCH   1  28
ATOM     28  C   UNL     1      -5.313   0.397  -3.520  0.00  0.00    +0.191 C 
BRANCH  28  29
ATOM     29  O   UNL     1      -6.028  -0.319  -4.519  0.00  0.00    -0.392 OA
ATOM     30  H   UNL     1      -6.442  -1.084  -4.082  0.00  0.00    +0.210 HD
ENDBRANCH  28  29
ENDBRANCH   1  28
TORSDOF 11
