REMARK  Name = 
REMARK  3 active torsions:
REMARK  status: ('A' for Active; 'I' for Inactive)
REMARK    1  A    between atoms: C_1  and  O_2
REMARK    2  A    between atoms: O_2  and  C_3
REMARK    3  A    between atoms: C_6  and  C_9
REMARK                            x       y       z     vdW  Elec       q    Type
REMARK                         _______ _______ _______ _____ _____    ______ ____
ROOT
ATOM      1  C   UNL     1       2.942  -0.858  -0.914  0.00  0.00    +0.120 A 
ATOM      2  C   UNL     1       2.821  -2.246  -0.855  0.00  0.00    +0.046 A 
ATOM      3  C   UNL     1       3.309  -3.041  -1.897  0.00  0.00    +0.016 A 
ATOM      4  C   UNL     1       3.928  -2.455  -3.006  0.00  0.00    +0.037 A 
ATOM      5  C   UNL     1       4.088  -1.063  -3.037  0.00  0.00    +0.016 A 
ATOM      6  C   UNL     1       3.604  -0.271  -1.991  0.00  0.00    +0.046 A 
ENDROOT
BRANCH   4   7
ATOM      7  C   UNL     1       4.424  -3.246  -4.168  0.00  0.00    +0.242 C 
ATOM      8  N   UNL     1       4.201  -4.595  -4.184  0.00  0.00    -0.325 N 
ATOM      9  H   UNL     1       4.505  -5.091  -5.011  0.00  0.00    +0.145 HD
ATOM     10  H   UNL     1       3.671  -5.108  -3.500  0.00  0.00    +0.145 HD
ATOM     11  O   UNL     1       5.003  -2.712  -5.108  0.00  0.00    -0.270 OA
ENDBRANCH   4   7
BRANCH   1  13
ATOM     12  C   UNL     1       1.278  -0.425   0.687  0.00  0.00    +0.277 C 
ATOM     13  O   UNL     1       2.479  -0.001   0.047  0.00  0.00    -0.495 OA
ENDBRANCH   1  13
TORSDOF 2
