REMARK  Name = 
REMARK  3 active torsions:
REMARK  status: ('A' for Active; 'I' for Inactive)
REMARK    1  A    between atoms: C_1  and  O_2
REMARK    2  A    between atoms: O_2  and  C_3
REMARK    3  A    between atoms: C_6  and  C_9
REMARK                            x       y       z     vdW  Elec       q    Type
REMARK                         _______ _______ _______ _____ _____    ______ ____
ROOT
ATOM      1  C   UNL     1       3.052  -1.287   0.342  0.00  0.00    +0.120 A 
ATOM      2  C   UNL     1       2.399  -2.516   0.259  0.00  0.00    +0.046 A 
ATOM      3  C   UNL     1       3.121  -3.711   0.394  0.00  0.00    +0.016 A 
ATOM      4  C   UNL     1       4.504  -3.683   0.613  0.00  0.00    +0.037 A 
ATOM      5  C   UNL     1       5.147  -2.443   0.720  0.00  0.00    +0.016 A 
ATOM      6  C   UNL     1       4.423  -1.254   0.595  0.00  0.00    +0.046 A 
ENDROOT
BRANCH   4   7
ATOM      7  C   UNL     1       5.341  -4.912   0.741  0.00  0.00    +0.242 C 
ATOM      8  N   UNL     1       4.745  -6.133   0.598  0.00  0.00    -0.325 N 
ATOM      9  H   UNL     1       5.350  -6.941   0.668  0.00  0.00    +0.145 HD
ATOM     10  H   UNL     1       3.774  -6.289   0.383  0.00  0.00    +0.145 HD
ATOM     11  O   UNL     1       6.546  -4.847   0.960  0.00  0.00    -0.270 OA
ENDBRANCH   4   7
BRANCH   1  13
ATOM     12  C   UNL     1       1.292  -0.023  -0.595  0.00  0.00    +0.277 C 
ATOM     13  O   UNL     1       2.446  -0.066   0.238  0.00  0.00    -0.495 OA
ENDBRANCH   1  13
TORSDOF 2
