REMARK  Name = 
REMARK  5 active torsions:
REMARK  status: ('A' for Active; 'I' for Inactive)
REMARK    1  A    between atoms: C5M_1  and  C5_2
REMARK    2  A    between atoms: N1_4  and  C1*_10
REMARK    3  A    between atoms: C3*_13  and  O3*_20
REMARK    4  A    between atoms: C4*_15  and  C5*_18
REMARK    5  A    between atoms: C5*_18  and  O5*_19
REMARK                            x       y       z     vdW  Elec       q    Type
REMARK                         _______ _______ _______ _____ _____    ______ ____
ROOT
ATOM      1  C5M   T A   1      -0.069  -5.378  -4.689  0.00  0.00    +0.019 C 
ATOM      2  C5    T A   1       0.123  -3.965  -5.238  0.00  0.00    +0.090 C 
ATOM      3  C4    T A   1       1.336  -3.935  -6.139  0.00  0.00    +0.225 C 
ATOM      4  O4    T A   1       1.303  -4.341  -7.295  0.00  0.00    -0.275 OA
ATOM      5  N3    T A   1       2.513  -3.529  -5.561  0.00  0.00    -0.240 N 
ATOM      6  H3    T A   1       3.341  -3.632  -6.131  0.00  0.00    +0.159 HD
ATOM      7  C2    T A   1       2.733  -3.309  -4.227  0.00  0.00    +0.310 C 
ATOM      8  O2    T A   1       3.872  -3.271  -3.774  0.00  0.00    -0.252 OA
ATOM      9  N1    T A   1       1.591  -3.200  -3.454  0.00  0.00    -0.259 N 
ATOM     10  C6    T A   1       0.334  -2.932  -4.139  0.00  0.00    +0.124 C 
ENDROOT
BRANCH   9  11
ATOM     11  C1*   T A   1       1.743  -3.035  -2.013  0.00  0.00    +0.212 C 
ATOM     12  O4*   T A   1       0.473  -2.746  -1.411  0.00  0.00    -0.350 OA
ATOM     13  C4*   T A   1       0.026  -3.905  -0.675  0.00  0.00    +0.174 C 
ATOM     14  C3*   T A   1       0.953  -5.047  -1.069  0.00  0.00    +0.150 C 
ATOM     15  C2*   T A   1       2.243  -4.312  -1.340  0.00  0.00    +0.086 C 
BRANCH  14  16
ATOM     16  O3*   T A   1       1.063  -6.045  -0.067  0.00  0.00    -0.389 OA
ATOM     17  H3*   T A   1       1.708  -5.752   0.600  0.00  0.00    +0.210 HD
ENDBRANCH  14  16
BRANCH  13  18
ATOM     18  C5*   T A   1      -1.442  -4.219  -0.987  0.00  0.00    +0.190 C 
BRANCH  18  19
ATOM     19  O5*   T A   1      -2.311  -3.168  -0.571  0.00  0.00    -0.392 OA
ATOM     20  H5*   T A   1      -2.109  -2.961   0.357  0.00  0.00    +0.210 HD
ENDBRANCH  18  19
ENDBRANCH  13  18
ENDBRANCH   9  11
TORSDOF 4
