REMARK  Name = 
REMARK  5 active torsions:
REMARK  status: ('A' for Active; 'I' for Inactive)
REMARK    1  A    between atoms: C5M_1  and  C5_2
REMARK    2  A    between atoms: N1_4  and  C1*_10
REMARK    3  A    between atoms: C3*_13  and  O3*_20
REMARK    4  A    between atoms: C4*_15  and  C5*_18
REMARK    5  A    between atoms: C5*_18  and  O5*_19
REMARK                            x       y       z     vdW  Elec       q    Type
REMARK                         _______ _______ _______ _____ _____    ______ ____
ROOT
ATOM      1  C5M   T A   1      -0.168  -5.307  -4.853  0.00  0.00    +0.019 C 
ATOM      2  C5    T A   1       0.027  -3.896  -5.397  0.00  0.00    +0.090 C 
ATOM      3  C4    T A   1       1.242  -3.860  -6.296  0.00  0.00    +0.225 C 
ATOM      4  O4    T A   1       1.211  -4.269  -7.453  0.00  0.00    -0.275 OA
ATOM      5  N3    T A   1       2.418  -3.455  -5.717  0.00  0.00    -0.240 N 
ATOM      6  H3    T A   1       3.245  -3.555  -6.288  0.00  0.00    +0.159 HD
ATOM      7  C2    T A   1       2.636  -3.248  -4.381  0.00  0.00    +0.310 C 
ATOM      8  O2    T A   1       3.776  -3.222  -3.927  0.00  0.00    -0.252 OA
ATOM      9  N1    T A   1       1.494  -3.138  -3.610  0.00  0.00    -0.259 N 
ATOM     10  C6    T A   1       0.239  -2.864  -4.295  0.00  0.00    +0.124 C 
ENDROOT
BRANCH   9  11
ATOM     11  C1*   T A   1       1.646  -2.972  -2.169  0.00  0.00    +0.212 C 
ATOM     12  O4*   T A   1       0.376  -2.679  -1.567  0.00  0.00    -0.350 OA
ATOM     13  C4*   T A   1      -0.071  -3.836  -0.828  0.00  0.00    +0.174 C 
ATOM     14  C3*   T A   1       0.856  -4.979  -1.218  0.00  0.00    +0.150 C 
ATOM     15  C2*   T A   1       2.147  -4.246  -1.495  0.00  0.00    +0.086 C 
BRANCH  14  16
ATOM     16  O3*   T A   1       0.966  -5.970  -0.213  0.00  0.00    -0.389 OA
ATOM     17  H3*   T A   1       1.630  -5.695   0.438  0.00  0.00    +0.210 HD
ENDBRANCH  14  16
BRANCH  13  18
ATOM     18  C5*   T A   1      -1.538  -4.154  -1.139  0.00  0.00    +0.190 C 
BRANCH  18  19
ATOM     19  O5*   T A   1      -2.410  -3.106  -0.718  0.00  0.00    -0.392 OA
ATOM     20  H5*   T A   1      -2.211  -2.909   0.213  0.00  0.00    +0.210 HD
ENDBRANCH  18  19
ENDBRANCH  13  18
ENDBRANCH   9  11
TORSDOF 4
