REMARK  Name = 
REMARK  5 active torsions:
REMARK  status: ('A' for Active; 'I' for Inactive)
REMARK    1  A    between atoms: C3*_2  and  O3*_22
REMARK    2  A    between atoms: C4*_4  and  C5*_20
REMARK    3  A    between atoms: C1*_7  and  N_9
REMARK    4  A    between atoms: C_11  and  C_17
REMARK    5  A    between atoms: C5*_20  and  O5*_21
REMARK                            x       y       z     vdW  Elec       q    Type
REMARK                         _______ _______ _______ _____ _____    ______ ____
ROOT
ATOM      1  N   UNL     1       1.238  -1.631   1.297  0.00  0.00    -0.258 N 
ATOM      2  C   UNL     1       1.308  -0.995   2.520  0.00  0.00    +0.310 C 
ATOM      3  O   UNL     1       0.904   0.140   2.750  0.00  0.00    -0.252 OA
ATOM      4  N   UNL     1       1.923  -1.710   3.518  0.00  0.00    -0.239 N 
ATOM      5  H   UNL     1       2.001  -1.237   4.407  0.00  0.00    +0.159 HD
ATOM      6  C   UNL     1       2.681  -2.847   3.378  0.00  0.00    +0.229 C 
ATOM      7  O   UNL     1       3.341  -3.277   4.321  0.00  0.00    -0.275 OA
ATOM      8  C   UNL     1       2.711  -3.452   1.979  0.00  0.00    +0.116 C 
ATOM      9  C   UNL     1       1.409  -3.078   1.282  0.00  0.00    +0.128 C 
ENDROOT
BRANCH   1  11
ATOM     10  C2* UNL     1      -0.834  -1.019  -0.010  0.00  0.00    +0.086 C 
ATOM     11  C1* UNL     1       0.681  -0.995   0.111  0.00  0.00    +0.212 C 
ATOM     12  O4* UNL     1       1.116   0.369   0.037  0.00  0.00    -0.350 OA
ATOM     13  C4* UNL     1      -0.046   1.196  -0.180  0.00  0.00    +0.174 C 
ATOM     14  C3* UNL     1      -1.240   0.395   0.331  0.00  0.00    +0.150 C 
BRANCH  14  15
ATOM     15  O3* UNL     1      -2.469   0.744  -0.292  0.00  0.00    -0.389 OA
ATOM     16  H3* UNL     1      -2.353   0.737  -1.258  0.00  0.00    +0.210 HD
ENDBRANCH  14  15
BRANCH  13  17
ATOM     17  C5* UNL     1       0.128   2.570   0.474  0.00  0.00    +0.190 C 
BRANCH  17  18
ATOM     18  O5* UNL     1       0.117   2.527   1.896  0.00  0.00    -0.392 OA
ATOM     19  H5* UNL     1       0.586   1.708   2.176  0.00  0.00    +0.210 HD
ENDBRANCH  17  18
ENDBRANCH  13  17
ENDBRANCH   1  11
BRANCH   8  20
ATOM     20  C   UNL     1       2.900  -4.945   2.034  0.00  0.00    -0.005 C 
ATOM     21  C   UNL     1       3.938  -5.579   1.477  0.00  0.00    +0.047 C 
ATOM     22 BR   UNL     1       4.195  -7.414   1.551  0.00  0.00    -0.059 Br
ENDBRANCH   8  20
TORSDOF 5
