REMARK  Name = 
REMARK  16 active torsions:
REMARK  status: ('A' for Active; 'I' for Inactive)
REMARK    1  A    between atoms: C_1  and  C_2
REMARK    2  A    between atoms: C_2  and  C_3
REMARK    3  A    between atoms: C_3  and  C_4
REMARK    4  A    between atoms: C_3  and  O_6
REMARK    5  A    between atoms: C_4  and  C_5
REMARK    6  A    between atoms: O_6  and  C_7
REMARK    7  A    between atoms: C_10  and  C_21
REMARK    8  A    between atoms: C_12  and  N_20
REMARK    9  A    between atoms: C_14  and  N_16
REMARK   10  A    between atoms: C_17  and  C_19
REMARK   11  A    between atoms: C_21  and  O_23
REMARK   12  A    between atoms: O_23  and  C_24
REMARK   13  A    between atoms: C_24  and  C_25
REMARK   14  A    between atoms: O_26  and  P_27
REMARK   15  A    between atoms: P_27  and  O_29
REMARK   16  A    between atoms: P_27  and  O_30
REMARK                            x       y       z     vdW  Elec       q    Type
REMARK                         _______ _______ _______ _____ _____    ______ ____
ROOT
ATOM      1  C   UNL     1       5.066  -2.128   2.189  0.00  0.00    +0.164 C 
ATOM      2  C   UNL     1       5.297  -3.248   1.129  0.00  0.00    +0.122 C 
ATOM      3  C   UNL     1       4.646  -4.631   1.398  0.00  0.00    +0.078 C 
ATOM      4  C   UNL     1       3.575  -4.725   2.494  0.00  0.00    +0.062 C 
ATOM      5  C   UNL     1       3.294  -3.511   3.315  0.00  0.00    +0.037 C 
ATOM      6  C   UNL     1       3.979  -2.367   3.199  0.00  0.00    +0.016 C 
ENDROOT
BRANCH   2   7
ATOM      7  N   UNL     1       5.007  -2.820  -0.264  0.00  0.00    -0.308 N 
ATOM      8  H   UNL     1       4.038  -2.598  -0.513  0.00  0.00    +0.149 HD
ATOM      9  C   UNL     1       5.927  -3.017  -1.277  0.00  0.00    +0.210 C 
ATOM     10  C   UNL     1       5.453  -2.673  -2.661  0.00  0.00    +0.109 C 
ATOM     11  O   UNL     1       7.069  -3.415  -1.078  0.00  0.00    -0.276 OA
ENDBRANCH   2   7
BRANCH   3  12
ATOM     12  N   UNL     1       5.700  -5.637   1.652  0.00  0.00    -0.325 NA
ATOM     13  H   UNL     1       6.178  -5.418   2.527  0.00  0.00    +0.119 HD
ATOM     14  H   UNL     1       5.287  -6.559   1.763  0.00  0.00    +0.119 HD
ENDBRANCH   3  12
BRANCH   5  15
ATOM     15  C   UNL     1       2.158  -3.711   4.264  0.00  0.00    +0.335 C 
ATOM     16  O   UNL     1       1.773  -4.823   4.596  0.00  0.00    -0.245 OA
BRANCH  15  17
ATOM     17  O   UNL     1       1.524  -2.542   4.534  0.00  0.00    -0.462 OA
BRANCH  17  18
ATOM     18  C   UNL     1       0.174  -2.699   5.006  0.00  0.00    +0.229 C 
ATOM     19  C   UNL     1      -0.746  -2.692   3.798  0.00  0.00    +0.048 C 
ENDBRANCH  17  18
ENDBRANCH  15  17
ENDBRANCH   5  15
BRANCH   1  20
ATOM     20  O   UNL     1       6.235  -1.728   2.920  0.00  0.00    -0.367 OA
BRANCH  20  21
ATOM     21  C   UNL     1       7.431  -1.371   2.187  0.00  0.00    +0.119 C 
BRANCH  21  23
ATOM     22  C   UNL     1       8.464   0.151   0.364  0.00  0.00    +0.006 C 
ATOM     23  C   UNL     1       7.216  -0.287   1.122  0.00  0.00    +0.028 C 
ENDBRANCH  21  23
BRANCH  21  24
ATOM     24  C   UNL     1       8.467  -0.939   3.230  0.00  0.00    +0.028 C 
ATOM     25  C   UNL     1       8.734  -2.045   4.243  0.00  0.00    +0.006 C 
ENDBRANCH  21  24
ENDBRANCH  20  21
ENDBRANCH   1  20
TORSDOF 9
REMARK  Name = 
REMARK  16 active torsions:
REMARK  status: ('A' for Active; 'I' for Inactive)
REMARK    1  A    between atoms: C_1  and  C_2
REMARK    2  A    between atoms: C_2  and  C_3
REMARK    3  A    between atoms: C_3  and  C_4
REMARK    4  A    between atoms: C_3  and  O_6
REMARK    5  A    between atoms: C_4  and  C_5
REMARK    6  A    between atoms: O_6  and  C_7
REMARK    7  A    between atoms: C_10  and  C_21
REMARK    8  A    between atoms: C_12  and  N_20
REMARK    9  A    between atoms: C_14  and  N_16
REMARK   10  A    between atoms: C_17  and  C_19
REMARK   11  A    between atoms: C_21  and  O_23
REMARK   12  A    between atoms: O_23  and  C_24
REMARK   13  A    between atoms: C_24  and  C_25
REMARK   14  A    between atoms: O_26  and  P_27
REMARK   15  A    between atoms: P_27  and  O_29
REMARK   16  A    between atoms: P_27  and  O_30
REMARK                            x       y       z     vdW  Elec       q    Type
REMARK                         _______ _______ _______ _____ _____    ______ ____
ROOT
ATOM      1  P   UNL     1       2.692  -0.014   0.091  0.00  0.00    +0.470 P 
ATOM      2  O   UNL     1       2.693  -1.365  -0.619  0.00  0.00    -0.228 OA
ENDROOT
BRANCH   1   3
ATOM      3  O   UNL     1       0.962  -0.014   0.091  0.00  0.00    -0.303 OA
ATOM      4  H   UNL     1       0.727  -0.529  -0.708  0.00  0.00    +0.222 HD
ENDBRANCH   1   3
BRANCH   1   5
ATOM      5  O   UNL     1       4.422  -0.014   0.091  0.00  0.00    -0.303 OA
ATOM      6  H   UNL     1       4.675  -0.504  -0.716  0.00  0.00    +0.222 HD
ENDBRANCH   1   5
BRANCH   1   7
ATOM      7  O   UNL     1       2.685   1.125  -1.058  0.00  0.00    -0.303 OA
ATOM      8  H   UNL     1       2.637   2.024  -0.683  0.00  0.00    +0.222 HD
ENDBRANCH   1   7
TORSDOF 3
