REMARK  Name = 
REMARK  16 active torsions:
REMARK  status: ('A' for Active; 'I' for Inactive)
REMARK    1  A    between atoms: C_1  and  C_2
REMARK    2  A    between atoms: C_2  and  C_3
REMARK    3  A    between atoms: C_3  and  C_4
REMARK    4  A    between atoms: C_3  and  O_6
REMARK    5  A    between atoms: C_4  and  C_5
REMARK    6  A    between atoms: O_6  and  C_7
REMARK    7  A    between atoms: C_10  and  C_21
REMARK    8  A    between atoms: C_12  and  N_20
REMARK    9  A    between atoms: C_14  and  N_16
REMARK   10  A    between atoms: C_17  and  C_19
REMARK   11  A    between atoms: C_21  and  O_23
REMARK   12  A    between atoms: O_23  and  C_24
REMARK   13  A    between atoms: C_24  and  C_25
REMARK   14  A    between atoms: O_26  and  P_27
REMARK   15  A    between atoms: P_27  and  O_29
REMARK   16  A    between atoms: P_27  and  O_30
REMARK                            x       y       z     vdW  Elec       q    Type
REMARK                         _______ _______ _______ _____ _____    ______ ____
ROOT
ATOM      1  C   UNL     1       5.136  -1.816   2.503  0.00  0.00    +0.164 C 
ATOM      2  C   UNL     1       5.228  -3.197   1.789  0.00  0.00    +0.122 C 
ATOM      3  C   UNL     1       4.524  -4.395   2.471  0.00  0.00    +0.078 C 
ATOM      4  C   UNL     1       3.427  -4.083   3.497  0.00  0.00    +0.062 C 
ATOM      5  C   UNL     1       3.368  -2.700   4.061  0.00  0.00    +0.037 C 
ATOM      6  C   UNL     1       4.166  -1.704   3.649  0.00  0.00    +0.016 C 
ENDROOT
BRANCH   2   7
ATOM      7  N   UNL     1       4.870  -3.136   0.353  0.00  0.00    -0.308 N 
ATOM      8  H   UNL     1       3.974  -2.767   0.058  0.00  0.00    +0.149 HD
ATOM      9  C   UNL     1       5.717  -3.674  -0.605  0.00  0.00    +0.210 C 
ATOM     10  C   UNL     1       5.238  -3.563  -2.024  0.00  0.00    +0.109 C 
ATOM     11  O   UNL     1       6.795  -4.190  -0.340  0.00  0.00    -0.276 OA
ENDBRANCH   2   7
BRANCH   3  12
ATOM     12  N   UNL     1       5.537  -5.280   3.080  0.00  0.00    -0.325 NA
ATOM     13  H   UNL     1       6.019  -4.798   3.837  0.00  0.00    +0.119 HD
ATOM     14  H   UNL     1       5.102  -6.109   3.474  0.00  0.00    +0.119 HD
ENDBRANCH   3  12
BRANCH   5  15
ATOM     15  C   UNL     1       2.261  -2.535   5.060  0.00  0.00    +0.335 C 
ATOM     16  O   UNL     1       1.618  -3.486   5.485  0.00  0.00    -0.245 OA
BRANCH  15  17
ATOM     17  O   UNL     1       1.955  -1.230   5.258  0.00  0.00    -0.462 OA
BRANCH  17  18
ATOM     18  C   UNL     1       0.626  -0.991   5.757  0.00  0.00    +0.229 C 
ATOM     19  C   UNL     1      -0.261  -0.723   4.554  0.00  0.00    +0.048 C 
ENDBRANCH  17  18
ENDBRANCH  15  17
ENDBRANCH   5  15
BRANCH   1  20
ATOM     20  O   UNL     1       6.391  -1.244   2.919  0.00  0.00    -0.367 OA
BRANCH  20  21
ATOM     21  C   UNL     1       7.488  -1.197   1.974  0.00  0.00    +0.119 C 
BRANCH  21  23
ATOM     22  C   UNL     1       8.280  -0.462  -0.386  0.00  0.00    +0.006 C 
ATOM     23  C   UNL     1       7.158  -0.513   0.641  0.00  0.00    +0.028 C 
ENDBRANCH  21  23
BRANCH  21  24
ATOM     24  C   UNL     1       8.657  -0.479   2.662  0.00  0.00    +0.028 C 
ATOM     25  C   UNL     1       9.081  -1.192   3.937  0.00  0.00    +0.006 C 
ENDBRANCH  21  24
ENDBRANCH  20  21
ENDBRANCH   1  20
TORSDOF 9
REMARK  Name = 
REMARK  16 active torsions:
REMARK  status: ('A' for Active; 'I' for Inactive)
REMARK    1  A    between atoms: C_1  and  C_2
REMARK    2  A    between atoms: C_2  and  C_3
REMARK    3  A    between atoms: C_3  and  C_4
REMARK    4  A    between atoms: C_3  and  O_6
REMARK    5  A    between atoms: C_4  and  C_5
REMARK    6  A    between atoms: O_6  and  C_7
REMARK    7  A    between atoms: C_10  and  C_21
REMARK    8  A    between atoms: C_12  and  N_20
REMARK    9  A    between atoms: C_14  and  N_16
REMARK   10  A    between atoms: C_17  and  C_19
REMARK   11  A    between atoms: C_21  and  O_23
REMARK   12  A    between atoms: O_23  and  C_24
REMARK   13  A    between atoms: C_24  and  C_25
REMARK   14  A    between atoms: O_26  and  P_27
REMARK   15  A    between atoms: P_27  and  O_29
REMARK   16  A    between atoms: P_27  and  O_30
REMARK                            x       y       z     vdW  Elec       q    Type
REMARK                         _______ _______ _______ _____ _____    ______ ____
ROOT
ATOM      1  P   UNL     1       2.706  -0.045   0.086  0.00  0.00    +0.470 P 
ATOM      2  O   UNL     1       2.760  -0.574  -1.340  0.00  0.00    -0.228 OA
ENDROOT
BRANCH   1   3
ATOM      3  O   UNL     1       0.976  -0.045   0.086  0.00  0.00    -0.303 OA
ATOM      4  H   UNL     1       0.653   0.374   0.904  0.00  0.00    +0.222 HD
ENDBRANCH   1   3
BRANCH   1   5
ATOM      5  O   UNL     1       4.436  -0.045   0.086  0.00  0.00    -0.303 OA
ATOM      6  H   UNL     1       4.677   0.038  -0.859  0.00  0.00    +0.222 HD
ENDBRANCH   1   5
BRANCH   1   7
ATOM      7  O   UNL     1       2.682   1.565  -0.059  0.00  0.00    -0.303 OA
ATOM      8  H   UNL     1       2.584   1.798  -1.002  0.00  0.00    +0.222 HD
ENDBRANCH   1   7
TORSDOF 3
