REMARK  Name = 
REMARK  12 active torsions:
REMARK  status: ('A' for Active; 'I' for Inactive)
REMARK    1  A    between atoms: C_1  and  C_2
REMARK    2  A    between atoms: C_2  and  C_3
REMARK    3  A    between atoms: C_2  and  C_4
REMARK    4  A    between atoms: C_4  and  C_5
REMARK    5  A    between atoms: C_4  and  N_7
REMARK    6  A    between atoms: C_5  and  O_6
REMARK    7  A    between atoms: C_9  and  C_29
REMARK    8  A    between atoms: C_15  and  O_27
REMARK    9  A    between atoms: C_16  and  C_18
REMARK   10  A    between atoms: C_18  and  C_19
REMARK   11  A    between atoms: O_27  and  C_28
REMARK   12  A    between atoms: C_29  and  O_31
REMARK                            x       y       z     vdW  Elec       q    Type
REMARK                         _______ _______ _______ _____ _____    ______ ____
ROOT
ATOM      1  N   UNL     1       4.655   1.426   0.036  0.00  0.00    -0.323 N 
ATOM      2  C   UNL     1       5.413   2.601   0.088  0.00  0.00    +0.044 A 
ATOM      3  C   UNL     1       4.861   3.893   0.084  0.00  0.00    +0.069 A 
ATOM      4  C   UNL     1       5.630   5.074   0.252  0.00  0.00    +0.125 A 
ATOM      5  C   UNL     1       7.018   4.990   0.414  0.00  0.00    -0.001 A 
ATOM      6  C   UNL     1       7.597   3.714   0.346  0.00  0.00    +0.020 A 
ATOM      7  C   UNL     1       6.811   2.554   0.232  0.00  0.00    +0.040 A 
ATOM      8  C   UNL     1       7.487   1.265   0.461  0.00  0.00    +0.180 C 
ATOM      9  O   UNL     1       8.714   1.182   0.478  0.00  0.00    -0.291 OA
ATOM     10  C   UNL     1       6.614   0.110   0.847  0.00  0.00    +0.185 C 
ATOM     11  C   UNL     1       5.394   0.147  -0.054  0.00  0.00    +0.128 C 
ENDROOT
BRANCH   4  12
ATOM     12  O   UNL     1       4.851   6.193   0.388  0.00  0.00    -0.495 OA
ATOM     13  C   UNL     1       5.292   7.397  -0.225  0.00  0.00    +0.277 C 
ENDBRANCH   4  12
BRANCH  10  14
ATOM     14  C   UNL     1       7.267  -1.248   0.746  0.00  0.00    +0.317 C 
ATOM     15  O   UNL     1       6.631  -2.279   0.570  0.00  0.00    -0.250 OA
BRANCH  14  16
ATOM     16  O   UNL     1       8.603  -1.284   0.945  0.00  0.00    -0.480 OA
ATOM     17  H   UNL     1       9.029  -0.391   0.978  0.00  0.00    +0.295 HD
ENDBRANCH  14  16
ENDBRANCH  10  14
BRANCH   1  18
ATOM     18  C   UNL     1       3.149   1.396  -0.013  0.00  0.00    +0.101 C 
BRANCH  18  20
ATOM     19  C   UNL     1       1.034   0.330  -1.038  0.00  0.00    +0.009 C 
ATOM     20  C   UNL     1       2.572   0.316  -0.989  0.00  0.00    +0.005 C 
ATOM     21  C   UNL     1       3.077   0.486  -2.427  0.00  0.00    +0.009 C 
ENDBRANCH  18  20
BRANCH  18  22
ATOM     22  C   UNL     1       2.608   1.190   1.431  0.00  0.00    +0.178 C 
BRANCH  22  23
ATOM     23  O   UNL     1       3.091   2.187   2.330  0.00  0.00    -0.393 OA
ATOM     24  H   UNL     1       4.051   2.239   2.173  0.00  0.00    +0.209 HD
ENDBRANCH  22  23
ENDBRANCH  18  22
ENDBRANCH   1  18
BRANCH   5  25
ATOM     25  C   UNL     1       7.953   6.108   0.817  0.00  0.00    +0.077 C 
BRANCH  25  26
ATOM     26  C   UNL     1       8.169   6.245   2.309  0.00  0.00    -0.006 A 
ATOM     27  C   UNL     1       7.097   6.438   3.195  0.00  0.00    +0.007 A 
ATOM     28  C   UNL     1       7.326   6.683   4.553  0.00  0.00    +0.002 A 
ATOM     29  C   UNL     1       8.629   6.749   5.044  0.00  0.00    +0.023 A 
ATOM     30  C   UNL     1       9.702   6.535   4.181  0.00  0.00    +0.076 A 
ATOM     31 CL   UNL     1      11.309   6.633   4.793  0.00  0.00    -0.081 Cl
ATOM     32  C   UNL     1       9.470   6.274   2.829  0.00  0.00    +0.145 A 
ATOM     33  F   UNL     1      10.509   6.066   2.005  0.00  0.00    -0.204 F 
ENDBRANCH  25  26
ENDBRANCH   5  25
TORSDOF 9
