REMARK  Name = 
REMARK  13 active torsions:
REMARK  status: ('A' for Active; 'I' for Inactive)
REMARK    1  A    between atoms: C_1  and  C_2
REMARK    2  A    between atoms: C_2  and  O_4
REMARK    3  A    between atoms: O_4  and  N_5
REMARK    4  A    between atoms: N_5  and  C_6
REMARK    5  A    between atoms: C_8  and  N_26
REMARK    6  A    between atoms: C_11  and  C_23
REMARK    7  A    between atoms: C_13  and  C_15
REMARK    8  A    between atoms: C_15  and  C_17
REMARK    9  A    between atoms: C_15  and  O_22
REMARK   10  A    between atoms: C_17  and  C_19
REMARK   11  A    between atoms: C_17  and  O_21
REMARK   12  A    between atoms: C_19  and  O_20
REMARK   13  A    between atoms: C_23  and  O_25
REMARK                            x       y       z     vdW  Elec       q    Type
REMARK                         _______ _______ _______ _____ _____    ______ ____
ROOT
ATOM      1  C   UNL     1       5.363   0.726  -2.577  0.00  0.00    +0.180 C 
ATOM      2  C   UNL     1       5.307   2.252  -2.249  0.00  0.00    +0.228 C 
ATOM      3  O   UNL     1       4.799   3.099  -3.301  0.00  0.00    -0.478 OA
ATOM      4  C   UNL     1       3.762   2.600  -4.059  0.00  0.00    +0.204 C 
ATOM      5  C   UNL     1       3.428   1.308  -4.125  0.00  0.00    +0.071 C 
ATOM      6  C   UNL     1       4.162   0.223  -3.427  0.00  0.00    +0.238 C 
ENDROOT
BRANCH   6   7
ATOM      7  N   UNL     1       3.210  -0.519  -2.599  0.00  0.00    -0.104 NA
ATOM      8  C   UNL     1       2.666  -1.589  -3.044  0.00  0.00    +0.377 C 
ATOM      9  N   UNL     1       1.751  -2.225  -2.284  0.00  0.00    -0.289 N 
ATOM     10  H   UNL     1       1.775  -3.234  -2.315  0.00  0.00    +0.255 HD
ATOM     11  H   UNL     1       1.755  -1.864  -1.335  0.00  0.00    +0.255 HD
ATOM     12  N   UNL     1       2.834  -2.244  -4.219  0.00  0.00    -0.289 N 
ATOM     13  H   UNL     1       2.030  -2.792  -4.501  0.00  0.00    +0.255 HD
ATOM     14  H   UNL     1       3.158  -1.673  -4.991  0.00  0.00    +0.255 HD
ENDBRANCH   6   7
BRANCH   1  15
ATOM     15  N   UNL     1       6.676   0.458  -3.252  0.00  0.00    -0.141 NA
ATOM     16  H   UNL     1       6.598   0.688  -4.252  0.00  0.00    +0.168 HD
BRANCH  15  17
ATOM     17  O   UNL     1       6.828  -1.011  -3.260  0.00  0.00    -0.369 OA
BRANCH  17  19
ATOM     18  C   UNL     1       6.977  -3.014  -4.492  0.00  0.00    +0.138 C 
ATOM     19  C   UNL     1       6.894  -1.519  -4.539  0.00  0.00    +0.323 C 
ATOM     20  O   UNL     1       6.845  -0.845  -5.561  0.00  0.00    -0.249 OA
ENDBRANCH  17  19
ENDBRANCH  15  17
ENDBRANCH   1  15
BRANCH   4  21
ATOM     21  C   UNL     1       2.965   3.561  -4.896  0.00  0.00    +0.372 C 
ATOM     22  O   UNL     1       2.050   3.252  -5.638  0.00  0.00    -0.242 OA
BRANCH  21  23
ATOM     23  O   UNL     1       3.410   4.822  -4.734  0.00  0.00    -0.475 OA
ATOM     24  H   UNL     1       4.175   4.829  -4.127  0.00  0.00    +0.296 HD
ENDBRANCH  21  23
ENDBRANCH   4  21
BRANCH   2  25
ATOM     25  C   UNL     1       4.635   2.550  -0.881  0.00  0.00    +0.187 C 
BRANCH  25  26
ATOM     26  O   UNL     1       3.221   2.347  -0.920  0.00  0.00    -0.385 OA
ATOM     27  H   UNL     1       2.896   2.612  -0.036  0.00  0.00    +0.210 HD
ENDBRANCH  25  26
BRANCH  25  28
ATOM     28  C   UNL     1       4.916   3.959  -0.311  0.00  0.00    +0.172 C 
BRANCH  28  29
ATOM     29  O   UNL     1       4.326   3.998   1.011  0.00  0.00    -0.387 OA
ATOM     30  H   UNL     1       4.992   4.399   1.600  0.00  0.00    +0.210 HD
ENDBRANCH  28  29
BRANCH  28  31
ATOM     31  C   UNL     1       4.319   5.119  -1.111  0.00  0.00    +0.189 C 
BRANCH  31  32
ATOM     32  O   UNL     1       4.589   6.352  -0.439  0.00  0.00    -0.392 OA
ATOM     33  H   UNL     1       4.020   6.353   0.352  0.00  0.00    +0.210 HD
ENDBRANCH  31  32
ENDBRANCH  28  31
ENDBRANCH  25  28
ENDBRANCH   2  25
TORSDOF 12
