REMARK  Name = 
REMARK  21 active torsions:
REMARK  status: ('A' for Active; 'I' for Inactive)
REMARK    1  A    between atoms: C_1  and  C_2
REMARK    2  A    between atoms: C_2  and  C_3
REMARK    3  A    between atoms: C_2  and  C_4
REMARK    4  A    between atoms: C_4  and  C_6
REMARK    5  A    between atoms: C_4  and  N_41
REMARK    6  A    between atoms: N_8  and  C_9
REMARK    7  A    between atoms: C_9  and  C_11
REMARK    8  A    between atoms: C_9  and  C_18
REMARK    9  A    between atoms: C_11  and  C_12
REMARK   10  A    between atoms: C_18  and  C_19
REMARK   11  A    between atoms: C_19  and  C_21
REMARK   12  A    between atoms: C_19  and  O_40
REMARK   13  A    between atoms: C_21  and  C_23
REMARK   14  A    between atoms: C_21  and  N_30
REMARK   15  A    between atoms: C_23  and  C_24
REMARK   16  A    between atoms: C_31  and  O_33
REMARK   17  A    between atoms: O_33  and  C_34
REMARK   18  A    between atoms: C_34  and  C_35
REMARK   19  A    between atoms: N_44  and  C_45
REMARK   20  A    between atoms: N_44  and  C_46
REMARK   21  A    between atoms: C_46  and  C_47
REMARK                            x       y       z     vdW  Elec       q    Type
REMARK                         _______ _______ _______ _____ _____    ______ ____
ROOT
ATOM      1  C   UNL     1      -3.202  -1.231  -4.537  0.00  0.00    +0.080 C 
ENDROOT
BRANCH   1   3
ATOM      2  C   UNL     1      -4.766  -1.845  -2.667  0.00  0.00    +0.234 C 
ATOM      3  N   UNL     1      -3.819  -1.023  -3.222  0.00  0.00    -0.311 N 
ATOM      4  H   UNL     1      -3.690  -0.115  -2.780  0.00  0.00    +0.149 HD
ATOM      5  O   UNL     1      -5.237  -2.810  -3.270  0.00  0.00    -0.274 OA
BRANCH   2   6
ATOM      6  C   UNL     1      -5.307  -1.404  -1.280  0.00  0.00    +0.163 C 
BRANCH   6   7
ATOM      7  N   UNL     1      -4.216  -0.822  -0.464  0.00  0.00    -0.288 N 
ATOM      8  H   UNL     1      -4.063  -1.254   0.434  0.00  0.00    +0.151 HD
ATOM      9  C   UNL     1      -3.751   0.453  -0.607  0.00  0.00    +0.303 C 
ATOM     10  N   UNL     1      -2.668   0.805   0.158  0.00  0.00    -0.283 N 
ATOM     11  C   UNL     1      -1.787  -0.118   0.863  0.00  0.00    +0.134 C 
ATOM     12  O   UNL     1      -4.235   1.222  -1.432  0.00  0.00    -0.253 OA
BRANCH  10  13
ATOM     13  C   UNL     1      -2.241   2.203   0.112  0.00  0.00    +0.164 C 
BRANCH  13  14
ATOM     14  C   UNL     1      -1.282   2.459  -1.015  0.00  0.00    +0.066 A 
ATOM     15  N   UNL     1       0.082   2.296  -0.797  0.00  0.00    -0.251 NA
ATOM     16  C   UNL     1       0.747   2.634  -1.878  0.00  0.00    +0.156 A 
ATOM     17  S   UNL     1      -0.192   3.153  -3.214  0.00  0.00    -0.084 S 
ATOM     18  C   UNL     1      -1.610   2.909  -2.285  0.00  0.00    +0.071 A 
ENDBRANCH  13  14
ENDBRANCH  10  13
ENDBRANCH   6   7
BRANCH   6  20
ATOM     19  C   UNL     1      -7.716  -1.201  -2.140  0.00  0.00    +0.009 C 
ATOM     20  C   UNL     1      -6.580  -0.522  -1.368  0.00  0.00    +0.012 C 
ATOM     21  C   UNL     1      -7.089  -0.140   0.028  0.00  0.00    +0.009 C 
ENDBRANCH   6  20
ENDBRANCH   2   6
ENDBRANCH   1   3
BRANCH   1  22
ATOM     22  C   UNL     1      -2.660   0.119  -5.068  0.00  0.00    +0.057 C 
BRANCH  22  23
ATOM     23  C   UNL     1      -3.652   1.259  -5.275  0.00  0.00    -0.046 A 
ATOM     24  C   UNL     1      -3.171   2.478  -5.781  0.00  0.00    +0.004 A 
ATOM     25  C   UNL     1      -4.029   3.563  -5.995  0.00  0.00    +0.000 A 
ATOM     26  C   UNL     1      -5.383   3.452  -5.694  0.00  0.00    +0.000 A 
ATOM     27  C   UNL     1      -5.876   2.259  -5.179  0.00  0.00    +0.000 A 
ATOM     28  C   UNL     1      -5.021   1.171  -4.983  0.00  0.00    +0.004 A 
ENDBRANCH  22  23
ENDBRANCH   1  22
BRANCH   1  29
ATOM     29  C   UNL     1      -2.098  -2.305  -4.372  0.00  0.00    +0.055 C 
BRANCH  29  30
ATOM     30  C   UNL     1      -1.316  -2.732  -5.631  0.00  0.00    +0.137 C 
BRANCH  30  31
ATOM     31  O   UNL     1      -2.253  -3.232  -6.596  0.00  0.00    -0.390 OA
ATOM     32  H   UNL     1      -2.555  -2.482  -7.136  0.00  0.00    +0.210 HD
ENDBRANCH  30  31
BRANCH  30  33
ATOM     33  C   UNL     1      -0.284  -3.874  -5.316  0.00  0.00    +0.109 C 
BRANCH  33  34
ATOM     34  N   UNL     1       0.261  -4.482  -6.538  0.00  0.00    -0.275 N 
ATOM     35  H   UNL     1      -0.130  -5.366  -6.845  0.00  0.00    +0.152 HD
ATOM     36  C   UNL     1       1.009  -3.830  -7.466  0.00  0.00    +0.401 C 
ATOM     37  O   UNL     1       1.395  -2.674  -7.372  0.00  0.00    -0.226 OA
BRANCH  36  38
ATOM     38  O   UNL     1       1.205  -4.639  -8.534  0.00  0.00    -0.445 OA
BRANCH  38  39
ATOM     39  C   UNL     1       1.675  -3.991  -9.723  0.00  0.00    +0.278 C 
BRANCH  39  40
ATOM     40  C   UNL     1       3.055  -4.459 -10.031  0.00  0.00    +0.046 A 
ATOM     41  S   UNL     1       3.342  -5.797 -11.070  0.00  0.00    -0.077 S 
ATOM     42  C   UNL     1       5.028  -5.496 -10.969  0.00  0.00    +0.156 A 
ATOM     43  N   UNL     1       5.392  -4.496 -10.199  0.00  0.00    -0.255 NA
ATOM     44  C   UNL     1       4.265  -3.909  -9.653  0.00  0.00    +0.125 A 
ENDBRANCH  39  40
ENDBRANCH  38  39
ENDBRANCH  36  38
ENDBRANCH  33  34
BRANCH  33  45
ATOM     45  C   UNL     1       0.838  -3.405  -4.359  0.00  0.00    +0.060 C 
BRANCH  45  46
ATOM     46  C   UNL     1       1.754  -4.495  -3.842  0.00  0.00    -0.046 A 
ATOM     47  C   UNL     1       1.249  -5.568  -3.093  0.00  0.00    +0.004 A 
ATOM     48  C   UNL     1       2.112  -6.517  -2.539  0.00  0.00    +0.000 A 
ATOM     49  C   UNL     1       3.488  -6.401  -2.721  0.00  0.00    +0.000 A 
ATOM     50  C   UNL     1       4.002  -5.343  -3.467  0.00  0.00    +0.000 A 
ATOM     51  C   UNL     1       3.141  -4.397  -4.027  0.00  0.00    +0.004 A 
ENDBRANCH  45  46
ENDBRANCH  33  45
ENDBRANCH  30  33
ENDBRANCH  29  30
ENDBRANCH   1  29
TORSDOF 18
