REMARK  Name = 
REMARK  21 active torsions:
REMARK  status: ('A' for Active; 'I' for Inactive)
REMARK    1  A    between atoms: C_1  and  C_2
REMARK    2  A    between atoms: C_2  and  C_3
REMARK    3  A    between atoms: C_2  and  C_4
REMARK    4  A    between atoms: C_4  and  C_6
REMARK    5  A    between atoms: C_4  and  N_41
REMARK    6  A    between atoms: N_8  and  C_9
REMARK    7  A    between atoms: C_9  and  C_11
REMARK    8  A    between atoms: C_9  and  C_18
REMARK    9  A    between atoms: C_11  and  C_12
REMARK   10  A    between atoms: C_18  and  C_19
REMARK   11  A    between atoms: C_19  and  C_21
REMARK   12  A    between atoms: C_19  and  O_40
REMARK   13  A    between atoms: C_21  and  C_23
REMARK   14  A    between atoms: C_21  and  N_30
REMARK   15  A    between atoms: C_23  and  C_24
REMARK   16  A    between atoms: C_31  and  O_33
REMARK   17  A    between atoms: O_33  and  C_34
REMARK   18  A    between atoms: C_34  and  C_35
REMARK   19  A    between atoms: N_44  and  C_45
REMARK   20  A    between atoms: N_44  and  C_46
REMARK   21  A    between atoms: C_46  and  C_47
REMARK                            x       y       z     vdW  Elec       q    Type
REMARK                         _______ _______ _______ _____ _____    ______ ____
ROOT
ATOM      1  C   UNL     1      -0.511   3.985   0.731  0.00  0.00    +0.080 C 
ENDROOT
BRANCH   1   3
ATOM      2  C   UNL     1       0.175   2.967  -1.457  0.00  0.00    +0.234 C 
ATOM      3  N   UNL     1       0.474   3.452  -0.205  0.00  0.00    -0.311 N 
ATOM      4  H   UNL     1       1.440   3.369   0.101  0.00  0.00    +0.149 HD
ATOM      5  O   UNL     1      -0.980   2.891  -1.878  0.00  0.00    -0.274 OA
BRANCH   2   6
ATOM      6  C   UNL     1       1.374   2.394  -2.265  0.00  0.00    +0.163 C 
BRANCH   6   7
ATOM      7  N   UNL     1       2.570   3.257  -2.116  0.00  0.00    -0.288 N 
ATOM      8  H   UNL     1       2.958   3.590  -2.983  0.00  0.00    +0.151 HD
ATOM      9  C   UNL     1       3.420   3.227  -1.049  0.00  0.00    +0.303 C 
ATOM     10  N   UNL     1       4.459   4.128  -1.058  0.00  0.00    -0.283 N 
ATOM     11  C   UNL     1       4.553   5.315  -1.898  0.00  0.00    +0.134 C 
ATOM     12  O   UNL     1       3.231   2.469  -0.101  0.00  0.00    -0.253 OA
BRANCH  10  13
ATOM     13  C   UNL     1       5.443   4.023   0.022  0.00  0.00    +0.164 C 
BRANCH  13  14
ATOM     14  C   UNL     1       5.005   4.733   1.272  0.00  0.00    +0.066 A 
ATOM     15  N   UNL     1       5.394   6.055   1.476  0.00  0.00    -0.251 NA
ATOM     16  C   UNL     1       4.996   6.454   2.665  0.00  0.00    +0.156 A 
ATOM     17  S   UNL     1       4.109   5.317   3.590  0.00  0.00    -0.084 S 
ATOM     18  C   UNL     1       4.293   4.180   2.323  0.00  0.00    +0.071 A 
ENDBRANCH  13  14
ENDBRANCH  10  13
ENDBRANCH   6   7
BRANCH   6  20
ATOM     19  C   UNL     1       0.394   0.022  -2.259  0.00  0.00    +0.009 C 
ATOM     20  C   UNL     1       1.631   0.886  -1.985  0.00  0.00    +0.012 C 
ATOM     21  C   UNL     1       2.801   0.346  -2.822  0.00  0.00    +0.009 C 
ENDBRANCH   6  20
ENDBRANCH   2   6
ENDBRANCH   1   3
BRANCH   1  22
ATOM     22  C   UNL     1      -0.452   5.535   0.689  0.00  0.00    +0.055 C 
BRANCH  22  23
ATOM     23  C   UNL     1      -1.469   6.262   1.592  0.00  0.00    +0.137 C 
BRANCH  23  24
ATOM     24  O   UNL     1      -2.806   5.932   1.190  0.00  0.00    -0.390 OA
ATOM     25  H   UNL     1      -2.933   4.971   1.254  0.00  0.00    +0.210 HD
ENDBRANCH  23  24
BRANCH  23  26
ATOM     26  C   UNL     1      -1.329   7.819   1.551  0.00  0.00    +0.109 C 
BRANCH  26  27
ATOM     27  N   UNL     1      -2.488   8.484   2.162  0.00  0.00    -0.275 N 
ATOM     28  H   UNL     1      -3.164   7.940   2.676  0.00  0.00    +0.152 HD
ATOM     29  C   UNL     1      -2.747   9.812   2.034  0.00  0.00    +0.401 C 
ATOM     30  O   UNL     1      -2.097  10.585   1.347  0.00  0.00    -0.226 OA
BRANCH  29  31
ATOM     31  O   UNL     1      -3.815  10.146   2.794  0.00  0.00    -0.445 OA
BRANCH  31  32
ATOM     32  C   UNL     1      -4.140  11.542   2.823  0.00  0.00    +0.278 C 
BRANCH  32  33
ATOM     33  C   UNL     1      -5.483  11.690   2.199  0.00  0.00    +0.046 A 
ATOM     34  S   UNL     1      -6.914  11.738   3.144  0.00  0.00    -0.077 S 
ATOM     35  C   UNL     1      -7.834  11.937   1.710  0.00  0.00    +0.156 A 
ATOM     36  N   UNL     1      -7.155  11.969   0.585  0.00  0.00    -0.255 NA
ATOM     37  C   UNL     1      -5.809  11.821   0.863  0.00  0.00    +0.125 A 
ENDBRANCH  32  33
ENDBRANCH  31  32
ENDBRANCH  29  31
ENDBRANCH  26  27
BRANCH  26  38
ATOM     38  C   UNL     1       0.003   8.344   2.153  0.00  0.00    +0.060 C 
BRANCH  38  39
ATOM     39  C   UNL     1       0.240   8.270   3.653  0.00  0.00    -0.046 A 
ATOM     40  C   UNL     1       1.421   8.844   4.156  0.00  0.00    +0.004 A 
ATOM     41  C   UNL     1       1.688   8.860   5.527  0.00  0.00    +0.000 A 
ATOM     42  C   UNL     1       0.784   8.294   6.420  0.00  0.00    +0.000 A 
ATOM     43  C   UNL     1      -0.385   7.715   5.942  0.00  0.00    +0.000 A 
ATOM     44  C   UNL     1      -0.654   7.707   4.572  0.00  0.00    +0.004 A 
ENDBRANCH  38  39
ENDBRANCH  26  38
ENDBRANCH  23  26
ENDBRANCH  22  23
ENDBRANCH   1  22
BRANCH   1  45
ATOM     45  C   UNL     1      -0.254   3.430   2.152  0.00  0.00    +0.057 C 
BRANCH  45  46
ATOM     46  C   UNL     1      -0.343   1.923   2.245  0.00  0.00    -0.046 A 
ATOM     47  C   UNL     1      -1.574   1.295   2.478  0.00  0.00    +0.004 A 
ATOM     48  C   UNL     1      -1.660  -0.097   2.531  0.00  0.00    +0.000 A 
ATOM     49  C   UNL     1      -0.519  -0.876   2.350  0.00  0.00    +0.000 A 
ATOM     50  C   UNL     1       0.712  -0.263   2.131  0.00  0.00    +0.000 A 
ATOM     51  C   UNL     1       0.800   1.128   2.081  0.00  0.00    +0.004 A 
ENDBRANCH  45  46
ENDBRANCH   1  45
TORSDOF 18
