REMARK  Name = 
REMARK  21 active torsions:
REMARK  status: ('A' for Active; 'I' for Inactive)
REMARK    1  A    between atoms: C_1  and  C_2
REMARK    2  A    between atoms: C_2  and  C_3
REMARK    3  A    between atoms: C_2  and  C_4
REMARK    4  A    between atoms: C_4  and  C_6
REMARK    5  A    between atoms: C_4  and  N_65
REMARK    6  A    between atoms: C_12  and  C_14
REMARK    7  A    between atoms: C_17  and  C_19
REMARK    8  A    between atoms: C_28  and  C_59
REMARK    9  A    between atoms: C_35  and  C_37
REMARK   10  A    between atoms: C_40  and  C_42
REMARK   11  A    between atoms: C_47  and  C_49
REMARK   12  A    between atoms: C_49  and  C_51
REMARK   13  A    between atoms: C_49  and  N_54
REMARK   14  A    between atoms: C_51  and  C_52
REMARK   15  A    between atoms: C_51  and  C_53
REMARK   16  A    between atoms: N_54  and  C_55
REMARK   17  A    between atoms: C_55  and  C_56
REMARK   18  A    between atoms: C_56  and  O_58
REMARK   19  A    between atoms: N_65  and  C_66
REMARK   20  A    between atoms: C_66  and  C_67
REMARK   21  A    between atoms: C_67  and  O_69
REMARK                            x       y       z     vdW  Elec       q    Type
REMARK                         _______ _______ _______ _____ _____    ______ ____
ROOT
ATOM      1  C   UNL     1     -17.803  -3.209  15.540  0.00  0.00    +0.002 A 
ATOM      2  C   UNL     1     -17.972  -1.976  16.184  0.00  0.00    +0.011 A 
ATOM      3  C   UNL     1     -16.984  -0.992  16.170  0.00  0.00    +0.010 A 
ATOM      4  C   UNL     1     -15.750  -1.283  15.577  0.00  0.00    +0.001 A 
ATOM      5  C   UNL     1     -14.546  -0.544  15.454  0.00  0.00    +0.036 A 
ATOM      6  C   UNL     1     -13.626  -1.359  14.840  0.00  0.00    +0.057 A 
ATOM      7  C   UNL     1     -12.223  -1.232  14.511  0.00  0.00    +0.040 A 
ATOM      8  C   UNL     1     -11.388  -0.326  15.157  0.00  0.00    +0.014 A 
ATOM      9  C   UNL     1     -10.017  -0.348  14.893  0.00  0.00    +0.011 A 
ATOM     10  C   UNL     1      -9.477  -1.230  13.941  0.00  0.00    +0.003 A 
ATOM     11  C   UNL     1     -10.323  -2.139  13.294  0.00  0.00    +0.056 A 
ATOM     12  C   UNL     1     -11.681  -2.161  13.610  0.00  0.00    +0.133 A 
ATOM     13  O   UNL     1     -12.428  -3.216  13.126  0.00  0.00    -0.464 OA
ATOM     14  C   UNL     1     -13.463  -3.691  14.042  0.00  0.00    +0.308 C 
ATOM     15  N   UNL     1     -14.240  -2.560  14.573  0.00  0.00    -0.300 N 
ATOM     16  C   UNL     1     -15.558  -2.531  14.974  0.00  0.00    +0.054 A 
ATOM     17  C   UNL     1     -16.586  -3.489  14.902  0.00  0.00    +0.036 A 
ENDROOT
BRANCH  14  18
ATOM     18  C   UNL     1     -12.917  -4.580  15.169  0.00  0.00    +0.014 A 
ATOM     19  C   UNL     1     -11.680  -4.342  15.797  0.00  0.00    +0.009 A 
ATOM     20  C   UNL     1     -11.211  -5.121  16.850  0.00  0.00    +0.000 A 
ATOM     21  C   UNL     1     -11.991  -6.166  17.320  0.00  0.00    +0.000 A 
ATOM     22  C   UNL     1     -13.214  -6.437  16.726  0.00  0.00    +0.000 A 
ATOM     23  C   UNL     1     -13.679  -5.651  15.664  0.00  0.00    +0.009 A 
ENDBRANCH  14  18
BRANCH  10  24
ATOM     24  C   UNL     1      -8.063  -1.163  13.599  0.00  0.00    +0.066 A 
ATOM     25  N   UNL     1      -7.403   0.031  13.460  0.00  0.00    -0.340 N 
ATOM     26  H   UNL     1      -7.833   0.932  13.606  0.00  0.00    +0.167 HD
ATOM     27  C   UNL     1      -6.138  -0.193  12.950  0.00  0.00    +0.128 A 
ATOM     28  N   UNL     1      -5.961  -1.500  12.842  0.00  0.00    -0.238 NA
ATOM     29  C   UNL     1      -7.120  -2.102  13.261  0.00  0.00    +0.139 A 
BRANCH  27  30
ATOM     30  C   UNL     1      -5.249   0.906  12.447  0.00  0.00    +0.142 C 
ATOM     31  N   UNL     1      -3.885   1.126  13.012  0.00  0.00    -0.290 N 
ATOM     32  C   UNL     1      -2.765   0.329  13.229  0.00  0.00    +0.233 C 
ATOM     33  O   UNL     1      -1.646   0.869  13.307  0.00  0.00    -0.274 OA
ATOM     34  C   UNL     1      -3.579   2.561  12.953  0.00  0.00    +0.108 C 
ATOM     35  C   UNL     1      -4.796   3.257  12.375  0.00  0.00    +0.021 C 
ATOM     36  C   UNL     1      -5.902   2.286  12.697  0.00  0.00    +0.032 C 
BRANCH  32  37
ATOM     37  C   UNL     1      -2.801  -1.209  13.453  0.00  0.00    +0.144 C 
BRANCH  37  38
ATOM     38  C   UNL     1      -2.779  -1.977  12.088  0.00  0.00    +0.009 C 
ATOM     39  C   UNL     1      -2.498  -3.475  12.264  0.00  0.00    +0.009 C 
ATOM     40  C   UNL     1      -1.690  -1.450  11.122  0.00  0.00    +0.009 C 
ENDBRANCH  37  38
BRANCH  37  41
ATOM     41  N   UNL     1      -3.843  -1.461  14.482  0.00  0.00    -0.296 NA
ATOM     42  H   UNL     1      -4.719  -1.471  13.945  0.00  0.00    +0.123 HD
BRANCH  41  43
ATOM     43  C   UNL     1      -3.831  -2.759  15.175  0.00  0.00    +0.203 C 
BRANCH  43  44
ATOM     44  C   UNL     1      -4.974  -2.771  16.210  0.00  0.00    +0.319 C 
ATOM     45  O   UNL     1      -5.547  -3.769  16.609  0.00  0.00    -0.250 OA
BRANCH  44  46
ATOM     46  O   UNL     1      -5.267  -1.518  16.655  0.00  0.00    -0.480 OA
ATOM     47  H   UNL     1      -4.698  -0.900  16.139  0.00  0.00    +0.295 HD
ENDBRANCH  44  46
ENDBRANCH  43  44
ENDBRANCH  41  43
ENDBRANCH  37  41
ENDBRANCH  32  37
ENDBRANCH  27  30
ENDBRANCH  10  24
BRANCH   1  51
ATOM     48  C   UNL     1     -20.811  -5.162  16.135  0.00  0.00    +0.128 A 
ATOM     49  N   UNL     1     -19.899  -4.197  16.471  0.00  0.00    -0.340 N 
ATOM     50  H   UNL     1     -19.984  -3.561  17.250  0.00  0.00    +0.167 HD
ATOM     51  C   UNL     1     -18.892  -4.185  15.533  0.00  0.00    +0.066 A 
ATOM     52  C   UNL     1     -19.221  -5.234  14.695  0.00  0.00    +0.139 A 
ATOM     53  N   UNL     1     -20.381  -5.850  15.094  0.00  0.00    -0.238 NA
BRANCH  48  56
ATOM     54  C   UNL     1     -23.855  -5.038  15.053  0.00  0.00    +0.233 C 
ATOM     55  N   UNL     1     -23.160  -5.754  16.006  0.00  0.00    -0.290 N 
ATOM     56  C   UNL     1     -22.095  -5.312  16.899  0.00  0.00    +0.142 C 
ATOM     57  C   UNL     1     -21.986  -6.424  17.963  0.00  0.00    +0.032 C 
ATOM     58  C   UNL     1     -23.055  -7.452  17.590  0.00  0.00    +0.021 C 
ATOM     59  C   UNL     1     -23.324  -7.189  16.122  0.00  0.00    +0.108 C 
ATOM     60  O   UNL     1     -24.630  -5.624  14.289  0.00  0.00    -0.274 OA
BRANCH  54  61
ATOM     61  C   UNL     1     -23.636  -3.488  14.922  0.00  0.00    +0.144 C 
BRANCH  61  63
ATOM     62  C   UNL     1     -25.574  -3.041  13.216  0.00  0.00    +0.009 C 
ATOM     63  C   UNL     1     -24.960  -2.721  14.586  0.00  0.00    +0.009 C 
ATOM     64  C   UNL     1     -26.016  -2.862  15.685  0.00  0.00    +0.009 C 
ENDBRANCH  61  63
BRANCH  61  65
ATOM     65  N   UNL     1     -22.574  -3.283  13.895  0.00  0.00    -0.296 NA
ATOM     66  H   UNL     1     -22.874  -3.776  13.051  0.00  0.00    +0.123 HD
BRANCH  65  67
ATOM     67  C   UNL     1     -22.302  -1.880  13.569  0.00  0.00    +0.203 C 
BRANCH  67  68
ATOM     68  C   UNL     1     -21.656  -1.161  14.741  0.00  0.00    +0.319 C 
ATOM     69  O   UNL     1     -22.255  -0.584  15.636  0.00  0.00    -0.250 OA
BRANCH  68  70
ATOM     70  O   UNL     1     -20.314  -1.279  14.738  0.00  0.00    -0.480 OA
ATOM     71  H   UNL     1     -19.997  -1.938  14.084  0.00  0.00    +0.295 HD
ENDBRANCH  68  70
ENDBRANCH  67  68
ENDBRANCH  65  67
ENDBRANCH  61  65
ENDBRANCH  54  61
ENDBRANCH  48  56
ENDBRANCH   1  51
TORSDOF 17
