REMARK  Name = 
REMARK  50 active torsions:
REMARK  status: ('A' for Active; 'I' for Inactive)
REMARK    1  A    between atoms: C_1  and  C_2
REMARK    2  A    between atoms: C_2  and  C_3
REMARK    3  A    between atoms: C_2  and  C_4
REMARK    4  A    between atoms: C_6  and  C_9
REMARK    5  A    between atoms: C_9  and  N_10
REMARK    6  A    between atoms: N_10  and  C_11
REMARK    7  A    between atoms: N_14  and  C_15
REMARK    8  A    between atoms: C_15  and  C_17
REMARK    9  A    between atoms: C_15  and  C_25
REMARK   10  A    between atoms: C_17  and  C_18
REMARK   11  A    between atoms: C_18  and  N_19
REMARK   12  A    between atoms: N_27  and  C_28
REMARK   13  A    between atoms: C_28  and  C_30
REMARK   14  A    between atoms: C_28  and  C_51
REMARK   15  A    between atoms: C_30  and  C_31
REMARK   16  A    between atoms: C_31  and  C_32
REMARK   17  A    between atoms: C_32  and  C_34
REMARK   18  A    between atoms: C_32  and  N_41
REMARK   19  A    between atoms: C_34  and  C_35
REMARK   20  A    between atoms: C_42  and  O_44
REMARK   21  A    between atoms: O_44  and  C_45
REMARK   22  A    between atoms: C_45  and  C_46
REMARK   23  A    between atoms: C_51  and  C_52
REMARK   24  A    between atoms: C_58  and  C_59
REMARK   25  A    between atoms: C_59  and  C_60
REMARK   26  A    between atoms: C_59  and  C_61
REMARK   27  A    between atoms: C_59  and  C_62
REMARK   28  A    between atoms: C_62  and  C_64
REMARK   29  A    between atoms: C_62  and  N_108
REMARK   30  A    between atoms: N_66  and  C_67
REMARK   31  A    between atoms: C_67  and  C_69
REMARK   32  A    between atoms: C_67  and  C_76
REMARK   33  A    between atoms: C_69  and  C_70
REMARK   34  A    between atoms: C_76  and  C_78
REMARK   35  A    between atoms: C_76  and  O_107
REMARK   36  A    between atoms: C_78  and  N_79
REMARK   37  A    between atoms: N_79  and  C_80
REMARK   38  A    between atoms: N_79  and  N_93
REMARK   39  A    between atoms: C_80  and  C_81
REMARK   40  A    between atoms: C_84  and  C_87
REMARK   41  A    between atoms: C_94  and  C_96
REMARK   42  A    between atoms: C_96  and  C_98
REMARK   43  A    between atoms: C_96  and  N_102
REMARK   44  A    between atoms: C_98  and  C_99
REMARK   45  A    between atoms: C_98  and  C_100
REMARK   46  A    between atoms: C_98  and  C_101
REMARK   47  A    between atoms: C_103  and  O_105
REMARK   48  A    between atoms: O_105  and  C_106
REMARK   49  A    between atoms: C_109  and  O_111
REMARK   50  A    between atoms: O_111  and  C_112
REMARK                            x       y       z     vdW  Elec       q    Type
REMARK                         _______ _______ _______ _____ _____    ______ ____
ROOT
ATOM      1  C   UNL     1       9.701  -6.590  -5.483  0.00  0.00    +0.077 C 
ENDROOT
BRANCH   1   3
ATOM      2  C   UNL     1       7.379  -5.686  -5.509  0.00  0.00    +0.234 C 
ATOM      3  N   UNL     1       8.429  -6.266  -4.865  0.00  0.00    -0.311 N 
ATOM      4  H   UNL     1       8.211  -6.722  -3.989  0.00  0.00    +0.149 HD
ATOM      5  O   UNL     1       7.369  -5.301  -6.692  0.00  0.00    -0.274 OA
BRANCH   2   6
ATOM      6  C   UNL     1       6.189  -5.478  -4.644  0.00  0.00    +0.161 C 
BRANCH   6   9
ATOM      7  N   UNL     1       5.350  -2.169  -3.563  0.00  0.00    -0.283 N 
ATOM      8  C   UNL     1       5.382  -3.552  -3.599  0.00  0.00    +0.303 C 
ATOM      9  N   UNL     1       6.051  -4.067  -4.652  0.00  0.00    -0.288 N 
ATOM     10  H   UNL     1       6.135  -3.598  -5.535  0.00  0.00    +0.151 HD
ATOM     11  O   UNL     1       4.936  -4.308  -2.732  0.00  0.00    -0.253 OA
ATOM     12  C   UNL     1       4.762  -1.881  -2.142  0.00  0.00    +0.134 C 
BRANCH   7  13
ATOM     13  C   UNL     1       6.123  -1.310  -4.876  0.00  0.00    +0.164 C 
BRANCH  13  17
ATOM     14  C   UNL     1       5.432   2.467  -5.828  0.00  0.00    +0.081 A 
ATOM     15  S   UNL     1       7.013   2.805  -5.140  0.00  0.00    -0.080 S 
ATOM     16  C   UNL     1       7.352   1.110  -4.874  0.00  0.00    +0.071 A 
ATOM     17  C   UNL     1       6.306   0.302  -5.276  0.00  0.00    +0.066 A 
ATOM     18  N   UNL     1       5.380   1.117  -6.115  0.00  0.00    -0.247 NA
BRANCH  14  20
ATOM     19  C   UNL     1       2.286   3.744  -5.755  0.00  0.00    +0.014 C 
ATOM     20  C   UNL     1       4.174   3.812  -5.908  0.00  0.00    +0.038 C 
ATOM     21  C   UNL     1       4.300   4.835  -4.787  0.00  0.00    +0.014 C 
ENDBRANCH  14  20
ENDBRANCH  13  17
ENDBRANCH   7  13
ENDBRANCH   6   9
BRANCH   6  22
ATOM     22  C   UNL     1       4.998  -6.125  -5.289  0.00  0.00    +0.047 C 
BRANCH  22  23
ATOM     23  C   UNL     1       5.254  -7.621  -5.290  0.00  0.00    +0.087 C 
BRANCH  23  24
ATOM     24  N   UNL     1       5.480  -8.083  -3.907  0.00  0.00    -0.298 NA
ATOM     25  C   UNL     1       5.937  -9.481  -3.877  0.00  0.00    +0.112 C 
ATOM     26  C   UNL     1       4.849 -10.449  -4.359  0.00  0.00    +0.175 C 
ATOM     27  O   UNL     1       3.627 -10.300  -3.619  0.00  0.00    -0.377 OA
ATOM     28  C   UNL     1       3.158  -8.943  -3.611  0.00  0.00    +0.175 C 
ATOM     29  C   UNL     1       4.245  -7.995  -3.089  0.00  0.00    +0.112 C 
ENDBRANCH  23  24
ENDBRANCH  22  23
ENDBRANCH   6  22
ENDBRANCH   2   6
ENDBRANCH   1   3
BRANCH   1  30
ATOM     30  C   UNL     1       9.717  -8.098  -5.862  0.00  0.00    +0.057 C 
BRANCH  30  31
ATOM     31  C   UNL     1      11.105  -8.654  -6.099  0.00  0.00    -0.046 A 
ATOM     32  C   UNL     1      11.893  -8.219  -7.173  0.00  0.00    +0.004 A 
ATOM     33  C   UNL     1      13.237  -8.568  -7.268  0.00  0.00    +0.000 A 
ATOM     34  C   UNL     1      13.782  -9.461  -6.354  0.00  0.00    +0.000 A 
ATOM     35  C   UNL     1      12.977 -10.008  -5.357  0.00  0.00    +0.000 A 
ATOM     36  C   UNL     1      11.650  -9.597  -5.219  0.00  0.00    +0.004 A 
ENDBRANCH  30  31
ENDBRANCH   1  30
BRANCH   1  37
ATOM     37  C   UNL     1      10.064  -5.688  -6.671  0.00  0.00    +0.024 C 
BRANCH  37  38
ATOM     38  C   UNL     1      10.044  -4.170  -6.484  0.00  0.00    +0.024 C 
BRANCH  38  39
ATOM     39  C   UNL     1      10.410  -3.484  -7.817  0.00  0.00    +0.080 C 
BRANCH  39  40
ATOM     40  N   UNL     1      10.122  -2.063  -7.704  0.00  0.00    -0.278 N 
ATOM     41  H   UNL     1      10.446  -1.547  -6.897  0.00  0.00    +0.152 HD
ATOM     42  C   UNL     1       9.621  -1.330  -8.732  0.00  0.00    +0.401 C 
ATOM     43  O   UNL     1       9.328  -1.769  -9.833  0.00  0.00    -0.226 OA
BRANCH  42  44
ATOM     44  O   UNL     1       9.517  -0.038  -8.343  0.00  0.00    -0.445 OA
BRANCH  44  45
ATOM     45  C   UNL     1       9.071   0.865  -9.365  0.00  0.00    +0.278 C 
BRANCH  45  46
ATOM     46  C   UNL     1      10.269   1.223 -10.177  0.00  0.00    +0.046 A 
ATOM     47  S   UNL     1      11.342   2.472  -9.699  0.00  0.00    -0.077 S 
ATOM     48  C   UNL     1      12.382   2.047 -10.994  0.00  0.00    +0.156 A 
ATOM     49  N   UNL     1      11.961   1.088 -11.788  0.00  0.00    -0.255 NA
ATOM     50  C   UNL     1      10.748   0.619 -11.324  0.00  0.00    +0.125 A 
ENDBRANCH  45  46
ENDBRANCH  44  45
ENDBRANCH  42  44
ENDBRANCH  39  40
BRANCH  39  51
ATOM     51  C   UNL     1      11.851  -3.766  -8.330  0.00  0.00    +0.057 C 
BRANCH  51  52
ATOM     52  C   UNL     1      12.928  -3.271  -7.392  0.00  0.00    -0.046 A 
ATOM     53  C   UNL     1      13.376  -1.949  -7.496  0.00  0.00    +0.004 A 
ATOM     54  C   UNL     1      14.221  -1.413  -6.526  0.00  0.00    +0.000 A 
ATOM     55  C   UNL     1      14.630  -2.196  -5.448  0.00  0.00    +0.000 A 
ATOM     56  C   UNL     1      14.248  -3.534  -5.374  0.00  0.00    +0.000 A 
ATOM     57  C   UNL     1      13.418  -4.077  -6.354  0.00  0.00    +0.004 A 
ENDBRANCH  51  52
ENDBRANCH  39  51
ENDBRANCH  38  39
ENDBRANCH  37  38
ENDBRANCH   1  37
TORSDOF 20
REMARK  Name = 
REMARK  50 active torsions:
REMARK  status: ('A' for Active; 'I' for Inactive)
REMARK    1  A    between atoms: C_1  and  C_2
REMARK    2  A    between atoms: C_2  and  C_3
REMARK    3  A    between atoms: C_2  and  C_4
REMARK    4  A    between atoms: C_6  and  C_9
REMARK    5  A    between atoms: C_9  and  N_10
REMARK    6  A    between atoms: N_10  and  C_11
REMARK    7  A    between atoms: N_14  and  C_15
REMARK    8  A    between atoms: C_15  and  C_17
REMARK    9  A    between atoms: C_15  and  C_25
REMARK   10  A    between atoms: C_17  and  C_18
REMARK   11  A    between atoms: C_18  and  N_19
REMARK   12  A    between atoms: N_27  and  C_28
REMARK   13  A    between atoms: C_28  and  C_30
REMARK   14  A    between atoms: C_28  and  C_51
REMARK   15  A    between atoms: C_30  and  C_31
REMARK   16  A    between atoms: C_31  and  C_32
REMARK   17  A    between atoms: C_32  and  C_34
REMARK   18  A    between atoms: C_32  and  N_41
REMARK   19  A    between atoms: C_34  and  C_35
REMARK   20  A    between atoms: C_42  and  O_44
REMARK   21  A    between atoms: O_44  and  C_45
REMARK   22  A    between atoms: C_45  and  C_46
REMARK   23  A    between atoms: C_51  and  C_52
REMARK   24  A    between atoms: C_58  and  C_59
REMARK   25  A    between atoms: C_59  and  C_60
REMARK   26  A    between atoms: C_59  and  C_61
REMARK   27  A    between atoms: C_59  and  C_62
REMARK   28  A    between atoms: C_62  and  C_64
REMARK   29  A    between atoms: C_62  and  N_108
REMARK   30  A    between atoms: N_66  and  C_67
REMARK   31  A    between atoms: C_67  and  C_69
REMARK   32  A    between atoms: C_67  and  C_76
REMARK   33  A    between atoms: C_69  and  C_70
REMARK   34  A    between atoms: C_76  and  C_78
REMARK   35  A    between atoms: C_76  and  O_107
REMARK   36  A    between atoms: C_78  and  N_79
REMARK   37  A    between atoms: N_79  and  C_80
REMARK   38  A    between atoms: N_79  and  N_93
REMARK   39  A    between atoms: C_80  and  C_81
REMARK   40  A    between atoms: C_84  and  C_87
REMARK   41  A    between atoms: C_94  and  C_96
REMARK   42  A    between atoms: C_96  and  C_98
REMARK   43  A    between atoms: C_96  and  N_102
REMARK   44  A    between atoms: C_98  and  C_99
REMARK   45  A    between atoms: C_98  and  C_100
REMARK   46  A    between atoms: C_98  and  C_101
REMARK   47  A    between atoms: C_103  and  O_105
REMARK   48  A    between atoms: O_105  and  C_106
REMARK   49  A    between atoms: C_109  and  O_111
REMARK   50  A    between atoms: O_111  and  C_112
REMARK                            x       y       z     vdW  Elec       q    Type
REMARK                         _______ _______ _______ _____ _____    ______ ____
ROOT
ATOM      1  N   UNL     1       3.392   2.576  -8.173  0.00  0.00    -0.220 NA
ENDROOT
BRANCH   1   2
ATOM      2  N   UNL     1       2.855   1.476  -6.965  0.00  0.00    -0.246 N 
ATOM      3  H   UNL     1       2.631   0.564  -7.339  0.00  0.00    +0.169 HD
ATOM      4  C   UNL     1       2.951   1.468  -5.472  0.00  0.00    +0.248 C 
ATOM      5  O   UNL     1       3.467   2.232  -4.638  0.00  0.00    -0.272 OA
BRANCH   4   6
ATOM      6  C   UNL     1       2.164   0.491  -4.681  0.00  0.00    +0.169 C 
BRANCH   6   7
ATOM      7  C   UNL     1       3.021  -0.664  -4.301  0.00  0.00    -0.011 C 
ATOM      8  C   UNL     1       2.086  -1.558  -3.443  0.00  0.00    +0.013 C 
ATOM      9  C   UNL     1       4.188   0.213  -3.473  0.00  0.00    +0.013 C 
ATOM     10  C   UNL     1       3.249  -1.489  -5.601  0.00  0.00    +0.013 C 
ENDBRANCH   6   7
BRANCH   6  11
ATOM     11  N   UNL     1       0.848   0.317  -5.192  0.00  0.00    -0.269 N 
ATOM     12  H   UNL     1       0.714  -0.090  -6.104  0.00  0.00    +0.153 HD
ATOM     13  C   UNL     1      -0.052   1.288  -4.824  0.00  0.00    +0.401 C 
ATOM     14  O   UNL     1       0.089   2.051  -3.827  0.00  0.00    -0.226 OA
BRANCH  13  15
ATOM     15  O   UNL     1      -0.993   1.364  -5.727  0.00  0.00    -0.454 OA
ATOM     16  C   UNL     1      -1.787   2.519  -5.609  0.00  0.00    +0.282 C 
ENDBRANCH  13  15
ENDBRANCH   6  11
ENDBRANCH   4   6
ENDBRANCH   1   2
BRANCH   1  17
ATOM     17  C   UNL     1       2.837   2.058  -9.445  0.00  0.00    +0.139 C 
BRANCH  17  18
ATOM     18  C   UNL     1       3.304   0.679  -9.779  0.00  0.00    +0.151 C 
BRANCH  18  19
ATOM     19  O   UNL     1       4.728   0.683  -9.886  0.00  0.00    -0.389 OA
ATOM     20  H   UNL     1       5.027   1.029  -9.015  0.00  0.00    +0.210 HD
ENDBRANCH  18  19
BRANCH  18  21
ATOM     21  C   UNL     1       2.591   0.194 -11.048  0.00  0.00    +0.107 C 
BRANCH  21  23
ATOM     22  C   UNL     1       2.755  -2.170 -10.422  0.00  0.00    +0.234 C 
ATOM     23  N   UNL     1       3.007  -1.167 -11.323  0.00  0.00    -0.308 N 
ATOM     24  H   UNL     1       3.620  -1.338 -12.114  0.00  0.00    +0.149 HD
ATOM     25  O   UNL     1       2.192  -1.952  -9.345  0.00  0.00    -0.274 OA
BRANCH  22  26
ATOM     26  C   UNL     1       3.172  -3.560 -10.891  0.00  0.00    +0.167 C 
BRANCH  26  27
ATOM     27  N   UNL     1       4.632  -3.608 -11.040  0.00  0.00    -0.269 N 
ATOM     28  H   UNL     1       5.228  -3.672 -10.226  0.00  0.00    +0.153 HD
ATOM     29  C   UNL     1       5.287  -3.231 -12.172  0.00  0.00    +0.401 C 
ATOM     30  O   UNL     1       4.745  -2.807 -13.182  0.00  0.00    -0.226 OA
BRANCH  29  31
ATOM     31  O   UNL     1       6.619  -3.367 -11.982  0.00  0.00    -0.454 OA
ATOM     32  C   UNL     1       7.453  -3.023 -13.094  0.00  0.00    +0.282 C 
ENDBRANCH  29  31
ENDBRANCH  26  27
BRANCH  26  34
ATOM     33  C   UNL     1       1.057  -4.588  -9.881  0.00  0.00    +0.013 C 
ATOM     34  C   UNL     1       2.603  -4.676  -9.955  0.00  0.00    -0.011 C 
ATOM     35  C   UNL     1       2.931  -6.054 -10.559  0.00  0.00    +0.013 C 
ATOM     36  C   UNL     1       3.191  -4.611  -8.529  0.00  0.00    +0.013 C 
ENDBRANCH  26  34
ENDBRANCH  22  26
ENDBRANCH  21  23
BRANCH  21  37
ATOM     37  C   UNL     1       1.031   0.289 -10.938  0.00  0.00    +0.060 C 
BRANCH  37  38
ATOM     38  C   UNL     1       0.341  -0.196 -12.182  0.00  0.00    -0.046 A 
ATOM     39  C   UNL     1       0.591   0.452 -13.392  0.00  0.00    +0.004 A 
ATOM     40  C   UNL     1       0.046  -0.071 -14.571  0.00  0.00    +0.000 A 
ATOM     41  C   UNL     1      -0.790  -1.191 -14.534  0.00  0.00    +0.000 A 
ATOM     42  C   UNL     1      -1.084  -1.802 -13.289  0.00  0.00    +0.000 A 
ATOM     43  C   UNL     1      -0.517  -1.317 -12.158  0.00  0.00    +0.004 A 
ENDBRANCH  37  38
ENDBRANCH  21  37
ENDBRANCH  18  21
ENDBRANCH  17  18
ENDBRANCH   1  17
BRANCH   1  44
ATOM     44  C   UNL     1       2.731   3.945  -8.276  0.00  0.00    +0.140 C 
BRANCH  44  45
ATOM     45  C   UNL     1       3.194   5.095  -9.153  0.00  0.00    -0.032 A 
ATOM     46  C   UNL     1       4.519   5.553  -9.170  0.00  0.00    +0.005 A 
ATOM     47  C   UNL     1       4.794   6.852  -9.592  0.00  0.00    +0.010 A 
ATOM     48  C   UNL     1       3.753   7.709  -9.981  0.00  0.00    +0.000 A 
ATOM     49  C   UNL     1       2.429   7.261  -9.900  0.00  0.00    +0.010 A 
ATOM     50  C   UNL     1       2.152   5.979  -9.491  0.00  0.00    +0.005 A 
BRANCH  48  51
ATOM     51  C   UNL     1       3.975   9.080 -10.410  0.00  0.00    +0.071 A 
ATOM     52  N   UNL     1       3.020   9.555 -11.251  0.00  0.00    -0.255 NA
ATOM     53  C   UNL     1       3.057  10.853 -11.576  0.00  0.00    +0.111 A 
ATOM     54  C   UNL     1       4.038  11.708 -11.112  0.00  0.00    +0.020 A 
ATOM     55  C   UNL     1       5.032  11.206 -10.287  0.00  0.00    +0.004 A 
ATOM     56  C   UNL     1       5.002   9.869  -9.921  0.00  0.00    +0.028 A 
ENDBRANCH  48  51
ENDBRANCH  44  45
ENDBRANCH   1  44
TORSDOF 19
