REMARK  Name = 
REMARK  22 active torsions:
REMARK  status: ('A' for Active; 'I' for Inactive)
REMARK    1  A    between atoms: C_1  and  C_2
REMARK    2  A    between atoms: C_2  and  C_3
REMARK    3  A    between atoms: C_2  and  C_4
REMARK    4  A    between atoms: C_2  and  C_5
REMARK    5  A    between atoms: C_5  and  O_7
REMARK    6  A    between atoms: O_7  and  C_8
REMARK    7  A    between atoms: C_8  and  O_9
REMARK    8  A    between atoms: O_9  and  P_10
REMARK    9  A    between atoms: P_10  and  C_12
REMARK   10  A    between atoms: P_10  and  O_26
REMARK   11  A    between atoms: C_12  and  O_13
REMARK   12  A    between atoms: O_13  and  C_14
REMARK   13  A    between atoms: C_14  and  C_15
REMARK   14  A    between atoms: C_15  and  N_16
REMARK   15  A    between atoms: C_20  and  N_25
REMARK   16  A    between atoms: O_26  and  C_27
REMARK   17  A    between atoms: C_27  and  O_28
REMARK   18  A    between atoms: O_28  and  C_29
REMARK   19  A    between atoms: C_29  and  C_31
REMARK   20  A    between atoms: C_31  and  C_32
REMARK   21  A    between atoms: C_31  and  C_33
REMARK   22  A    between atoms: C_31  and  C_34
REMARK                            x       y       z     vdW  Elec       q    Type
REMARK                         _______ _______ _______ _____ _____    ______ ____
ROOT
ATOM      1  P   UNL     1       6.954  -1.582  -4.458  0.00  0.00    +0.363 P 
ATOM      2  O   UNL     1       8.059  -2.387  -3.759  0.00  0.00    -0.256 OA
ENDROOT
BRANCH   1   3
ATOM      3  O   UNL     1       6.377  -1.049  -2.917  0.00  0.00    -0.268 OA
BRANCH   3   4
ATOM      4  C   UNL     1       6.296   0.344  -2.753  0.00  0.00    +0.407 C 
BRANCH   4   5
ATOM      5  O   UNL     1       5.912   0.586  -1.404  0.00  0.00    -0.437 OA
BRANCH   5   6
ATOM      6  C   UNL     1       6.963   0.508  -0.550  0.00  0.00    +0.314 C 
ATOM      7  O   UNL     1       8.130   0.691  -0.880  0.00  0.00    -0.250 OA
BRANCH   6   9
ATOM      8  C   UNL     1       7.077   1.225   1.802  0.00  0.00    +0.022 C 
ATOM      9  C   UNL     1       6.547   0.127   0.873  0.00  0.00    +0.059 C 
ATOM     10  C   UNL     1       5.033  -0.016   1.065  0.00  0.00    +0.022 C 
ATOM     11  C   UNL     1       7.213  -1.221   1.196  0.00  0.00    +0.022 C 
ENDBRANCH   6   9
ENDBRANCH   5   6
ENDBRANCH   4   5
ENDBRANCH   3   4
ENDBRANCH   1   3
BRANCH   1  12
ATOM     12  O   UNL     1       7.530  -2.114  -6.000  0.00  0.00    -0.268 OA
BRANCH  12  13
ATOM     13  C   UNL     1       7.046  -1.392  -7.109  0.00  0.00    +0.407 C 
BRANCH  13  14
ATOM     14  O   UNL     1       7.646  -1.871  -8.304  0.00  0.00    -0.437 OA
BRANCH  14  15
ATOM     15  C   UNL     1       8.823  -1.275  -8.624  0.00  0.00    +0.314 C 
ATOM     16  O   UNL     1       9.336  -0.366  -7.981  0.00  0.00    -0.250 OA
BRANCH  15  17
ATOM     17  C   UNL     1       9.372  -1.798  -9.948  0.00  0.00    +0.059 C 
ATOM     18  C   UNL     1       9.539  -3.322  -9.905  0.00  0.00    +0.022 C 
ATOM     19  C   UNL     1      10.703  -1.116 -10.271  0.00  0.00    +0.022 C 
ATOM     20  C   UNL     1       8.371  -1.430 -11.037  0.00  0.00    +0.022 C 
ENDBRANCH  15  17
ENDBRANCH  14  15
ENDBRANCH  13  14
ENDBRANCH  12  13
ENDBRANCH   1  12
BRANCH   1  21
ATOM     21  C   UNL     1       5.434  -2.848  -4.596  0.00  0.00    +0.286 C 
BRANCH  21  22
ATOM     22  O   UNL     1       4.594  -2.426  -5.685  0.00  0.00    -0.366 OA
BRANCH  22  23
ATOM     23  C   UNL     1       3.704  -3.475  -6.103  0.00  0.00    +0.182 C 
BRANCH  23  24
ATOM     24  C   UNL     1       2.977  -3.111  -7.401  0.00  0.00    +0.153 C 
BRANCH  24  25
ATOM     25  N   UNL     1       3.809  -3.139  -8.592  0.00  0.00    -0.313 N 
ATOM     26  C   UNL     1       4.030  -2.092  -9.447  0.00  0.00    +0.165 A 
ATOM     27  C   UNL     1       4.723  -2.643 -10.514  0.00  0.00    +0.147 A 
ATOM     28  C   UNL     1       5.058  -1.773 -11.568  0.00  0.00    +0.147 A 
ATOM     29  N   UNL     1       4.739  -0.464 -11.450  0.00  0.00    -0.219 NA
ATOM     30  C   UNL     1       4.057  -0.069 -10.354  0.00  0.00    +0.225 A 
ATOM     31  N   UNL     1       4.974  -3.982 -10.296  0.00  0.00    -0.231 NA
ATOM     32  N   UNL     1       3.655  -0.810  -9.301  0.00  0.00    -0.216 NA
ATOM     33  C   UNL     1       4.396  -4.249  -9.143  0.00  0.00    +0.201 A 
BRANCH  28  34
ATOM     34  N   UNL     1       5.788  -2.170 -12.689  0.00  0.00    -0.341 N 
ATOM     35  H   UNL     1       6.318  -1.388 -13.057  0.00  0.00    +0.144 HD
ATOM     36  H   UNL     1       6.321  -3.017 -12.508  0.00  0.00    +0.144 HD
ENDBRANCH  28  34
ENDBRANCH  24  25
ENDBRANCH  23  24
ENDBRANCH  22  23
ENDBRANCH  21  22
ENDBRANCH   1  21
TORSDOF 16
REMARK  Name = 
REMARK  22 active torsions:
REMARK  status: ('A' for Active; 'I' for Inactive)
REMARK    1  A    between atoms: C_1  and  C_2
REMARK    2  A    between atoms: C_2  and  C_3
REMARK    3  A    between atoms: C_2  and  C_4
REMARK    4  A    between atoms: C_2  and  C_5
REMARK    5  A    between atoms: C_5  and  O_7
REMARK    6  A    between atoms: O_7  and  C_8
REMARK    7  A    between atoms: C_8  and  O_9
REMARK    8  A    between atoms: O_9  and  P_10
REMARK    9  A    between atoms: P_10  and  C_12
REMARK   10  A    between atoms: P_10  and  O_26
REMARK   11  A    between atoms: C_12  and  O_13
REMARK   12  A    between atoms: O_13  and  C_14
REMARK   13  A    between atoms: C_14  and  C_15
REMARK   14  A    between atoms: C_15  and  N_16
REMARK   15  A    between atoms: C_20  and  N_25
REMARK   16  A    between atoms: O_26  and  C_27
REMARK   17  A    between atoms: C_27  and  O_28
REMARK   18  A    between atoms: O_28  and  C_29
REMARK   19  A    between atoms: C_29  and  C_31
REMARK   20  A    between atoms: C_31  and  C_32
REMARK   21  A    between atoms: C_31  and  C_33
REMARK   22  A    between atoms: C_31  and  C_34
REMARK                            x       y       z     vdW  Elec       q    Type
REMARK                         _______ _______ _______ _____ _____    ______ ____
ROOT
ATOM      1  O   HOH     1       0.539  -2.382   1.572  0.00  0.00    -0.410 OA
ATOM      2  H   HOH     0       0.005  -1.571   1.554  0.00  0.00    +0.205 HD
ATOM      3  H   HOH     0       0.979  -2.388   0.709  0.00  0.00    +0.205 HD
ENDROOT
TORSDOF 0
REMARK  Name = 
REMARK  22 active torsions:
REMARK  status: ('A' for Active; 'I' for Inactive)
REMARK    1  A    between atoms: C_1  and  C_2
REMARK    2  A    between atoms: C_2  and  C_3
REMARK    3  A    between atoms: C_2  and  C_4
REMARK    4  A    between atoms: C_2  and  C_5
REMARK    5  A    between atoms: C_5  and  O_7
REMARK    6  A    between atoms: O_7  and  C_8
REMARK    7  A    between atoms: C_8  and  O_9
REMARK    8  A    between atoms: O_9  and  P_10
REMARK    9  A    between atoms: P_10  and  C_12
REMARK   10  A    between atoms: P_10  and  O_26
REMARK   11  A    between atoms: C_12  and  O_13
REMARK   12  A    between atoms: O_13  and  C_14
REMARK   13  A    between atoms: C_14  and  C_15
REMARK   14  A    between atoms: C_15  and  N_16
REMARK   15  A    between atoms: C_20  and  N_25
REMARK   16  A    between atoms: O_26  and  C_27
REMARK   17  A    between atoms: C_27  and  O_28
REMARK   18  A    between atoms: O_28  and  C_29
REMARK   19  A    between atoms: C_29  and  C_31
REMARK   20  A    between atoms: C_31  and  C_32
REMARK   21  A    between atoms: C_31  and  C_33
REMARK   22  A    between atoms: C_31  and  C_34
REMARK                            x       y       z     vdW  Elec       q    Type
REMARK                         _______ _______ _______ _____ _____    ______ ____
ROOT
ATOM      1  O   HOH     1      -0.289   2.109   0.750  0.00  0.00    -0.410 OA
ATOM      2  H   HOH     0      -0.662   2.974   0.515  0.00  0.00    +0.205 HD
ATOM      3  H   HOH     0       0.666   2.238   0.646  0.00  0.00    +0.205 HD
ENDROOT
TORSDOF 0
