REMARK  Name = 
REMARK  19 active torsions:
REMARK  status: ('A' for Active; 'I' for Inactive)
REMARK    1  A    between atoms: C_1  and  C_2
REMARK    2  A    between atoms: C_2  and  C_3
REMARK    3  A    between atoms: C_2  and  C_4
REMARK    4  A    between atoms: C_4  and  C_6
REMARK    5  A    between atoms: C_4  and  N_66
REMARK    6  A    between atoms: C_12  and  C_14
REMARK    7  A    between atoms: C_17  and  C_19
REMARK    8  A    between atoms: C_30  and  C_33
REMARK    9  A    between atoms: C_41  and  C_43
REMARK   10  A    between atoms: C_46  and  C_48
REMARK   11  A    between atoms: C_54  and  C_56
REMARK   12  A    between atoms: C_56  and  C_58
REMARK   13  A    between atoms: C_56  and  N_61
REMARK   14  A    between atoms: C_58  and  C_59
REMARK   15  A    between atoms: C_58  and  C_60
REMARK   16  A    between atoms: C_62  and  O_64
REMARK   17  A    between atoms: O_64  and  C_65
REMARK   18  A    between atoms: C_67  and  O_69
REMARK   19  A    between atoms: O_69  and  C_70
REMARK                            x       y       z     vdW  Elec       q    Type
REMARK                         _______ _______ _______ _____ _____    ______ ____
ROOT
ATOM      1  C   UNL     1     -13.976   9.183 -22.285  0.00  0.00    +0.005 A 
ATOM      2  C   UNL     1     -12.832   9.517 -23.027  0.00  0.00    +0.011 A 
ATOM      3  C   UNL     1     -11.598   9.653 -22.401  0.00  0.00    +0.014 A 
ATOM      4  C   UNL     1     -11.500   9.429 -21.031  0.00  0.00    +0.040 A 
ATOM      5  C   UNL     1     -10.230   9.440 -20.344  0.00  0.00    +0.057 A 
ATOM      6  N   UNL     1     -10.159   8.880 -19.091  0.00  0.00    -0.300 N 
ATOM      7  C   UNL     1     -11.332   8.229 -18.488  0.00  0.00    +0.308 C 
ATOM      8  O   UNL     1     -12.579   8.835 -18.938  0.00  0.00    -0.464 OA
ATOM      9  C   UNL     1      -8.866   8.918 -18.618  0.00  0.00    +0.053 A 
ATOM     10  C   UNL     1      -8.285   8.485 -17.419  0.00  0.00    +0.027 A 
ATOM     11  C   UNL     1      -6.892   8.615 -17.280  0.00  0.00    +0.012 A 
ATOM     12  C   UNL     1      -6.092   9.154 -18.298  0.00  0.00    +0.000 A 
ATOM     13  C   UNL     1      -6.702   9.587 -19.482  0.00  0.00    +0.020 A 
ATOM     14  C   UNL     1      -8.094   9.478 -19.640  0.00  0.00    +0.001 A 
ATOM     15  C   UNL     1      -8.960   9.812 -20.711  0.00  0.00    +0.036 A 
ATOM     16  C   UNL     1     -12.643   9.105 -20.287  0.00  0.00    +0.133 A 
ATOM     17  C   UNL     1     -13.892   9.027 -20.899  0.00  0.00    +0.056 A 
ENDROOT
BRANCH   7  18
ATOM     18  C   UNL     1     -11.382   6.718 -18.715  0.00  0.00    +0.014 A 
ATOM     19  C   UNL     1     -10.883   6.111 -19.882  0.00  0.00    +0.009 A 
ATOM     20  C   UNL     1     -10.981   4.732 -20.077  0.00  0.00    +0.000 A 
ATOM     21  C   UNL     1     -11.585   3.934 -19.114  0.00  0.00    +0.000 A 
ATOM     22  C   UNL     1     -12.105   4.515 -17.959  0.00  0.00    +0.000 A 
ATOM     23  C   UNL     1     -12.012   5.897 -17.763  0.00  0.00    +0.009 A 
ENDBRANCH   7  18
BRANCH  12  24
ATOM     24  C   UNL     1      -4.642   9.248 -18.149  0.00  0.00    +0.066 A 
ATOM     25  N   UNL     1      -3.872  10.224 -18.740  0.00  0.00    -0.340 N 
ATOM     26  H   UNL     1      -4.222  10.962 -19.334  0.00  0.00    +0.167 HD
ATOM     27  C   UNL     1      -2.556  10.028 -18.394  0.00  0.00    +0.128 A 
ATOM     28  N   UNL     1      -2.443   8.942 -17.655  0.00  0.00    -0.238 NA
ATOM     29  C   UNL     1      -3.719   8.465 -17.485  0.00  0.00    +0.139 A 
BRANCH  27  30
ATOM     30  C   UNL     1      -1.463  10.929 -18.910  0.00  0.00    +0.142 C 
ATOM     31  N   UNL     1      -0.279  10.908 -18.043  0.00  0.00    -0.290 N 
ATOM     32  C   UNL     1       0.082  11.635 -16.923  0.00  0.00    +0.237 C 
ATOM     33  O   UNL     1       1.124  11.332 -16.318  0.00  0.00    -0.274 OA
ATOM     34  C   UNL     1       0.723   9.999 -18.585  0.00  0.00    +0.108 C 
ATOM     35  C   UNL     1       0.105   9.355 -19.814  0.00  0.00    +0.021 C 
ATOM     36  C   UNL     1      -0.941  10.374 -20.246  0.00  0.00    +0.032 C 
BRANCH  32  37
ATOM     37  C   UNL     1      -0.762  12.798 -16.326  0.00  0.00    +0.165 C 
BRANCH  37  38
ATOM     38  N   UNL     1      -1.447  13.621 -17.309  0.00  0.00    -0.270 N 
ATOM     39  H   UNL     1      -2.386  13.418 -17.610  0.00  0.00    +0.153 HD
ATOM     40  C   UNL     1      -0.742  14.546 -18.024  0.00  0.00    +0.401 C 
ATOM     41  O   UNL     1       0.413  14.875 -17.807  0.00  0.00    -0.226 OA
BRANCH  40  42
ATOM     42  O   UNL     1      -1.495  14.996 -19.057  0.00  0.00    -0.454 OA
ATOM     43  C   UNL     1      -0.756  15.838 -19.947  0.00  0.00    +0.282 C 
ENDBRANCH  40  42
ENDBRANCH  37  38
BRANCH  37  44
ATOM     44  C   UNL     1      -1.628  12.389 -15.110  0.00  0.00    +0.012 C 
ATOM     45  C   UNL     1      -2.827  11.517 -15.457  0.00  0.00    +0.009 C 
ATOM     46  C   UNL     1      -2.062  13.618 -14.293  0.00  0.00    +0.009 C 
ENDBRANCH  37  44
ENDBRANCH  32  37
ENDBRANCH  27  30
ENDBRANCH  12  24
BRANCH   1  49
ATOM     47  C   UNL     1     -16.767   8.914 -24.574  0.00  0.00    +0.241 C 
ATOM     48  N   UNL     1     -15.309   9.032 -24.322  0.00  0.00    -0.254 NA
ATOM     49  C   UNL     1     -15.228   8.987 -23.029  0.00  0.00    +0.086 C 
ATOM     50  C   UNL     1     -16.556   8.732 -22.431  0.00  0.00    +0.135 C 
ATOM     51  N   UNL     1     -17.495   8.655 -23.309  0.00  0.00    -0.261 NA
BRANCH  47  54
ATOM     52  C   UNL     1     -17.067  11.969 -23.534  0.00  0.00    +0.237 C 
ATOM     53  N   UNL     1     -17.803  11.327 -24.506  0.00  0.00    -0.293 N 
ATOM     54  C   UNL     1     -17.283  10.190 -25.305  0.00  0.00    +0.122 C 
ATOM     55  C   UNL     1     -18.429   9.840 -26.278  0.00  0.00    +0.028 C 
ATOM     56  C   UNL     1     -19.650  10.559 -25.730  0.00  0.00    +0.021 C 
ATOM     57  C   UNL     1     -19.071  11.784 -25.049  0.00  0.00    +0.108 C 
ATOM     58  O   UNL     1     -16.022  11.506 -23.066  0.00  0.00    -0.274 OA
BRANCH  52  59
ATOM     59  C   UNL     1     -17.511  13.350 -23.009  0.00  0.00    +0.165 C 
BRANCH  59  60
ATOM     60  N   UNL     1     -17.607  13.200 -21.555  0.00  0.00    -0.270 N 
ATOM     61  H   UNL     1     -16.773  12.887 -21.074  0.00  0.00    +0.153 HD
ATOM     62  C   UNL     1     -18.765  12.915 -20.905  0.00  0.00    +0.401 C 
ATOM     63  O   UNL     1     -19.887  12.972 -21.390  0.00  0.00    -0.226 OA
BRANCH  62  64
ATOM     64  O   UNL     1     -18.465  12.554 -19.634  0.00  0.00    -0.454 OA
ATOM     65  C   UNL     1     -19.592  12.219 -18.827  0.00  0.00    +0.282 C 
ENDBRANCH  62  64
ENDBRANCH  59  60
BRANCH  59  67
ATOM     66  C   UNL     1     -16.140  14.443 -24.869  0.00  0.00    +0.009 C 
ATOM     67  C   UNL     1     -16.381  14.357 -23.358  0.00  0.00    +0.012 C 
ATOM     68  C   UNL     1     -16.660  15.751 -22.794  0.00  0.00    +0.009 C 
ENDBRANCH  59  67
ENDBRANCH  52  59
ENDBRANCH  47  54
ENDBRANCH   1  49
TORSDOF 13
