REMARK  Name = 
REMARK  17 active torsions:
REMARK  status: ('A' for Active; 'I' for Inactive)
REMARK    1  A    between atoms: C_1  and  C_2
REMARK    2  A    between atoms: C_5  and  C_7
REMARK    3  A    between atoms: N_9  and  C_10
REMARK    4  A    between atoms: C_10  and  C_11
REMARK    5  A    between atoms: C_10  and  C_12
REMARK    6  A    between atoms: C_10  and  C_13
REMARK    7  A    between atoms: C_15  and  C_38
REMARK    8  A    between atoms: C_16  and  O_21
REMARK    9  A    between atoms: N_19  and  C_20
REMARK   10  A    between atoms: O_21  and  C_22
REMARK   11  A    between atoms: C_23  and  O_37
REMARK   12  A    between atoms: C_25  and  O_36
REMARK   13  A    between atoms: C_27  and  O_35
REMARK   14  A    between atoms: C_29  and  C_32
REMARK   15  A    between atoms: C_32  and  O_34
REMARK   16  A    between atoms: N_40  and  C_41
REMARK   17  A    between atoms: C_41  and  C_42
REMARK                            x       y       z     vdW  Elec       q    Type
REMARK                         _______ _______ _______ _____ _____    ______ ____
ROOT
ATOM      1  C   UNL     1       5.858  -5.737   0.401  0.00  0.00    +0.136 A 
ATOM      2  N   UNL     1       4.482  -5.780   0.497  0.00  0.00    -0.295 N 
ATOM      3  C   UNL     1       3.596  -4.648   0.699  0.00  0.00    +0.154 C 
ATOM      4  C   UNL     1       3.839  -6.924   0.077  0.00  0.00    +0.297 A 
ATOM      5  O   UNL     1       2.747  -6.905  -0.487  0.00  0.00    -0.264 OA
ATOM      6  C   UNL     1       4.561  -8.197   0.276  0.00  0.00    +0.218 A 
ATOM      7  C   UNL     1       5.904  -8.055   0.266  0.00  0.00    +0.174 A 
ATOM      8  N   UNL     1       6.556  -6.820   0.228  0.00  0.00    -0.223 NA
ENDROOT
BRANCH   7   9
ATOM      9  C   UNL     1       6.729  -9.341   0.201  0.00  0.00    +0.267 C 
ATOM     10  N   UNL     1       8.062  -9.168  -0.096  0.00  0.00    -0.306 N 
ATOM     11  H   UNL     1       8.416  -8.220  -0.160  0.00  0.00    +0.149 HD
ATOM     12  O   UNL     1       6.240 -10.460   0.321  0.00  0.00    -0.268 OA
BRANCH  10  13
ATOM     13  C   UNL     1       8.964 -10.294  -0.277  0.00  0.00    +0.140 C 
BRANCH  13  14
ATOM     14  C   UNL     1       9.809 -10.562   0.947  0.00  0.00    -0.030 A 
ATOM     15  C   UNL     1      11.211 -10.483   0.893  0.00  0.00    +0.008 A 
ATOM     16  C   UNL     1      11.977 -10.719   2.039  0.00  0.00    +0.038 A 
ATOM     17  C   UNL     1      11.344 -11.043   3.233  0.00  0.00    +0.123 A 
ATOM     18  F   UNL     1      12.079 -11.245   4.335  0.00  0.00    -0.205 F 
ATOM     19  C   UNL     1       9.963 -11.157   3.300  0.00  0.00    +0.038 A 
ATOM     20  C   UNL     1       9.197 -10.926   2.158  0.00  0.00    +0.008 A 
ENDBRANCH  13  14
ENDBRANCH  10  13
ENDBRANCH   7   9
BRANCH   1  21
ATOM     21  C   UNL     1       6.597  -4.325   0.235  0.00  0.00    +0.087 C 
ATOM     22  C   UNL     1       8.108  -4.475   0.493  0.00  0.00    +0.039 C 
ATOM     23  C   UNL     1       6.419  -3.952  -1.258  0.00  0.00    +0.039 C 
BRANCH  21  25
ATOM     24  C   UNL     1       6.115  -3.025   2.391  0.00  0.00    +0.301 C 
ATOM     25  N   UNL     1       6.079  -3.178   1.011  0.00  0.00    -0.295 N 
ATOM     26  H   UNL     1       5.856  -2.327   0.499  0.00  0.00    +0.150 HD
ATOM     27  O   UNL     1       6.514  -3.919   3.129  0.00  0.00    -0.265 OA
BRANCH  24  31
ATOM     28  C   UNL     1       4.621   0.483   5.408  0.00  0.00    +0.111 C 
ATOM     29  C   UNL     1       4.895  -0.197   4.128  0.00  0.00    +0.215 A 
ATOM     30  O   UNL     1       5.487  -1.433   4.177  0.00  0.00    -0.417 OA
ATOM     31  C   UNL     1       5.584  -1.746   2.844  0.00  0.00    +0.304 A 
ATOM     32  N   UNL     1       5.098  -0.798   2.062  0.00  0.00    -0.102 NA
ATOM     33  N   UNL     1       4.653   0.207   2.898  0.00  0.00    -0.112 NA
ENDBRANCH  24  31
ENDBRANCH  21  25
ENDBRANCH   1  21
BRANCH   6  34
ATOM     34  O   UNL     1       3.896  -9.408   0.343  0.00  0.00    -0.453 OA
BRANCH  34  35
ATOM     35  C   UNL     1       2.516  -9.474   0.736  0.00  0.00    +0.340 C 
ATOM     36  O   UNL     1       2.233  -9.019   2.067  0.00  0.00    -0.322 OA
ATOM     37  C   UNL     1       2.885  -9.766   3.103  0.00  0.00    +0.261 C 
ATOM     38  C   UNL     1       2.968 -11.299   2.949  0.00  0.00    +0.185 C 
ATOM     39  C   UNL     1       2.855 -11.856   1.517  0.00  0.00    +0.180 C 
ATOM     40  C   UNL     1       2.037 -10.935   0.608  0.00  0.00    +0.214 C 
BRANCH  37  41
ATOM     41  C   UNL     1       4.169  -9.009   3.421  0.00  0.00    +0.337 C 
ATOM     42  O   UNL     1       5.263  -9.495   3.657  0.00  0.00    -0.248 OA
BRANCH  41  43
ATOM     43  O   UNL     1       3.931  -7.669   3.442  0.00  0.00    -0.479 OA
ATOM     44  H   UNL     1       2.990  -7.497   3.206  0.00  0.00    +0.295 HD
ENDBRANCH  41  43
ENDBRANCH  37  41
BRANCH  38  45
ATOM     45  O   UNL     1       1.826 -11.836   3.670  0.00  0.00    -0.386 OA
ATOM     46  H   UNL     1       1.972 -12.800   3.740  0.00  0.00    +0.210 HD
ENDBRANCH  38  45
BRANCH  39  47
ATOM     47  O   UNL     1       4.136 -12.209   1.021  0.00  0.00    -0.386 OA
ATOM     48  H   UNL     1       4.319 -11.781   0.163  0.00  0.00    +0.210 HD
ENDBRANCH  39  47
BRANCH  40  49
ATOM     49  O   UNL     1       0.641 -11.042   0.945  0.00  0.00    -0.383 OA
ATOM     50  H   UNL     1       0.564 -11.050   1.922  0.00  0.00    +0.210 HD
ENDBRANCH  40  49
ENDBRANCH  34  35
ENDBRANCH   6  34
TORSDOF 13
