REMARK  Name = 
REMARK  16 active torsions:
REMARK  status: ('A' for Active; 'I' for Inactive)
REMARK    1  A    between atoms: C_1  and  C_2
REMARK    2  A    between atoms: C_2  and  C_3
REMARK    3  A    between atoms: C_2  and  O_4
REMARK    4  A    between atoms: O_4  and  C_5
REMARK    5  A    between atoms: C_5  and  C_7
REMARK    6  A    between atoms: C_7  and  C_8
REMARK    7  A    between atoms: C_7  and  N_9
REMARK    8  A    between atoms: N_9  and  P_10
REMARK    9  A    between atoms: P_10  and  O_12
REMARK   10  A    between atoms: P_10  and  O_30
REMARK   11  A    between atoms: O_12  and  C_13
REMARK   12  A    between atoms: C_13  and  C_14
REMARK   13  A    between atoms: C_15  and  O_29
REMARK   14  A    between atoms: C_16  and  C_27
REMARK   15  A    between atoms: C_17  and  N_19
REMARK   16  A    between atoms: O_30  and  C_31
REMARK                            x       y       z     vdW  Elec       q    Type
REMARK                         _______ _______ _______ _____ _____    ______ ____
ROOT
ATOM      1  O   UNL     1       4.993   5.421  -0.533  0.00  0.00    -0.284 OA
ENDROOT
BRANCH   1   2
ATOM      2  P   UNL     1       6.383   4.637  -0.727  0.00  0.00    +0.462 P 
ATOM      3  O   UNL     1       6.556   4.216  -2.156  0.00  0.00    -0.228 OA
BRANCH   2   4
ATOM      4  N   UNL     1       6.369   3.419   0.366  0.00  0.00    -0.199 NA
ATOM      5  H   UNL     1       7.193   2.844   0.230  0.00  0.00    +0.135 HD
BRANCH   4   6
ATOM      6  C   UNL     1       5.209   2.523   0.504  0.00  0.00    +0.171 C 
ATOM      7  C   UNL     1       4.771   1.959  -0.845  0.00  0.00    +0.036 C 
BRANCH   6   8
ATOM      8  C   UNL     1       4.006   3.145   1.235  0.00  0.00    +0.325 C 
ATOM      9  O   UNL     1       2.852   2.764   1.063  0.00  0.00    -0.249 OA
BRANCH   8  10
ATOM     10  O   UNL     1       4.373   4.058   2.179  0.00  0.00    -0.461 OA
BRANCH  10  12
ATOM     11  C   UNL     1       3.070   3.699   4.195  0.00  0.00    +0.052 C 
ATOM     12  C   UNL     1       3.297   4.594   2.978  0.00  0.00    +0.170 C 
ATOM     13  C   UNL     1       3.694   5.999   3.410  0.00  0.00    +0.052 C 
ENDBRANCH  10  12
ENDBRANCH   8  10
ENDBRANCH   6   8
ENDBRANCH   4   6
ENDBRANCH   2   4
BRANCH   2  14
ATOM     14  O   UNL     1       7.509   5.693  -0.230  0.00  0.00    -0.413 OA
BRANCH  14  15
ATOM     15  C   UNL     1       8.846   5.381  -0.167  0.00  0.00    +0.131 A 
ATOM     16  C   UNL     1       9.607   6.015   0.819  0.00  0.00    +0.046 A 
ATOM     17  C   UNL     1      10.960   5.691   0.980  0.00  0.00    +0.004 A 
ATOM     18  C   UNL     1      11.557   4.748   0.146  0.00  0.00    +0.000 A 
ATOM     19  C   UNL     1      10.812   4.151  -0.872  0.00  0.00    +0.004 A 
ATOM     20  C   UNL     1       9.461   4.474  -1.030  0.00  0.00    +0.046 A 
ENDBRANCH  14  15
ENDBRANCH   2  14
ENDBRANCH   1   2
BRANCH   1  21
ATOM     21  C   UNL     1       4.810   6.705  -1.088  0.00  0.00    +0.206 C 
BRANCH  21  22
ATOM     22  C   UNL     1       4.887   6.822  -2.613  0.00  0.00    +0.179 C 
ATOM     23  O   UNL     1       4.740   8.225  -2.924  0.00  0.00    -0.345 OA
ATOM     24  C   UNL     1       4.168   8.340  -4.248  0.00  0.00    +0.263 C 
ATOM     25  C   UNL     1       3.859   6.915  -4.752  0.00  0.00    +0.182 C 
ATOM     26  F   UNL     1       4.904   6.446  -5.499  0.00  0.00    -0.235 F 
ATOM     27  C   UNL     1       2.596   6.826  -5.599  0.00  0.00    +0.055 C 
ATOM     28  C   UNL     1       3.813   6.116  -3.444  0.00  0.00    +0.187 C 
BRANCH  24  29
ATOM     29  N   UNL     1       5.059   9.152  -5.076  0.00  0.00    -0.271 N 
ATOM     30  C   UNL     1       4.480  10.034  -5.977  0.00  0.00    +0.331 A 
ATOM     31  O   UNL     1       3.268  10.126  -6.162  0.00  0.00    -0.246 OA
ATOM     32  N   UNL     1       5.349  10.851  -6.654  0.00  0.00    -0.275 N 
ATOM     33  H   UNL     1       4.942  11.541  -7.265  0.00  0.00    +0.173 HD
ATOM     34  C   UNL     1       6.702  10.903  -6.480  0.00  0.00    +0.254 A 
ATOM     35  O   UNL     1       7.418  11.732  -7.027  0.00  0.00    -0.268 OA
ATOM     36  C   UNL     1       7.266   9.893  -5.574  0.00  0.00    +0.088 A 
ATOM     37  C   UNL     1       6.433   9.075  -4.927  0.00  0.00    +0.098 A 
ENDBRANCH  24  29
BRANCH  28  38
ATOM     38  O   UNL     1       2.524   6.169  -2.829  0.00  0.00    -0.386 OA
ATOM     39  H   UNL     1       2.348   7.075  -2.521  0.00  0.00    +0.210 HD
ENDBRANCH  28  38
ENDBRANCH  21  22
ENDBRANCH   1  21
TORSDOF 12
