REMARK  Name = 
REMARK  31 active torsions:
REMARK  status: ('A' for Active; 'I' for Inactive)
REMARK    1  A    between atoms: C_1  and  C_2
REMARK    2  A    between atoms: C_2  and  C_3
REMARK    3  A    between atoms: C_2  and  C_4
REMARK    4  A    between atoms: C_4  and  C_6
REMARK    5  A    between atoms: C_4  and  N_66
REMARK    6  A    between atoms: C_12  and  C_14
REMARK    7  A    between atoms: C_17  and  C_19
REMARK    8  A    between atoms: C_30  and  C_33
REMARK    9  A    between atoms: C_41  and  C_43
REMARK   10  A    between atoms: C_46  and  C_48
REMARK   11  A    between atoms: C_54  and  C_56
REMARK   12  A    between atoms: C_56  and  C_58
REMARK   13  A    between atoms: C_56  and  N_61
REMARK   14  A    between atoms: C_58  and  C_59
REMARK   15  A    between atoms: C_58  and  C_60
REMARK   16  A    between atoms: C_62  and  O_64
REMARK   17  A    between atoms: O_64  and  C_65
REMARK   18  A    between atoms: C_67  and  O_69
REMARK   19  A    between atoms: O_69  and  C_70
REMARK   20  A    between atoms: C_71  and  C_72
REMARK   21  A    between atoms: C_72  and  C_73
REMARK   22  A    between atoms: C_72  and  C_74
REMARK   23  A    between atoms: C_72  and  C_75
REMARK   24  A    between atoms: C_84  and  C_86
REMARK   25  A    between atoms: N_88  and  C_89
REMARK   26  A    between atoms: C_89  and  C_95
REMARK   27  A    between atoms: C_91  and  C_93
REMARK   28  A    between atoms: N_97  and  S_98
REMARK   29  A    between atoms: S_98  and  C_101
REMARK   30  A    between atoms: C_111  and  O_113
REMARK   31  A    between atoms: O_113  and  C_114
REMARK                            x       y       z     vdW  Elec       q    Type
REMARK                         _______ _______ _______ _____ _____    ______ ____
ROOT
ATOM      1  C   UNL     1      -0.000  -0.000   0.000  0.00  0.00    +0.005 A 
ATOM      2  C   UNL     1      -0.000  -0.000   0.000  0.00  0.00    +0.011 A 
ATOM      3  C   UNL     1      -0.000  -0.000   0.000  0.00  0.00    +0.014 A 
ATOM      4  C   UNL     1      -0.000  -0.000   0.000  0.00  0.00    +0.040 A 
ATOM      5  C   UNL     1      -0.000  -0.000   0.000  0.00  0.00    +0.057 A 
ATOM      6  N   UNL     1      -0.000  -0.000   0.000  0.00  0.00    -0.300 N 
ATOM      7  C   UNL     1      -0.000  -0.000   0.000  0.00  0.00    +0.308 C 
ATOM      8  O   UNL     1      -0.000  -0.000   0.000  0.00  0.00    -0.464 OA
ATOM      9  C   UNL     1      -0.000  -0.000   0.000  0.00  0.00    +0.053 A 
ATOM     10  C   UNL     1      -0.000  -0.000   0.000  0.00  0.00    +0.027 A 
ATOM     11  C   UNL     1      -0.000  -0.000   0.000  0.00  0.00    +0.012 A 
ATOM     12  C   UNL     1      -0.000  -0.000   0.000  0.00  0.00    +0.000 A 
ATOM     13  C   UNL     1      -0.000  -0.000   0.000  0.00  0.00    +0.020 A 
ATOM     14  C   UNL     1      -0.000  -0.000   0.000  0.00  0.00    +0.001 A 
ATOM     15  C   UNL     1      -0.000  -0.000   0.000  0.00  0.00    +0.036 A 
ATOM     16  C   UNL     1      -0.000  -0.000   0.000  0.00  0.00    +0.133 A 
ATOM     17  C   UNL     1      -0.000  -0.000   0.000  0.00  0.00    +0.056 A 
ENDROOT
BRANCH   7  18
ATOM     18  C   UNL     1      -0.000  -0.000   0.000  0.00  0.00    +0.014 A 
ATOM     19  C   UNL     1      -0.000  -0.000   0.000  0.00  0.00    +0.009 A 
ATOM     20  C   UNL     1      -0.000  -0.000   0.000  0.00  0.00    +0.000 A 
ATOM     21  C   UNL     1      -0.000  -0.000   0.000  0.00  0.00    +0.000 A 
ATOM     22  C   UNL     1      -0.000  -0.000   0.000  0.00  0.00    +0.000 A 
ATOM     23  C   UNL     1      -0.000  -0.000   0.000  0.00  0.00    +0.009 A 
ENDBRANCH   7  18
BRANCH  12  24
ATOM     24  C   UNL     1      -0.000  -0.000   0.000  0.00  0.00    +0.066 A 
ATOM     25  N   UNL     1      -0.000  -0.000   0.000  0.00  0.00    -0.340 N 
ATOM     26  H   UNL     1      -0.000  -0.000   0.000  0.00  0.00    +0.167 HD
ATOM     27  C   UNL     1      -0.000  -0.000   0.000  0.00  0.00    +0.128 A 
ATOM     28  N   UNL     1      -0.000  -0.000   0.000  0.00  0.00    -0.238 NA
ATOM     29  C   UNL     1      -0.000  -0.000   0.000  0.00  0.00    +0.139 A 
BRANCH  27  30
ATOM     30  C   UNL     1      -0.000  -0.000   0.000  0.00  0.00    +0.142 C 
ATOM     31  N   UNL     1      -0.000  -0.000   0.000  0.00  0.00    -0.290 N 
ATOM     32  C   UNL     1      -0.000  -0.000   0.000  0.00  0.00    +0.237 C 
ATOM     33  O   UNL     1      -0.000  -0.000   0.000  0.00  0.00    -0.274 OA
ATOM     34  C   UNL     1      -0.000  -0.000   0.000  0.00  0.00    +0.108 C 
ATOM     35  C   UNL     1      -0.000  -0.000   0.000  0.00  0.00    +0.021 C 
ATOM     36  C   UNL     1      -0.000  -0.000   0.000  0.00  0.00    +0.032 C 
BRANCH  32  37
ATOM     37  C   UNL     1      -0.000  -0.000   0.000  0.00  0.00    +0.165 C 
BRANCH  37  38
ATOM     38  N   UNL     1      -0.000  -0.000   0.000  0.00  0.00    -0.270 N 
ATOM     39  H   UNL     1      -0.000  -0.000   0.000  0.00  0.00    +0.153 HD
ATOM     40  C   UNL     1      -0.000  -0.000   0.000  0.00  0.00    +0.401 C 
ATOM     41  O   UNL     1      -0.000  -0.000   0.000  0.00  0.00    -0.226 OA
BRANCH  40  42
ATOM     42  O   UNL     1      -0.000  -0.000   0.000  0.00  0.00    -0.454 OA
ATOM     43  C   UNL     1      -0.000  -0.000   0.000  0.00  0.00    +0.282 C 
ENDBRANCH  40  42
ENDBRANCH  37  38
BRANCH  37  44
ATOM     44  C   UNL     1      -0.000  -0.000   0.000  0.00  0.00    +0.012 C 
ATOM     45  C   UNL     1      -0.000  -0.000   0.000  0.00  0.00    +0.009 C 
ATOM     46  C   UNL     1      -0.000  -0.000   0.000  0.00  0.00    +0.009 C 
ENDBRANCH  37  44
ENDBRANCH  32  37
ENDBRANCH  27  30
ENDBRANCH  12  24
BRANCH   1  49
ATOM     47  C   UNL     1      -0.000  -0.000   0.000  0.00  0.00    +0.241 C 
ATOM     48  N   UNL     1      -0.000  -0.000   0.000  0.00  0.00    -0.254 NA
ATOM     49  C   UNL     1      -0.000  -0.000   0.000  0.00  0.00    +0.086 C 
ATOM     50  C   UNL     1      -0.000  -0.000   0.000  0.00  0.00    +0.135 C 
ATOM     51  N   UNL     1      -0.000  -0.000   0.000  0.00  0.00    -0.261 NA
BRANCH  47  54
ATOM     52  C   UNL     1      -0.000  -0.000   0.000  0.00  0.00    +0.237 C 
ATOM     53  N   UNL     1      -0.000  -0.000   0.000  0.00  0.00    -0.293 N 
ATOM     54  C   UNL     1      -0.000  -0.000   0.000  0.00  0.00    +0.122 C 
ATOM     55  C   UNL     1      -0.000  -0.000   0.000  0.00  0.00    +0.028 C 
ATOM     56  C   UNL     1      -0.000  -0.000   0.000  0.00  0.00    +0.021 C 
ATOM     57  C   UNL     1      -0.000  -0.000   0.000  0.00  0.00    +0.108 C 
ATOM     58  O   UNL     1      -0.000  -0.000   0.000  0.00  0.00    -0.274 OA
BRANCH  52  59
ATOM     59  C   UNL     1       0.000  -0.000  -0.000  0.00  0.00    +0.165 C 
BRANCH  59  60
ATOM     60  N   UNL     1      -0.000  -0.000   0.000  0.00  0.00    -0.270 N 
ATOM     61  H   UNL     1      -0.000  -0.000   0.000  0.00  0.00    +0.153 HD
ATOM     62  C   UNL     1      -0.000  -0.000   0.000  0.00  0.00    +0.401 C 
ATOM     63  O   UNL     1      -0.000  -0.000   0.000  0.00  0.00    -0.226 OA
BRANCH  62  64
ATOM     64  O   UNL     1      -0.000  -0.000   0.000  0.00  0.00    -0.454 OA
ATOM     65  C   UNL     1      -0.000  -0.000   0.000  0.00  0.00    +0.282 C 
ENDBRANCH  62  64
ENDBRANCH  59  60
BRANCH  59  67
ATOM     66  C   UNL     1       0.000   0.000  -0.000  0.00  0.00    +0.009 C 
ATOM     67  C   UNL     1      -0.000  -0.000   0.000  0.00  0.00    +0.012 C 
ATOM     68  C   UNL     1      -0.000  -0.000  -0.000  0.00  0.00    +0.009 C 
ENDBRANCH  59  67
ENDBRANCH  52  59
ENDBRANCH  47  54
ENDBRANCH   1  49
TORSDOF 13
REMARK  Name = 
REMARK  31 active torsions:
REMARK  status: ('A' for Active; 'I' for Inactive)
REMARK    1  A    between atoms: C_1  and  C_2
REMARK    2  A    between atoms: C_2  and  C_3
REMARK    3  A    between atoms: C_2  and  C_4
REMARK    4  A    between atoms: C_4  and  C_6
REMARK    5  A    between atoms: C_4  and  N_66
REMARK    6  A    between atoms: C_12  and  C_14
REMARK    7  A    between atoms: C_17  and  C_19
REMARK    8  A    between atoms: C_30  and  C_33
REMARK    9  A    between atoms: C_41  and  C_43
REMARK   10  A    between atoms: C_46  and  C_48
REMARK   11  A    between atoms: C_54  and  C_56
REMARK   12  A    between atoms: C_56  and  C_58
REMARK   13  A    between atoms: C_56  and  N_61
REMARK   14  A    between atoms: C_58  and  C_59
REMARK   15  A    between atoms: C_58  and  C_60
REMARK   16  A    between atoms: C_62  and  O_64
REMARK   17  A    between atoms: O_64  and  C_65
REMARK   18  A    between atoms: C_67  and  O_69
REMARK   19  A    between atoms: O_69  and  C_70
REMARK   20  A    between atoms: C_71  and  C_72
REMARK   21  A    between atoms: C_72  and  C_73
REMARK   22  A    between atoms: C_72  and  C_74
REMARK   23  A    between atoms: C_72  and  C_75
REMARK   24  A    between atoms: C_84  and  C_86
REMARK   25  A    between atoms: N_88  and  C_89
REMARK   26  A    between atoms: C_89  and  C_95
REMARK   27  A    between atoms: C_91  and  C_93
REMARK   28  A    between atoms: N_97  and  S_98
REMARK   29  A    between atoms: S_98  and  C_101
REMARK   30  A    between atoms: C_111  and  O_113
REMARK   31  A    between atoms: O_113  and  C_114
REMARK                            x       y       z     vdW  Elec       q    Type
REMARK                         _______ _______ _______ _____ _____    ______ ____
ROOT
ATOM      1  C   UNL     1      -0.000  -0.000  -0.000  0.00  0.00    +0.168 C 
ATOM      2  N   UNL     1      -0.000  -0.000  -0.000  0.00  0.00    -0.269 N 
ATOM      3  H   UNL     1      -0.000  -0.000  -0.000  0.00  0.00    +0.153 HD
ATOM      4  C   UNL     1      -0.000  -0.000  -0.000  0.00  0.00    +0.401 C 
ATOM      5  O   UNL     1      -0.000  -0.000  -0.000  0.00  0.00    -0.226 OA
ATOM      6  O   UNL     1      -0.000  -0.000  -0.000  0.00  0.00    -0.447 OA
ATOM      7  C   UNL     1      -0.000  -0.000  -0.000  0.00  0.00    +0.182 C 
ATOM      8  C   UNL     1      -0.000  -0.000  -0.000  0.00  0.00    +0.033 C 
ATOM      9  C   UNL     1      -0.000  -0.000  -0.000  0.00  0.00    +0.007 C 
ATOM     10  C   UNL     1      -0.000  -0.000  -0.000  0.00  0.00    +0.000 C 
ATOM     11  C   UNL     1      -0.000  -0.000  -0.000  0.00  0.00    +0.000 C 
ATOM     12  C   UNL     1      -0.000  -0.000  -0.000  0.00  0.00    +0.006 C 
ATOM     13  C   UNL     1      -0.000  -0.000  -0.000  0.00  0.00    +0.061 C 
ATOM     14  C   UNL     1      -0.000  -0.000  -0.000  0.00  0.00    +0.103 A 
ATOM     15  C   UNL     1      -0.000  -0.000  -0.000  0.00  0.00    +0.238 A 
ATOM     16  N   UNL     1      -0.000  -0.000  -0.000  0.00  0.00    -0.210 NA
ATOM     17  C   UNL     1      -0.000  -0.000  -0.000  0.00  0.00    +0.096 A 
ATOM     18  C   UNL     1      -0.000  -0.000  -0.000  0.00  0.00    +0.075 A 
ATOM     19  C   UNL     1      -0.000  -0.000  -0.000  0.00  0.00    +0.122 A 
ATOM     20  C   UNL     1      -0.000  -0.000  -0.000  0.00  0.00    +0.048 A 
ATOM     21  C   UNL     1      -0.000  -0.000  -0.000  0.00  0.00    +0.033 A 
ATOM     22  C   UNL     1      -0.000  -0.000  -0.000  0.00  0.00    +0.090 A 
ATOM     23  O   UNL     1      -0.000  -0.000  -0.000  0.00  0.00    -0.470 OA
ATOM     24  C   UNL     1      -0.000  -0.000  -0.000  0.00  0.00    +0.195 C 
ATOM     25  C   UNL     1      -0.000  -0.000  -0.000  0.00  0.00    +0.078 C 
ATOM     26  C   UNL     1      -0.000  -0.000  -0.000  0.00  0.00    +0.166 C 
ATOM     27  N   UNL     1      -0.000  -0.000  -0.000  0.00  0.00    -0.285 N 
ATOM     28  C   UNL     1      -0.000  -0.000  -0.000  0.00  0.00    +0.153 C 
ATOM     29  N   UNL     1      -0.000  -0.000  -0.000  0.00  0.00    -0.245 NA
ATOM     30  C   UNL     1      -0.000  -0.000  -0.000  0.00  0.00    +0.052 C 
ATOM     31  C   UNL     1      -0.000  -0.000  -0.000  0.00  0.00    +0.237 C 
ATOM     32  O   UNL     1      -0.000  -0.000  -0.000  0.00  0.00    -0.274 OA
ENDROOT
BRANCH   1  34
ATOM     33  C   UNL     1      -0.000  -0.000  -0.000  0.00  0.00    +0.013 C 
ATOM     34  C   UNL     1      -0.000  -0.000  -0.000  0.00  0.00    -0.011 C 
ATOM     35  C   UNL     1      -0.000  -0.000  -0.000  0.00  0.00    +0.013 C 
ATOM     36  C   UNL     1      -0.000  -0.000  -0.000  0.00  0.00    +0.013 C 
ENDBRANCH   1  34
BRANCH  26  37
ATOM     37  C   UNL     1      -0.000  -0.000  -0.000  0.00  0.00    +0.234 C 
ATOM     38  N   UNL     1      -0.000  -0.000  -0.000  0.00  0.00    -0.299 N 
ATOM     39  H   UNL     1      -0.000  -0.000  -0.000  0.00  0.00    +0.150 HD
ATOM     40  O   UNL     1      -0.000  -0.000  -0.000  0.00  0.00    -0.274 OA
BRANCH  38  41
ATOM     41  C   UNL     1      -0.000  -0.000  -0.000  0.00  0.00    +0.119 C 
ATOM     42  C   UNL     1      -0.000  -0.000  -0.000  0.00  0.00    +0.046 C 
ATOM     43  C   UNL     1      -0.000  -0.000  -0.000  0.00  0.00    +0.046 C 
BRANCH  41  44
ATOM     44  C   UNL     1      -0.000  -0.000  -0.000  0.00  0.00    +0.256 C 
ATOM     45  N   UNL     1      -0.000  -0.000  -0.000  0.00  0.00    -0.188 N 
ATOM     46  H   UNL     1      -0.000  -0.000  -0.000  0.00  0.00    +0.176 HD
ATOM     47  O   UNL     1      -0.000  -0.000  -0.000  0.00  0.00    -0.272 OA
BRANCH  45  48
ATOM     48  S   UNL     1      -0.000  -0.000  -0.000  0.00  0.00    +0.048 S 
ATOM     49  O   UNL     1      -0.000  -0.000  -0.000  0.00  0.00    -0.155 OA
ATOM     50  O   UNL     1      -0.000  -0.000  -0.000  0.00  0.00    -0.155 OA
BRANCH  48  51
ATOM     51  C   UNL     1      -0.000  -0.000  -0.000  0.00  0.00    +0.151 C 
ATOM     52  C   UNL     1      -0.000  -0.000  -0.000  0.00  0.00    +0.030 C 
ATOM     53  C   UNL     1      -0.000  -0.000  -0.000  0.00  0.00    +0.030 C 
ENDBRANCH  48  51
ENDBRANCH  45  48
ENDBRANCH  41  44
BRANCH  42  54
ATOM     54  C   UNL     1      -0.000  -0.000  -0.000  0.00  0.00    -0.028 C 
ATOM     55  C   UNL     1      -0.000  -0.000  -0.000  0.00  0.00    +0.004 C 
ENDBRANCH  42  54
ENDBRANCH  38  41
ENDBRANCH  26  37
BRANCH  19  56
ATOM     56  O   UNL     1      -0.000  -0.000  -0.000  0.00  0.00    -0.495 OA
ATOM     57  C   UNL     1      -0.000  -0.000  -0.000  0.00  0.00    +0.277 C 
ENDBRANCH  19  56
TORSDOF 8
