REMARK  Name = 
REMARK  16 active torsions:
REMARK  status: ('A' for Active; 'I' for Inactive)
REMARK    1  A    between atoms: C_3  and  C_4
REMARK    2  A    between atoms: C_4  and  N_5
REMARK    3  A    between atoms: N_5  and  C_6
REMARK    4  A    between atoms: N_5  and  C_8
REMARK    5  A    between atoms: C_6  and  C_7
REMARK    6  A    between atoms: C_8  and  C_9
REMARK    7  A    between atoms: C_9  and  O_10
REMARK    8  A    between atoms: O_10  and  C_11
REMARK    9  A    between atoms: C_22  and  O_25
REMARK   10  A    between atoms: O_25  and  C_26
REMARK   11  A    between atoms: C_26  and  C_27
REMARK   12  A    between atoms: C_27  and  N_28
REMARK   13  A    between atoms: N_28  and  C_29
REMARK   14  A    between atoms: N_28  and  C_31
REMARK   15  A    between atoms: C_29  and  C_30
REMARK   16  A    between atoms: C_31  and  C_32
REMARK                            x       y       z     vdW  Elec       q    Type
REMARK                         _______ _______ _______ _____ _____    ______ ____
ROOT
ATOM      1  H   UNK     1       1.500  -0.100  -2.657  0.00  0.00    +0.000 HD
ENDROOT
TORSDOF 0
REMARK  Name = 
REMARK  16 active torsions:
REMARK  status: ('A' for Active; 'I' for Inactive)
REMARK    1  A    between atoms: C_3  and  C_4
REMARK    2  A    between atoms: C_4  and  N_5
REMARK    3  A    between atoms: N_5  and  C_6
REMARK    4  A    between atoms: N_5  and  C_8
REMARK    5  A    between atoms: C_6  and  C_7
REMARK    6  A    between atoms: C_8  and  C_9
REMARK    7  A    between atoms: C_9  and  O_10
REMARK    8  A    between atoms: O_10  and  C_11
REMARK    9  A    between atoms: C_22  and  O_25
REMARK   10  A    between atoms: O_25  and  C_26
REMARK   11  A    between atoms: C_26  and  C_27
REMARK   12  A    between atoms: C_27  and  N_28
REMARK   13  A    between atoms: N_28  and  C_29
REMARK   14  A    between atoms: N_28  and  C_31
REMARK   15  A    between atoms: C_29  and  C_30
REMARK   16  A    between atoms: C_31  and  C_32
REMARK                            x       y       z     vdW  Elec       q    Type
REMARK                         _______ _______ _______ _____ _____    ______ ____
ROOT
ATOM      1  H   UNK     1       1.879  -2.067   2.154  0.00  0.00    +0.000 HD
ENDROOT
TORSDOF 0
REMARK  Name = 
REMARK  16 active torsions:
REMARK  status: ('A' for Active; 'I' for Inactive)
REMARK    1  A    between atoms: C_3  and  C_4
REMARK    2  A    between atoms: C_4  and  N_5
REMARK    3  A    between atoms: N_5  and  C_6
REMARK    4  A    between atoms: N_5  and  C_8
REMARK    5  A    between atoms: C_6  and  C_7
REMARK    6  A    between atoms: C_8  and  C_9
REMARK    7  A    between atoms: C_9  and  O_10
REMARK    8  A    between atoms: O_10  and  C_11
REMARK    9  A    between atoms: C_22  and  O_25
REMARK   10  A    between atoms: O_25  and  C_26
REMARK   11  A    between atoms: C_26  and  C_27
REMARK   12  A    between atoms: C_27  and  N_28
REMARK   13  A    between atoms: N_28  and  C_29
REMARK   14  A    between atoms: N_28  and  C_31
REMARK   15  A    between atoms: C_29  and  C_30
REMARK   16  A    between atoms: C_31  and  C_32
REMARK                            x       y       z     vdW  Elec       q    Type
REMARK                         _______ _______ _______ _____ _____    ______ ____
ROOT
ATOM      1  C   UNL     1       6.939   2.777  -3.076  0.00  0.00    +0.121 A 
ATOM      2  C   UNL     1       7.796   2.180  -4.031  0.00  0.00    +0.046 A 
ATOM      3  C   UNL     1       8.438   2.963  -5.006  0.00  0.00    +0.013 A 
ATOM      4  C   UNL     1       8.196   4.336  -5.001  0.00  0.00    -0.006 A 
ATOM      5  C   UNL     1       8.667   5.372  -5.909  0.00  0.00    -0.006 A 
ATOM      6  C   UNL     1       9.469   5.246  -7.026  0.00  0.00    +0.013 A 
ATOM      7  C   UNL     1       9.745   6.397  -7.764  0.00  0.00    +0.046 A 
ATOM      8  C   UNL     1       9.222   7.673  -7.385  0.00  0.00    +0.121 A 
ATOM      9  C   UNL     1       8.414   7.766  -6.231  0.00  0.00    +0.058 A 
ATOM     10  C   UNL     1       8.149   6.594  -5.516  0.00  0.00    +0.033 A 
ATOM     11  C   UNL     1       7.333   6.366  -4.325  0.00  0.00    +0.195 C 
ATOM     12  O   UNL     1       6.703   7.203  -3.699  0.00  0.00    -0.287 OA
ATOM     13  C   UNL     1       7.382   4.930  -4.062  0.00  0.00    +0.033 A 
ATOM     14  C   UNL     1       6.744   4.180  -3.087  0.00  0.00    +0.058 A 
ENDROOT
BRANCH   1  15
ATOM     15  O   UNL     1       6.304   1.977  -2.187  0.00  0.00    -0.491 OA
BRANCH  15  16
ATOM     16  C   UNL     1       5.437   2.425  -1.211  0.00  0.00    +0.244 C 
BRANCH  16  17
ATOM     17  C   UNL     1       4.792   1.268  -0.447  0.00  0.00    +0.125 C 
BRANCH  17  18
ATOM     18  N   UNL     1       5.727   0.495   0.408  0.00  0.00    -0.300 NA
BRANCH  18  20
ATOM     19  C   UNL     1       5.779  -1.187   2.290  0.00  0.00    +0.020 C 
ATOM     20  C   UNL     1       4.934  -0.390   1.297  0.00  0.00    +0.081 C 
ENDBRANCH  18  20
BRANCH  18  21
ATOM     21  C   UNL     1       6.833  -0.183  -0.320  0.00  0.00    +0.081 C 
ATOM     22  C   UNL     1       6.372  -1.162  -1.406  0.00  0.00    +0.020 C 
ENDBRANCH  18  21
ENDBRANCH  17  18
ENDBRANCH  16  17
ENDBRANCH  15  16
ENDBRANCH   1  15
BRANCH   8  23
ATOM     23  O   UNL     1       9.471   8.790  -8.127  0.00  0.00    -0.491 OA
BRANCH  23  24
ATOM     24  C   UNL     1      10.134   8.706  -9.339  0.00  0.00    +0.244 C 
BRANCH  24  25
ATOM     25  C   UNL     1      10.289  10.038 -10.070  0.00  0.00    +0.125 C 
BRANCH  25  26
ATOM     26  N   UNL     1      11.104   9.874 -11.308  0.00  0.00    -0.300 NA
BRANCH  26  27
ATOM     27  C   UNL     1      11.388  11.195 -11.914  0.00  0.00    +0.081 C 
ATOM     28  C   UNL     1      12.312  11.118 -13.134  0.00  0.00    +0.020 C 
ENDBRANCH  26  27
BRANCH  26  29
ATOM     29  C   UNL     1      10.599   8.849 -12.266  0.00  0.00    +0.081 C 
ATOM     30  C   UNL     1       9.260   9.205 -12.918  0.00  0.00    +0.020 C 
ENDBRANCH  26  29
ENDBRANCH  25  26
ENDBRANCH  24  25
ENDBRANCH  23  24
ENDBRANCH   8  23
TORSDOF 12
REMARK  Name = 
REMARK  16 active torsions:
REMARK  status: ('A' for Active; 'I' for Inactive)
REMARK    1  A    between atoms: C_3  and  C_4
REMARK    2  A    between atoms: C_4  and  N_5
REMARK    3  A    between atoms: N_5  and  C_6
REMARK    4  A    between atoms: N_5  and  C_8
REMARK    5  A    between atoms: C_6  and  C_7
REMARK    6  A    between atoms: C_8  and  C_9
REMARK    7  A    between atoms: C_9  and  O_10
REMARK    8  A    between atoms: O_10  and  C_11
REMARK    9  A    between atoms: C_22  and  O_25
REMARK   10  A    between atoms: O_25  and  C_26
REMARK   11  A    between atoms: C_26  and  C_27
REMARK   12  A    between atoms: C_27  and  N_28
REMARK   13  A    between atoms: N_28  and  C_29
REMARK   14  A    between atoms: N_28  and  C_31
REMARK   15  A    between atoms: C_29  and  C_30
REMARK   16  A    between atoms: C_31  and  C_32
REMARK                            x       y       z     vdW  Elec       q    Type
REMARK                         _______ _______ _______ _____ _____    ______ ____
ROOT
ATOM      1 CL   UNL     1       2.003  -5.919  -0.752  0.00  0.00    +0.000 Cl
ENDROOT
TORSDOF 0
REMARK  Name = 
REMARK  16 active torsions:
REMARK  status: ('A' for Active; 'I' for Inactive)
REMARK    1  A    between atoms: C_3  and  C_4
REMARK    2  A    between atoms: C_4  and  N_5
REMARK    3  A    between atoms: N_5  and  C_6
REMARK    4  A    between atoms: N_5  and  C_8
REMARK    5  A    between atoms: C_6  and  C_7
REMARK    6  A    between atoms: C_8  and  C_9
REMARK    7  A    between atoms: C_9  and  O_10
REMARK    8  A    between atoms: O_10  and  C_11
REMARK    9  A    between atoms: C_22  and  O_25
REMARK   10  A    between atoms: O_25  and  C_26
REMARK   11  A    between atoms: C_26  and  C_27
REMARK   12  A    between atoms: C_27  and  N_28
REMARK   13  A    between atoms: N_28  and  C_29
REMARK   14  A    between atoms: N_28  and  C_31
REMARK   15  A    between atoms: C_29  and  C_30
REMARK   16  A    between atoms: C_31  and  C_32
REMARK                            x       y       z     vdW  Elec       q    Type
REMARK                         _______ _______ _______ _____ _____    ______ ____
ROOT
ATOM      1 CL   UNL     1      -1.522  -2.489  -0.591  0.00  0.00    +0.000 Cl
ENDROOT
TORSDOF 0
