REMARK  Name = 
REMARK  8 active torsions:
REMARK  status: ('A' for Active; 'I' for Inactive)
REMARK    1  A    between atoms: C_1  and  C_2
REMARK    2  A    between atoms: C_2  and  C_3
REMARK    3  A    between atoms: C_2  and  C_4
REMARK    4  A    between atoms: C_2  and  O_28
REMARK    5  A    between atoms: C_7  and  S_9
REMARK    6  A    between atoms: S_9  and  N_12
REMARK    7  A    between atoms: N_12  and  C_13
REMARK    8  A    between atoms: N_15  and  C_16
REMARK                            x       y       z     vdW  Elec       q    Type
REMARK                         _______ _______ _______ _____ _____    ______ ____
ROOT
ATOM      1  C   UNL     1       4.843  -1.504  -6.468  0.00  0.00    +0.147 C 
ATOM      2  N   UNL     1       5.510  -2.720  -6.500  0.00  0.00    -0.299 N 
ATOM      3  H   UNL     1       5.204  -3.347  -5.772  0.00  0.00    +0.153 HD
ATOM      4  O   UNL     1       4.682  -0.816  -7.464  0.00  0.00    -0.296 OA
ENDROOT
BRANCH   2   5
ATOM      5  C   UNL     1       6.014  -3.287  -7.687  0.00  0.00    +0.039 A 
ATOM      6  C   UNL     1       5.633  -4.575  -8.054  0.00  0.00    -0.023 A 
ATOM      7  C   UNL     1       4.717  -5.525  -7.343  0.00  0.00    +0.037 C 
ATOM      8  C   UNL     1       4.319  -6.482  -8.477  0.00  0.00    +0.009 C 
ATOM      9  C   UNL     1       5.495  -6.515  -9.459  0.00  0.00    +0.036 C 
ATOM     10  C   UNL     1       6.082  -5.153  -9.259  0.00  0.00    -0.042 A 
ATOM     11  C   UNL     1       6.961  -4.493 -10.101  0.00  0.00    +0.008 A 
ATOM     12  C   UNL     1       7.379  -3.230  -9.708  0.00  0.00    -0.042 A 
ATOM     13  C   UNL     1       8.334  -2.353 -10.447  0.00  0.00    +0.036 C 
ATOM     14  C   UNL     1       8.540  -1.167  -9.502  0.00  0.00    +0.009 C 
ATOM     15  C   UNL     1       7.573  -1.298  -8.316  0.00  0.00    +0.037 C 
ATOM     16  C   UNL     1       6.914  -2.627  -8.525  0.00  0.00    -0.023 A 
ENDBRANCH   2   5
BRANCH   1  17
ATOM     17  N   UNL     1       4.369  -1.294  -5.240  0.00  0.00    -0.487 NA
BRANCH  17  18
ATOM     18  S   UNL     1       3.143  -0.308  -5.045  0.00  0.00    -0.023 S 
ATOM     19  O   UNL     1       2.675  -0.224  -3.660  0.00  0.00    -0.181 OA
ATOM     20  O   UNL     1       3.071   0.951  -5.803  0.00  0.00    -0.181 OA
BRANCH  18  23
ATOM     21  C   UNL     1       0.303  -2.402  -7.133  0.00  0.00    +0.023 A 
ATOM     22  C   UNL     1       1.571  -1.757  -7.070  0.00  0.00    +0.074 A 
ATOM     23  C   UNL     1       1.745  -1.254  -5.788  0.00  0.00    +0.225 A 
ATOM     24  O   UNL     1       0.622  -1.583  -5.052  0.00  0.00    -0.447 OA
ATOM     25  C   UNL     1      -0.230  -2.243  -5.872  0.00  0.00    +0.203 A 
BRANCH  21  27
ATOM     26  C   UNL     1      -1.072  -2.001  -9.167  0.00  0.00    +0.046 C 
ATOM     27  C   UNL     1      -0.344  -3.054  -8.320  0.00  0.00    +0.088 C 
ATOM     28  C   UNL     1       0.672  -3.814  -9.185  0.00  0.00    +0.046 C 
BRANCH  27  29
ATOM     29  O   UNL     1      -1.325  -4.008  -7.878  0.00  0.00    -0.384 OA
ATOM     30  H   UNL     1      -1.598  -4.520  -8.659  0.00  0.00    +0.211 HD
ENDBRANCH  27  29
ENDBRANCH  21  27
ENDBRANCH  18  23
ENDBRANCH  17  18
ENDBRANCH   1  17
TORSDOF 6
REMARK  Name = 
REMARK  8 active torsions:
REMARK  status: ('A' for Active; 'I' for Inactive)
REMARK    1  A    between atoms: C_1  and  C_2
REMARK    2  A    between atoms: C_2  and  C_3
REMARK    3  A    between atoms: C_2  and  C_4
REMARK    4  A    between atoms: C_2  and  O_28
REMARK    5  A    between atoms: C_7  and  S_9
REMARK    6  A    between atoms: S_9  and  N_12
REMARK    7  A    between atoms: N_12  and  C_13
REMARK    8  A    between atoms: N_15  and  C_16
REMARK                            x       y       z     vdW  Elec       q    Type
REMARK                         _______ _______ _______ _____ _____    ______ ____
ROOT
ATOM      1 NA   UNL     1       0.482  -2.296   0.279  0.00  0.00    +0.000 Na
ENDROOT
TORSDOF 0
