REMARK  Name = 
REMARK  35 active torsions:
REMARK  status: ('A' for Active; 'I' for Inactive)
REMARK    1  A    between atoms: C_1  and  C_2
REMARK    2  A    between atoms: C_6  and  C_21
REMARK    3  A    between atoms: C_9  and  C_11
REMARK    4  A    between atoms: C_11  and  C_13
REMARK    5  A    between atoms: C_11  and  N_16
REMARK    6  A    between atoms: C_13  and  C_14
REMARK    7  A    between atoms: C_13  and  C_15
REMARK    8  A    between atoms: C_17  and  O_19
REMARK    9  A    between atoms: O_19  and  C_20
REMARK   10  A    between atoms: C_40  and  C_42
REMARK   11  A    between atoms: C_45  and  C_47
REMARK   12  A    between atoms: C_50  and  C_69
REMARK   13  A    between atoms: C_54  and  C_56
REMARK   14  A    between atoms: C_56  and  C_58
REMARK   15  A    between atoms: C_56  and  N_64
REMARK   16  A    between atoms: C_65  and  O_67
REMARK   17  A    between atoms: O_67  and  C_68
REMARK   18  A    between atoms: C_69  and  O_70
REMARK   19  A    between atoms: O_70  and  C_71
REMARK   20  A    between atoms: C_72  and  C_73
REMARK   21  A    between atoms: C_73  and  C_75
REMARK   22  A    between atoms: C_73  and  N_81
REMARK   23  A    between atoms: C_75  and  O_77
REMARK   24  A    between atoms: O_77  and  C_78
REMARK   25  A    between atoms: C_78  and  C_79
REMARK   26  A    between atoms: C_78  and  C_80
REMARK   27  A    between atoms: N_81  and  P_82
REMARK   28  A    between atoms: P_82  and  O_84
REMARK   29  A    between atoms: P_82  and  O_105
REMARK   30  A    between atoms: O_84  and  C_85
REMARK   31  A    between atoms: C_85  and  C_86
REMARK   32  A    between atoms: C_88  and  O_104
REMARK   33  A    between atoms: C_90  and  C_102
REMARK   34  A    between atoms: C_91  and  N_94
REMARK   35  A    between atoms: O_105  and  C_106
REMARK                            x       y       z     vdW  Elec       q    Type
REMARK                         _______ _______ _______ _____ _____    ______ ____
ROOT
ATOM      1  C   UNL     1     -21.478 -12.109   9.084  0.00  0.00    +0.129 A 
ATOM      2  N   UNL     1     -20.613 -12.066   8.007  0.00  0.00    -0.340 N 
ATOM      3  H   UNL     1     -19.767 -12.611   7.916  0.00  0.00    +0.167 HD
ATOM      4  C   UNL     1     -21.101 -11.139   7.098  0.00  0.00    +0.067 A 
ATOM      5  C   UNL     1     -20.678 -10.661   5.855  0.00  0.00    +0.028 A 
ATOM      6  C   UNL     1     -21.475  -9.658   5.235  0.00  0.00    +0.010 A 
ATOM      7  C   UNL     1     -22.654  -9.153   5.836  0.00  0.00    -0.015 A 
ATOM      8  C   UNL     1     -23.038  -9.687   7.077  0.00  0.00    +0.013 A 
ATOM      9  C   UNL     1     -24.176  -9.259   7.763  0.00  0.00    +0.057 A 
ATOM     10  C   UNL     1     -24.970  -8.280   7.202  0.00  0.00    +0.129 A 
ATOM     11  O   UNL     1     -26.084  -7.954   7.935  0.00  0.00    -0.487 OA
ATOM     12  C   UNL     1     -26.553  -6.630   7.697  0.00  0.00    +0.265 C 
ATOM     13  C   UNL     1     -26.646  -6.291   6.234  0.00  0.00    -0.002 A 
ATOM     14  C   UNL     1     -27.642  -5.427   5.766  0.00  0.00    +0.017 A 
ATOM     15  C   UNL     1     -27.601  -4.953   4.452  0.00  0.00    +0.000 A 
ATOM     16  C   UNL     1     -26.590  -5.413   3.603  0.00  0.00    +0.010 A 
ATOM     17  C   UNL     1     -25.621  -6.314   4.059  0.00  0.00    +0.009 A 
ATOM     18  C   UNL     1     -25.629  -6.761   5.383  0.00  0.00    -0.008 A 
ATOM     19  C   UNL     1     -24.668  -7.722   5.944  0.00  0.00    +0.025 A 
ATOM     20  C   UNL     1     -23.492  -8.157   5.282  0.00  0.00    +0.020 A 
ATOM     21  C   UNL     1     -22.269 -10.685   7.691  0.00  0.00    +0.097 A 
ATOM     22  N   UNL     1     -22.500 -11.310   8.878  0.00  0.00    -0.230 NA
ENDROOT
BRANCH   1  28
ATOM     23  C   UNL     1     -17.782 -12.598  11.001  0.00  0.00    +0.028 C 
ATOM     24  C   UNL     1     -19.194 -12.889  11.485  0.00  0.00    +0.074 C 
ATOM     25  N   UNL     1     -20.064 -13.582  10.517  0.00  0.00    -0.287 N 
ATOM     26  C   UNL     1     -20.084 -14.964  10.290  0.00  0.00    +0.237 C 
ATOM     27  O   UNL     1     -21.130 -15.529   9.958  0.00  0.00    -0.274 OA
ATOM     28  C   UNL     1     -21.332 -12.858  10.375  0.00  0.00    +0.142 C 
ATOM     29  C   UNL     1     -21.360 -11.853  11.535  0.00  0.00    +0.032 C 
ATOM     30  C   UNL     1     -19.894 -11.549  11.763  0.00  0.00    +0.024 C 
BRANCH  26  31
ATOM     31  C   UNL     1     -18.767 -15.782  10.431  0.00  0.00    +0.165 C 
BRANCH  31  32
ATOM     32  N   UNL     1     -18.430 -16.113  11.817  0.00  0.00    -0.270 N 
ATOM     33  H   UNL     1     -19.094 -16.617  12.393  0.00  0.00    +0.153 HD
ATOM     34  C   UNL     1     -17.127 -16.159  12.227  0.00  0.00    +0.401 C 
ATOM     35  O   UNL     1     -16.192 -15.754  11.535  0.00  0.00    -0.226 OA
BRANCH  34  36
ATOM     36  O   UNL     1     -16.992 -16.710  13.448  0.00  0.00    -0.454 OA
ATOM     37  C   UNL     1     -15.625 -16.773  13.886  0.00  0.00    +0.282 C 
ENDBRANCH  34  36
ENDBRANCH  31  32
BRANCH  31  38
ATOM     38  C   UNL     1     -18.705 -17.055   9.528  0.00  0.00    +0.012 C 
ATOM     39  C   UNL     1     -19.035 -16.742   8.064  0.00  0.00    +0.009 C 
ATOM     40  C   UNL     1     -19.533 -18.245  10.025  0.00  0.00    +0.009 C 
ENDBRANCH  31  38
ENDBRANCH  26  31
ENDBRANCH   1  28
BRANCH  15  41
ATOM     41  C   UNL     1     -28.521  -3.915   4.012  0.00  0.00    +0.066 A 
ATOM     42  N   UNL     1     -29.795  -3.753   4.495  0.00  0.00    -0.340 N 
ATOM     43  H   UNL     1     -30.255  -4.390   5.131  0.00  0.00    +0.167 HD
ATOM     44  C   UNL     1     -30.339  -2.612   3.948  0.00  0.00    +0.128 A 
ATOM     45  N   UNL     1     -29.484  -2.063   3.107  0.00  0.00    -0.238 NA
ATOM     46  C   UNL     1     -28.371  -2.864   3.131  0.00  0.00    +0.139 A 
BRANCH  44  47
ATOM     47  C   UNL     1     -31.703  -2.105   4.334  0.00  0.00    +0.142 C 
ATOM     48  N   UNL     1     -32.395  -1.494   3.188  0.00  0.00    -0.289 N 
ATOM     49  C   UNL     1     -32.388  -0.165   2.792  0.00  0.00    +0.241 C 
ATOM     50  O   UNL     1     -33.317   0.257   2.085  0.00  0.00    -0.273 OA
ATOM     51  C   UNL     1     -33.489  -2.335   2.722  0.00  0.00    +0.114 C 
ATOM     52  C   UNL     1     -33.319  -3.671   3.432  0.00  0.00    +0.034 C 
ATOM     53  C   UNL     1     -32.665  -3.233   4.748  0.00  0.00    +0.037 C 
BRANCH  49  54
ATOM     54  C   UNL     1     -31.243   0.796   3.250  0.00  0.00    +0.193 C 
BRANCH  54  55
ATOM     55  C   UNL     1     -30.494   1.356   2.036  0.00  0.00    -0.018 A 
ATOM     56  C   UNL     1     -29.111   1.164   1.906  0.00  0.00    +0.006 A 
ATOM     57  C   UNL     1     -28.423   1.658   0.794  0.00  0.00    +0.000 A 
ATOM     58  C   UNL     1     -29.106   2.345  -0.209  0.00  0.00    +0.000 A 
ATOM     59  C   UNL     1     -30.475   2.561  -0.090  0.00  0.00    +0.000 A 
ATOM     60  C   UNL     1     -31.160   2.084   1.029  0.00  0.00    +0.006 A 
ENDBRANCH  54  55
BRANCH  54  61
ATOM     61  N   UNL     1     -31.789   1.920   4.007  0.00  0.00    -0.266 N 
ATOM     62  H   UNL     1     -31.524   2.861   3.751  0.00  0.00    +0.153 HD
ATOM     63  C   UNL     1     -32.361   1.778   5.228  0.00  0.00    +0.401 C 
ATOM     64  O   UNL     1     -32.593   0.714   5.781  0.00  0.00    -0.226 OA
BRANCH  63  65
ATOM     65  O   UNL     1     -32.619   3.003   5.750  0.00  0.00    -0.454 OA
ATOM     66  C   UNL     1     -33.248   2.978   7.034  0.00  0.00    +0.282 C 
ENDBRANCH  63  65
ENDBRANCH  54  61
ENDBRANCH  49  54
BRANCH  52  67
ATOM     67  C   UNL     1     -32.507  -4.637   2.563  0.00  0.00    +0.164 C 
BRANCH  67  68
ATOM     68  O   UNL     1     -32.201  -5.826   3.293  0.00  0.00    -0.383 OA
ATOM     69  C   UNL     1     -31.465  -6.739   2.478  0.00  0.00    +0.193 C 
ENDBRANCH  67  68
ENDBRANCH  52  67
ENDBRANCH  44  47
ENDBRANCH  15  41
TORSDOF 13
REMARK  Name = 
REMARK  35 active torsions:
REMARK  status: ('A' for Active; 'I' for Inactive)
REMARK    1  A    between atoms: C_1  and  C_2
REMARK    2  A    between atoms: C_6  and  C_21
REMARK    3  A    between atoms: C_9  and  C_11
REMARK    4  A    between atoms: C_11  and  C_13
REMARK    5  A    between atoms: C_11  and  N_16
REMARK    6  A    between atoms: C_13  and  C_14
REMARK    7  A    between atoms: C_13  and  C_15
REMARK    8  A    between atoms: C_17  and  O_19
REMARK    9  A    between atoms: O_19  and  C_20
REMARK   10  A    between atoms: C_40  and  C_42
REMARK   11  A    between atoms: C_45  and  C_47
REMARK   12  A    between atoms: C_50  and  C_69
REMARK   13  A    between atoms: C_54  and  C_56
REMARK   14  A    between atoms: C_56  and  C_58
REMARK   15  A    between atoms: C_56  and  N_64
REMARK   16  A    between atoms: C_65  and  O_67
REMARK   17  A    between atoms: O_67  and  C_68
REMARK   18  A    between atoms: C_69  and  O_70
REMARK   19  A    between atoms: O_70  and  C_71
REMARK   20  A    between atoms: C_72  and  C_73
REMARK   21  A    between atoms: C_73  and  C_75
REMARK   22  A    between atoms: C_73  and  N_81
REMARK   23  A    between atoms: C_75  and  O_77
REMARK   24  A    between atoms: O_77  and  C_78
REMARK   25  A    between atoms: C_78  and  C_79
REMARK   26  A    between atoms: C_78  and  C_80
REMARK   27  A    between atoms: N_81  and  P_82
REMARK   28  A    between atoms: P_82  and  O_84
REMARK   29  A    between atoms: P_82  and  O_105
REMARK   30  A    between atoms: O_84  and  C_85
REMARK   31  A    between atoms: C_85  and  C_86
REMARK   32  A    between atoms: C_88  and  O_104
REMARK   33  A    between atoms: C_90  and  C_102
REMARK   34  A    between atoms: C_91  and  N_94
REMARK   35  A    between atoms: O_105  and  C_106
REMARK                            x       y       z     vdW  Elec       q    Type
REMARK                         _______ _______ _______ _____ _____    ______ ____
ROOT
ATOM      1  O   UNL     1       1.177   1.682   1.680  0.00  0.00    -0.284 OA
ENDROOT
BRANCH   1   2
ATOM      2  P   UNL     1       2.657   2.228   1.103  0.00  0.00    +0.462 P 
ATOM      3  O   UNL     1       2.431   3.488   0.311  0.00  0.00    -0.228 OA
BRANCH   2   4
ATOM      4  N   UNL     1       3.155   0.994   0.162  0.00  0.00    -0.199 NA
ATOM      5  H   UNL     1       2.382   0.920  -0.492  0.00  0.00    +0.135 HD
BRANCH   4   7
ATOM      6  C   UNL     1       4.008   0.319  -2.077  0.00  0.00    +0.036 C 
ATOM      7  C   UNL     1       4.375   0.563  -0.590  0.00  0.00    +0.171 C 
BRANCH   7   8
ATOM      8  C   UNL     1       5.779   1.235  -0.306  0.00  0.00    +0.325 C 
ATOM      9  O   UNL     1       6.036   1.880   0.700  0.00  0.00    -0.249 OA
BRANCH   8  10
ATOM     10  O   UNL     1       6.733   0.893  -1.248  0.00  0.00    -0.461 OA
BRANCH  10  11
ATOM     11  C   UNL     1       8.143   1.364  -1.286  0.00  0.00    +0.170 C 
ATOM     12  C   UNL     1       9.172   0.484  -0.554  0.00  0.00    +0.052 C 
ATOM     13  C   UNL     1       8.383   2.834  -0.945  0.00  0.00    +0.052 C 
ENDBRANCH  10  11
ENDBRANCH   8  10
ENDBRANCH   7   8
ENDBRANCH   4   7
ENDBRANCH   2   4
BRANCH   2  14
ATOM     14  O   UNL     1       3.568   2.539   2.383  0.00  0.00    -0.413 OA
BRANCH  14  15
ATOM     15  C   UNL     1       3.889   1.861   3.515  0.00  0.00    +0.131 A 
ATOM     16  C   UNL     1       3.664   0.511   3.723  0.00  0.00    +0.046 A 
ATOM     17  C   UNL     1       4.065  -0.079   4.932  0.00  0.00    +0.004 A 
ATOM     18  C   UNL     1       4.697   0.675   5.925  0.00  0.00    +0.000 A 
ATOM     19  C   UNL     1       4.918   2.032   5.723  0.00  0.00    +0.004 A 
ATOM     20  C   UNL     1       4.514   2.620   4.521  0.00  0.00    +0.046 A 
ENDBRANCH  14  15
ENDBRANCH   2  14
ENDBRANCH   1   2
BRANCH   1  21
ATOM     21  C   UNL     1       0.095   2.655   1.681  0.00  0.00    +0.206 C 
BRANCH  21  22
ATOM     22  C   UNL     1      -1.433   2.292   1.911  0.00  0.00    +0.179 C 
ATOM     23  O   UNL     1      -2.166   3.489   2.395  0.00  0.00    -0.345 OA
ATOM     24  C   UNL     1      -3.550   3.396   1.911  0.00  0.00    +0.263 C 
ATOM     25  C   UNL     1      -3.386   2.869   0.480  0.00  0.00    +0.182 C 
ATOM     26  C   UNL     1      -3.120   3.981  -0.541  0.00  0.00    +0.055 C 
ATOM     27  F   UNL     1      -4.518   2.239   0.053  0.00  0.00    -0.235 F 
ATOM     28  C   UNL     1      -2.246   1.840   0.667  0.00  0.00    +0.187 C 
BRANCH  24  29
ATOM     29  N   UNL     1      -4.292   4.679   1.976  0.00  0.00    -0.271 N 
ATOM     30  C   UNL     1      -5.681   4.618   1.786  0.00  0.00    +0.331 A 
ATOM     31  O   UNL     1      -6.342   3.585   1.828  0.00  0.00    -0.246 OA
ATOM     32  N   UNL     1      -6.301   5.811   1.498  0.00  0.00    -0.275 N 
ATOM     33  H   UNL     1      -7.275   5.759   1.240  0.00  0.00    +0.173 HD
ATOM     34  C   UNL     1      -5.681   7.004   1.309  0.00  0.00    +0.254 A 
ATOM     35  O   UNL     1      -6.236   7.987   0.820  0.00  0.00    -0.268 OA
ATOM     36  C   UNL     1      -4.254   7.039   1.684  0.00  0.00    +0.088 A 
ATOM     37  C   UNL     1      -3.635   5.894   1.985  0.00  0.00    +0.098 A 
ENDBRANCH  24  29
BRANCH  28  38
ATOM     38  O   UNL     1      -2.856   0.574   0.989  0.00  0.00    -0.386 OA
ATOM     39  H   UNL     1      -2.274  -0.140   0.683  0.00  0.00    +0.210 HD
ENDBRANCH  28  38
ENDBRANCH  21  22
ENDBRANCH   1  21
TORSDOF 12
