REMARK  Name = 
REMARK  20 active torsions:
REMARK  status: ('A' for Active; 'I' for Inactive)
REMARK    1  A    between atoms: C_1  and  C_2
REMARK    2  A    between atoms: C_2  and  C_3
REMARK    3  A    between atoms: C_2  and  C_4
REMARK    4  A    between atoms: C_4  and  C_6
REMARK    5  A    between atoms: C_4  and  N_54
REMARK    6  A    between atoms: C_6  and  O_53
REMARK    7  A    between atoms: C_11  and  C_13
REMARK    8  A    between atoms: C_19  and  C_22
REMARK    9  A    between atoms: C_25  and  C_28
REMARK   10  A    between atoms: C_31  and  C_33
REMARK   11  A    between atoms: C_39  and  C_40
REMARK   12  A    between atoms: C_39  and  O_50
REMARK   13  A    between atoms: C_40  and  C_42
REMARK   14  A    between atoms: C_40  and  N_45
REMARK   15  A    between atoms: C_42  and  C_43
REMARK   16  A    between atoms: C_42  and  C_44
REMARK   17  A    between atoms: C_46  and  O_48
REMARK   18  A    between atoms: O_48  and  C_49
REMARK   19  A    between atoms: C_55  and  O_57
REMARK   20  A    between atoms: O_57  and  C_58
REMARK                            x       y       z     vdW  Elec       q    Type
REMARK                         _______ _______ _______ _____ _____    ______ ____
ROOT
ATOM      1  C   UNL     1       5.747  -1.660   2.493  0.00  0.00    +0.258 C 
ATOM      2  N   UNL     1       5.551  -0.189   2.596  0.00  0.00    -0.261 NA
ATOM      3  C   UNL     1       5.562   0.036   3.880  0.00  0.00    +0.131 C 
ATOM      4  C   UNL     1       5.827  -1.154   4.718  0.00  0.00    +0.054 C 
ATOM      5  C   UNL     1       5.664  -1.270   6.043  0.00  0.00    -0.003 C 
ATOM      6  C   UNL     1       5.012  -0.237   6.843  0.00  0.00    +0.006 C 
ATOM      7  C   UNL     1       5.047  -0.323   8.182  0.00  0.00    -0.014 C 
ATOM      8  C   UNL     1       5.788  -1.427   8.909  0.00  0.00    +0.064 C 
ATOM      9  C   UNL     1       6.102  -2.609   8.017  0.00  0.00    -0.014 C 
ATOM     10  C   UNL     1       6.010  -2.533   6.683  0.00  0.00    +0.006 C 
ATOM     11  N   UNL     1       6.149  -2.146   3.809  0.00  0.00    -0.316 N 
ATOM     12  H   UNL     1       7.148  -2.388   3.875  0.00  0.00    +0.148 HD
ENDROOT
BRANCH   1  15
ATOM     13  C   UNL     1       4.396  -4.514   3.425  0.00  0.00    +0.359 C 
ATOM     14  N   UNL     1       3.919  -3.352   3.117  0.00  0.00    -0.194 N 
ATOM     15  C   UNL     1       4.417  -2.376   2.051  0.00  0.00    +0.307 C 
ATOM     16  C   UNL     1       3.187  -1.463   1.833  0.00  0.00    +0.085 C 
ATOM     17  C   UNL     1       2.051  -2.034   2.670  0.00  0.00    +0.078 C 
ATOM     18  C   UNL     1       2.732  -2.763   3.805  0.00  0.00    +0.354 C 
BRANCH  13  19
ATOM     19  O   UNL     1       3.792  -5.132   4.457  0.00  0.00    -0.461 OA
ATOM     20  H   UNL     1       4.226  -5.976   4.690  0.00  0.00    +0.298 HD
ENDBRANCH  13  19
BRANCH  13  21
ATOM     21  C   UNL     1       5.531  -5.248   2.722  0.00  0.00    +0.215 C 
BRANCH  21  22
ATOM     22  N   UNL     1       6.255  -6.009   3.748  0.00  0.00    -0.265 N 
ATOM     23  H   UNL     1       6.112  -7.003   3.895  0.00  0.00    +0.153 HD
ATOM     24  C   UNL     1       7.260  -5.477   4.501  0.00  0.00    +0.401 C 
ATOM     25  O   UNL     1       7.730  -4.355   4.336  0.00  0.00    -0.226 OA
BRANCH  24  26
ATOM     26  O   UNL     1       7.590  -6.337   5.485  0.00  0.00    -0.454 OA
ATOM     27  C   UNL     1       8.467  -5.799   6.484  0.00  0.00    +0.282 C 
ENDBRANCH  24  26
ENDBRANCH  21  22
BRANCH  21  29
ATOM     28  C   UNL     1       4.027  -7.253   2.052  0.00  0.00    +0.010 C 
ATOM     29  C   UNL     1       5.038  -6.194   1.595  0.00  0.00    +0.017 C 
ATOM     30  C   UNL     1       4.451  -5.428   0.410  0.00  0.00    +0.010 C 
ENDBRANCH  21  29
ENDBRANCH  13  21
ENDBRANCH   1  15
BRANCH   8  31
ATOM     31  C   UNL     1       5.071  -1.874  10.167  0.00  0.00    -0.037 A 
ATOM     32  C   UNL     1       3.853  -2.568  10.131  0.00  0.00    +0.005 A 
ATOM     33  C   UNL     1       3.267  -3.031  11.315  0.00  0.00    +0.010 A 
ATOM     34  C   UNL     1       3.880  -2.805  12.552  0.00  0.00    -0.000 A 
ATOM     35  C   UNL     1       5.071  -2.065  12.586  0.00  0.00    +0.010 A 
ATOM     36  C   UNL     1       5.661  -1.611  11.410  0.00  0.00    +0.005 A 
BRANCH  34  37
ATOM     37  C   UNL     1       3.329  -3.381  13.771  0.00  0.00    +0.066 A 
ATOM     38  N   UNL     1       4.108  -3.819  14.816  0.00  0.00    -0.337 N 
ATOM     39  H   UNL     1       5.117  -3.773  14.840  0.00  0.00    +0.167 HD
ATOM     40  C   UNL     1       3.299  -4.454  15.726  0.00  0.00    +0.177 A 
ATOM     41  N   UNL     1       2.039  -4.390  15.351  0.00  0.00    -0.234 NA
ATOM     42  C   UNL     1       2.045  -3.716  14.153  0.00  0.00    +0.139 A 
BRANCH  40  43
ATOM     43  C   UNL     1       3.861  -5.198  16.882  0.00  0.00    +0.330 C 
ATOM     44  N   UNL     1       2.966  -5.403  18.077  0.00  0.00    -0.190 N 
ATOM     45  C   UNL     1       2.166  -4.528  18.600  0.00  0.00    +0.359 C 
ATOM     46  C   UNL     1       3.211  -6.767  18.659  0.00  0.00    +0.355 C 
ATOM     47  C   UNL     1       4.234  -7.415  17.738  0.00  0.00    +0.079 C 
ATOM     48  C   UNL     1       4.151  -6.637  16.446  0.00  0.00    +0.090 C 
BRANCH  45  49
ATOM     49  O   UNL     1       2.128  -3.303  18.060  0.00  0.00    -0.461 OA
ATOM     50  H   UNL     1       2.893  -2.745  18.287  0.00  0.00    +0.298 HD
ENDBRANCH  45  49
BRANCH  45  51
ATOM     51  C   UNL     1       1.405  -4.733  19.910  0.00  0.00    +0.215 C 
BRANCH  51  52
ATOM     52  N   UNL     1       1.971  -3.781  20.866  0.00  0.00    -0.265 N 
ATOM     53  H   UNL     1       1.366  -3.278  21.507  0.00  0.00    +0.153 HD
ATOM     54  C   UNL     1       3.278  -3.841  21.254  0.00  0.00    +0.401 C 
ATOM     55  O   UNL     1       4.123  -4.496  20.659  0.00  0.00    -0.226 OA
BRANCH  54  56
ATOM     56  O   UNL     1       3.484  -3.052  22.324  0.00  0.00    -0.454 OA
ATOM     57  C   UNL     1       4.837  -3.032  22.788  0.00  0.00    +0.282 C 
ENDBRANCH  54  56
ENDBRANCH  51  52
BRANCH  51  58
ATOM     58  C   UNL     1      -0.138  -4.597  19.818  0.00  0.00    +0.017 C 
ATOM     59  C   UNL     1      -0.754  -5.621  18.862  0.00  0.00    +0.010 C 
ATOM     60  C   UNL     1      -0.651  -3.193  19.483  0.00  0.00    +0.010 C 
ENDBRANCH  51  58
ENDBRANCH  45  51
ENDBRANCH  40  43
ENDBRANCH  34  37
ENDBRANCH   8  31
TORSDOF 14
