REMARK  Name = 
REMARK  6 active torsions:
REMARK  status: ('A' for Active; 'I' for Inactive)
REMARK    1  A    between atoms: C_3  and  C_19
REMARK    2  A    between atoms: N_5  and  C1*_6
REMARK    3  A    between atoms: C2*_8  and  O2*_18
REMARK    4  A    between atoms: C3*_10  and  O3*_17
REMARK    5  A    between atoms: C4*_12  and  C5*_15
REMARK    6  A    between atoms: C5*_15  and  O5*_16
REMARK                            x       y       z     vdW  Elec       q    Type
REMARK                         _______ _______ _______ _____ _____    ______ ____
ROOT
ATOM      1  C1* UNL     1      -0.858  -2.486   0.019  0.00  0.00    +0.270 C 
ATOM      2  O4* UNL     1      -1.158  -2.942   1.360  0.00  0.00    -0.344 OA
ATOM      3  C4* UNL     1      -1.108  -4.394   1.339  0.00  0.00    +0.177 C 
ATOM      4  C3* UNL     1      -0.661  -4.814  -0.064  0.00  0.00    +0.178 C 
ATOM      5  C2* UNL     1       0.031  -3.567  -0.598  0.00  0.00    +0.196 C 
ENDROOT
BRANCH   1   7
ATOM      6  C   UNL     1      -1.099  -0.008  -0.022  0.00  0.00    +0.223 A 
ATOM      7  N   UNL     1      -0.331  -1.134   0.062  0.00  0.00    -0.220 N 
ATOM      8  N   UNL     1       0.984  -0.820   0.151  0.00  0.00    -0.142 NA
ATOM      9  C   UNL     1       0.945   0.536   0.093  0.00  0.00    +0.236 A 
ATOM     10  N   UNL     1      -0.333   1.049  -0.020  0.00  0.00    -0.211 NA
BRANCH   9  11
ATOM     11  C   UNL     1       2.145   1.399   0.127  0.00  0.00    +0.281 C 
ATOM     12  N   UNL     1       3.338   0.733   0.235  0.00  0.00    -0.323 N 
ATOM     13  H   UNL     1       4.193   1.267   0.278  0.00  0.00    +0.145 HD
ATOM     14  H   UNL     1       3.342  -0.278   0.297  0.00  0.00    +0.145 HD
ATOM     15  O   UNL     1       2.131   2.627   0.063  0.00  0.00    -0.267 OA
ENDBRANCH   9  11
ENDBRANCH   1   7
BRANCH   4  16
ATOM     16  O3* UNL     1      -1.823  -5.068  -0.877  0.00  0.00    -0.386 OA
ATOM     17  H3* UNL     1      -1.545  -5.686  -1.580  0.00  0.00    +0.210 HD
ENDBRANCH   4  16
BRANCH   5  18
ATOM     18  O2* UNL     1       0.052  -3.580  -2.025  0.00  0.00    -0.385 OA
ATOM     19  H2* UNL     1      -0.870  -3.683  -2.329  0.00  0.00    +0.210 HD
ENDBRANCH   5  18
BRANCH   3  20
ATOM     20  C5* UNL     1      -0.147  -4.882   2.427  0.00  0.00    +0.190 C 
BRANCH  20  21
ATOM     21  O5* UNL     1      -0.621  -4.562   3.733  0.00  0.00    -0.392 OA
ATOM     22  H5* UNL     1      -1.357  -3.929   3.645  0.00  0.00    +0.210 HD
ENDBRANCH  20  21
ENDBRANCH   3  20
TORSDOF 6
