REMARK  Name = 
REMARK  6 active torsions:
REMARK  status: ('A' for Active; 'I' for Inactive)
REMARK    1  A    between atoms: C_3  and  C_19
REMARK    2  A    between atoms: N_5  and  C1*_6
REMARK    3  A    between atoms: C2*_8  and  O2*_18
REMARK    4  A    between atoms: C3*_10  and  O3*_17
REMARK    5  A    between atoms: C4*_12  and  C5*_15
REMARK    6  A    between atoms: C5*_15  and  O5*_16
REMARK                            x       y       z     vdW  Elec       q    Type
REMARK                         _______ _______ _______ _____ _____    ______ ____
ROOT
ATOM      1  C1* UNL     1      -0.846  -2.463   0.040  0.00  0.00    +0.270 C 
ATOM      2  O4* UNL     1      -1.026  -2.945   1.389  0.00  0.00    -0.344 OA
ATOM      3  C4* UNL     1      -1.043  -4.396   1.309  0.00  0.00    +0.177 C 
ATOM      4  C3* UNL     1      -0.665  -4.776  -0.132  0.00  0.00    +0.178 C 
ATOM      5  C2* UNL     1       0.002  -3.515  -0.666  0.00  0.00    +0.196 C 
ENDROOT
BRANCH   1   7
ATOM      6  C   UNL     1      -0.916  -0.045  -0.547  0.00  0.00    +0.223 A 
ATOM      7  N   UNL     1      -0.310  -1.116   0.037  0.00  0.00    -0.220 N 
ATOM      8  N   UNL     1       0.866  -0.760   0.610  0.00  0.00    -0.142 NA
ATOM      9  C   UNL     1       0.910   0.569   0.330  0.00  0.00    +0.236 A 
ATOM     10  N   UNL     1      -0.182   1.024  -0.383  0.00  0.00    -0.211 NA
BRANCH   9  11
ATOM     11  C   UNL     1       2.016   1.463   0.740  0.00  0.00    +0.281 C 
ATOM     12  N   UNL     1       3.026   0.855   1.436  0.00  0.00    -0.323 N 
ATOM     13  H   UNL     1       3.814   1.412   1.730  0.00  0.00    +0.145 HD
ATOM     14  H   UNL     1       2.983  -0.138   1.618  0.00  0.00    +0.145 HD
ATOM     15  O   UNL     1       2.069   2.668   0.494  0.00  0.00    -0.267 OA
ENDBRANCH   9  11
ENDBRANCH   1   7
BRANCH   4  16
ATOM     16  O3* UNL     1      -1.867  -4.995  -0.901  0.00  0.00    -0.386 OA
ATOM     17  H3* UNL     1      -1.654  -5.673  -1.570  0.00  0.00    +0.210 HD
ENDBRANCH   4  16
BRANCH   5  18
ATOM     18  O2* UNL     1      -0.066  -3.457  -2.090  0.00  0.00    -0.385 OA
ATOM     19  H2* UNL     1      -0.985  -3.671  -2.340  0.00  0.00    +0.210 HD
ENDBRANCH   5  18
BRANCH   3  20
ATOM     20  C5* UNL     1      -0.069  -4.954   2.345  0.00  0.00    +0.190 C 
BRANCH  20  21
ATOM     21  O5* UNL     1       1.259  -4.520   2.068  0.00  0.00    -0.392 OA
ATOM     22  H5* UNL     1       1.266  -3.553   2.212  0.00  0.00    +0.210 HD
ENDBRANCH  20  21
ENDBRANCH   3  20
TORSDOF 6
