REMARK  Name = 
REMARK  24 active torsions:
REMARK  status: ('A' for Active; 'I' for Inactive)
REMARK    1  A    between atoms: C_1  and  C_2
REMARK    2  A    between atoms: C_2  and  C_3
REMARK    3  A    between atoms: C_2  and  C_4
REMARK    4  A    between atoms: C_6  and  C_9
REMARK    5  A    between atoms: C_9  and  N_10
REMARK    6  A    between atoms: N_10  and  C_11
REMARK    7  A    between atoms: N_14  and  C_15
REMARK    8  A    between atoms: C_15  and  C_17
REMARK    9  A    between atoms: C_15  and  C_20
REMARK   10  A    between atoms: C_17  and  C_18
REMARK   11  A    between atoms: C_17  and  C_19
REMARK   12  A    between atoms: N_22  and  C_23
REMARK   13  A    between atoms: C_23  and  C_25
REMARK   14  A    between atoms: C_23  and  C_32
REMARK   15  A    between atoms: C_25  and  C_26
REMARK   16  A    between atoms: C_32  and  C_33
REMARK   17  A    between atoms: C_33  and  C_35
REMARK   18  A    between atoms: C_33  and  O_54
REMARK   19  A    between atoms: C_35  and  C_37
REMARK   20  A    between atoms: C_35  and  N_44
REMARK   21  A    between atoms: C_37  and  C_38
REMARK   22  A    between atoms: C_45  and  O_47
REMARK   23  A    between atoms: O_47  and  C_48
REMARK   24  A    between atoms: C_48  and  C_49
REMARK                            x       y       z     vdW  Elec       q    Type
REMARK                         _______ _______ _______ _____ _____    ______ ____
ROOT
ATOM      1  C   UNL     1       3.647   6.576  14.425  0.00  0.00    +0.080 C 
ENDROOT
BRANCH   1   3
ATOM      2  C   UNL     1       1.699   6.108  12.823  0.00  0.00    +0.234 C 
ATOM      3  N   UNL     1       2.882   6.742  13.179  0.00  0.00    -0.311 N 
ATOM      4  H   UNL     1       3.093   7.576  12.646  0.00  0.00    +0.149 HD
ATOM      5  O   UNL     1       1.194   5.171  13.437  0.00  0.00    -0.274 OA
BRANCH   2   6
ATOM      6  C   UNL     1       1.167   6.508  11.431  0.00  0.00    +0.163 C 
BRANCH   6   9
ATOM      7  N   UNL     1       1.603  10.184  11.066  0.00  0.00    -0.283 N 
ATOM      8  C   UNL     1       0.973   9.006  11.459  0.00  0.00    +0.303 C 
ATOM      9  N   UNL     1       1.623   7.859  11.075  0.00  0.00    -0.288 N 
ATOM     10  H   UNL     1       2.518   7.924  10.630  0.00  0.00    +0.151 HD
ATOM     11  O   UNL     1      -0.084   8.975  12.093  0.00  0.00    -0.253 OA
ATOM     12  C   UNL     1       2.779  10.201  10.214  0.00  0.00    +0.134 C 
BRANCH   7  13
ATOM     13  C   UNL     1       0.859  11.446  11.208  0.00  0.00    +0.164 C 
BRANCH  13  17
ATOM     14  C   UNL     1       2.929  14.392  11.808  0.00  0.00    +0.081 A 
ATOM     15  S   UNL     1       2.620  14.246  13.497  0.00  0.00    -0.080 S 
ATOM     16  C   UNL     1       1.696  12.837  13.204  0.00  0.00    +0.071 A 
ATOM     17  C   UNL     1       1.667  12.545  11.853  0.00  0.00    +0.066 A 
ATOM     18  N   UNL     1       2.390  13.446  11.061  0.00  0.00    -0.247 NA
BRANCH  14  20
ATOM     19  C   UNL     1       4.986  15.050  10.534  0.00  0.00    +0.014 C 
ATOM     20  C   UNL     1       3.765  15.549  11.305  0.00  0.00    +0.038 C 
ATOM     21  C   UNL     1       2.938  16.506  10.445  0.00  0.00    +0.014 C 
ENDBRANCH  14  20
ENDBRANCH  13  17
ENDBRANCH   7  13
ENDBRANCH   6   9
BRANCH   6  22
ATOM     22  C   UNL     1       1.640   5.441  10.404  0.00  0.00    +0.012 C 
ATOM     23  C   UNL     1       3.164   5.250  10.378  0.00  0.00    +0.009 C 
ATOM     24  C   UNL     1       1.122   5.738   8.995  0.00  0.00    +0.009 C 
ENDBRANCH   6  22
ENDBRANCH   2   6
ENDBRANCH   1   3
BRANCH   1  25
ATOM     25  C   UNL     1       5.068   6.026  14.158  0.00  0.00    +0.055 C 
BRANCH  25  26
ATOM     26  C   UNL     1       5.979   6.897  13.293  0.00  0.00    +0.137 C 
BRANCH  26  27
ATOM     27  O   UNL     1       6.054   8.211  13.865  0.00  0.00    -0.390 OA
ATOM     28  H   UNL     1       6.833   8.641  13.457  0.00  0.00    +0.210 HD
ENDBRANCH  26  27
BRANCH  26  29
ATOM     29  C   UNL     1       7.437   6.331  13.186  0.00  0.00    +0.109 C 
BRANCH  29  30
ATOM     30  N   UNL     1       8.254   7.204  12.330  0.00  0.00    -0.275 N 
ATOM     31  H   UNL     1       9.220   7.376  12.585  0.00  0.00    +0.152 HD
ATOM     32  C   UNL     1       7.947   7.450  11.025  0.00  0.00    +0.401 C 
ATOM     33  O   UNL     1       6.916   7.101  10.471  0.00  0.00    -0.226 OA
BRANCH  32  34
ATOM     34  O   UNL     1       8.943   8.157  10.442  0.00  0.00    -0.445 OA
BRANCH  34  35
ATOM     35  C   UNL     1       8.691   8.501   9.071  0.00  0.00    +0.278 C 
BRANCH  35  36
ATOM     36  C   UNL     1       9.114   7.353   8.223  0.00  0.00    +0.046 A 
ATOM     37  S   UNL     1      10.723   7.199   7.652  0.00  0.00    -0.077 S 
ATOM     38  C   UNL     1      10.294   5.722   6.895  0.00  0.00    +0.156 A 
ATOM     39  N   UNL     1       9.042   5.342   7.027  0.00  0.00    -0.255 NA
ATOM     40  C   UNL     1       8.367   6.275   7.787  0.00  0.00    +0.125 A 
ENDBRANCH  35  36
ENDBRANCH  34  35
ENDBRANCH  32  34
ENDBRANCH  29  30
BRANCH  29  41
ATOM     41  C   UNL     1       7.497   4.845  12.751  0.00  0.00    +0.060 C 
BRANCH  41  42
ATOM     42  C   UNL     1       8.897   4.272  12.661  0.00  0.00    -0.046 A 
ATOM     43  C   UNL     1       9.360   3.737  11.451  0.00  0.00    +0.004 A 
ATOM     44  C   UNL     1      10.660   3.238  11.346  0.00  0.00    +0.000 A 
ATOM     45  C   UNL     1      11.510   3.264  12.449  0.00  0.00    +0.000 A 
ATOM     46  C   UNL     1      11.047   3.751  13.669  0.00  0.00    +0.000 A 
ATOM     47  C   UNL     1       9.743   4.240  13.780  0.00  0.00    +0.004 A 
ENDBRANCH  41  42
ENDBRANCH  29  41
ENDBRANCH  26  29
ENDBRANCH  25  26
ENDBRANCH   1  25
BRANCH   1  48
ATOM     48  C   UNL     1       2.939   5.672  15.455  0.00  0.00    +0.057 C 
BRANCH  48  49
ATOM     49  C   UNL     1       3.575   5.548  16.821  0.00  0.00    -0.046 A 
ATOM     50  C   UNL     1       3.418   4.329  17.506  0.00  0.00    +0.004 A 
ATOM     51  C   UNL     1       3.933   4.180  18.791  0.00  0.00    +0.000 A 
ATOM     52  C   UNL     1       4.597   5.237  19.404  0.00  0.00    +0.000 A 
ATOM     53  C   UNL     1       4.752   6.449  18.732  0.00  0.00    +0.000 A 
ATOM     54  C   UNL     1       4.232   6.605  17.448  0.00  0.00    +0.004 A 
ENDBRANCH  48  49
ENDBRANCH   1  48
TORSDOF 19
