REMARK  Name = 
REMARK  27 active torsions:
REMARK  status: ('A' for Active; 'I' for Inactive)
REMARK    1  A    between atoms: C_1  and  C_2
REMARK    2  A    between atoms: C_2  and  C_3
REMARK    3  A    between atoms: C_2  and  C_4
REMARK    4  A    between atoms: C_2  and  C_5
REMARK    5  A    between atoms: C_5  and  C_7
REMARK    6  A    between atoms: C_5  and  N_51
REMARK    7  A    between atoms: N_9  and  C_10
REMARK    8  A    between atoms: C_10  and  C_12
REMARK    9  A    between atoms: C_10  and  C_19
REMARK   10  A    between atoms: C_12  and  C_13
REMARK   11  A    between atoms: C_19  and  C_21
REMARK   12  A    between atoms: C_19  and  O_50
REMARK   13  A    between atoms: C_21  and  N_22
REMARK   14  A    between atoms: N_22  and  C_23
REMARK   15  A    between atoms: N_22  and  N_36
REMARK   16  A    between atoms: C_23  and  C_24
REMARK   17  A    between atoms: C_27  and  C_30
REMARK   18  A    between atoms: C_37  and  C_39
REMARK   19  A    between atoms: C_39  and  C_41
REMARK   20  A    between atoms: C_39  and  N_45
REMARK   21  A    between atoms: C_41  and  C_42
REMARK   22  A    between atoms: C_41  and  C_43
REMARK   23  A    between atoms: C_41  and  C_44
REMARK   24  A    between atoms: C_46  and  O_48
REMARK   25  A    between atoms: O_48  and  C_49
REMARK   26  A    between atoms: C_52  and  O_54
REMARK   27  A    between atoms: O_54  and  C_55
REMARK                            x       y       z     vdW  Elec       q    Type
REMARK                         _______ _______ _______ _____ _____    ______ ____
ROOT
ATOM      1  N   UNL     1      -1.702   1.903  -0.865  0.00  0.00    -0.220 NA
ENDROOT
BRANCH   1   2
ATOM      2  N   UNL     1      -1.819   1.457   0.551  0.00  0.00    -0.246 N 
ATOM      3  H   UNL     1      -1.719   0.453   0.735  0.00  0.00    +0.169 HD
ATOM      4  C   UNL     1      -2.156   2.284   1.627  0.00  0.00    +0.248 C 
ATOM      5  O   UNL     1      -2.416   3.478   1.463  0.00  0.00    -0.272 OA
BRANCH   4   6
ATOM      6  C   UNL     1      -2.091   1.662   3.099  0.00  0.00    +0.169 C 
BRANCH   6   7
ATOM      7  C   UNL     1      -2.373   2.784   4.202  0.00  0.00    -0.011 C 
ATOM      8  C   UNL     1      -1.337   3.932   4.100  0.00  0.00    +0.013 C 
ATOM      9  C   UNL     1      -2.244   2.260   5.657  0.00  0.00    +0.013 C 
ATOM     10  C   UNL     1      -3.812   3.336   4.063  0.00  0.00    +0.013 C 
ENDBRANCH   6   7
BRANCH   6  11
ATOM     11  N   UNL     1      -3.004   0.521   3.301  0.00  0.00    -0.269 N 
ATOM     12  H   UNL     1      -3.593   0.502   4.122  0.00  0.00    +0.153 HD
ATOM     13  C   UNL     1      -2.852  -0.704   2.736  0.00  0.00    +0.401 C 
ATOM     14  O   UNL     1      -2.054  -0.970   1.848  0.00  0.00    -0.226 OA
BRANCH  13  15
ATOM     15  O   UNL     1      -3.735  -1.569   3.298  0.00  0.00    -0.454 OA
ATOM     16  C   UNL     1      -3.765  -2.874   2.710  0.00  0.00    +0.282 C 
ENDBRANCH  13  15
ENDBRANCH   6  11
ENDBRANCH   4   6
ENDBRANCH   1   2
BRANCH   1  17
ATOM     17  C   UNL     1      -2.084   3.309  -1.174  0.00  0.00    +0.139 C 
BRANCH  17  18
ATOM     18  C   UNL     1      -1.993   3.926  -2.637  0.00  0.00    +0.151 C 
BRANCH  18  19
ATOM     19  O   UNL     1      -0.603   3.952  -2.994  0.00  0.00    -0.389 OA
ATOM     20  H   UNL     1      -0.538   4.564  -3.758  0.00  0.00    +0.210 HD
ENDBRANCH  18  19
BRANCH  18  21
ATOM     21  C   UNL     1      -2.888   3.282  -3.766  0.00  0.00    +0.107 C 
BRANCH  21  23
ATOM     22  C   UNL     1      -1.378   3.889  -5.886  0.00  0.00    +0.234 C 
ATOM     23  N   UNL     1      -2.344   3.173  -5.208  0.00  0.00    -0.308 N 
ATOM     24  H   UNL     1      -2.823   2.485  -5.777  0.00  0.00    +0.149 HD
ATOM     25  O   UNL     1      -0.899   4.910  -5.377  0.00  0.00    -0.274 OA
BRANCH  22  26
ATOM     26  C   UNL     1      -0.943   3.458  -7.422  0.00  0.00    +0.167 C 
BRANCH  26  27
ATOM     27  N   UNL     1      -1.790   4.107  -8.416  0.00  0.00    -0.269 N 
ATOM     28  H   UNL     1      -1.378   4.674  -9.141  0.00  0.00    +0.153 HD
ATOM     29  C   UNL     1      -3.120   3.829  -8.526  0.00  0.00    +0.401 C 
ATOM     30  O   UNL     1      -3.735   3.110  -7.761  0.00  0.00    -0.226 OA
BRANCH  29  31
ATOM     31  O   UNL     1      -3.599   4.424  -9.649  0.00  0.00    -0.454 OA
ATOM     32  C   UNL     1      -4.963   4.081  -9.883  0.00  0.00    +0.282 C 
ENDBRANCH  29  31
ENDBRANCH  26  27
BRANCH  26  34
ATOM     33  C   UNL     1      -1.601   0.950  -7.803  0.00  0.00    +0.013 C 
ATOM     34  C   UNL     1      -0.479   2.000  -7.840  0.00  0.00    -0.011 C 
ATOM     35  C   UNL     1       0.073   1.912  -9.313  0.00  0.00    +0.013 C 
ATOM     36  C   UNL     1       0.665   1.560  -6.903  0.00  0.00    +0.013 C 
ENDBRANCH  26  34
ENDBRANCH  22  26
ENDBRANCH  21  23
BRANCH  21  37
ATOM     37  C   UNL     1      -4.458   3.583  -3.679  0.00  0.00    +0.060 C 
BRANCH  37  38
ATOM     38  C   UNL     1      -5.170   4.929  -3.491  0.00  0.00    -0.046 A 
ATOM     39  C   UNL     1      -6.465   4.963  -2.904  0.00  0.00    +0.004 A 
ATOM     40  C   UNL     1      -7.235   6.136  -2.844  0.00  0.00    +0.000 A 
ATOM     41  C   UNL     1      -6.732   7.322  -3.374  0.00  0.00    +0.000 A 
ATOM     42  C   UNL     1      -5.465   7.314  -3.953  0.00  0.00    +0.000 A 
ATOM     43  C   UNL     1      -4.694   6.130  -4.019  0.00  0.00    +0.004 A 
ENDBRANCH  37  38
ENDBRANCH  21  37
ENDBRANCH  18  21
ENDBRANCH  17  18
ENDBRANCH   1  17
BRANCH   1  44
ATOM     44  C   UNL     1      -0.450   1.430  -1.498  0.00  0.00    +0.140 C 
BRANCH  44  45
ATOM     45  C   UNL     1       0.883   1.625  -0.791  0.00  0.00    -0.032 A 
ATOM     46  C   UNL     1       1.449   2.830  -0.359  0.00  0.00    +0.005 A 
ATOM     47  C   UNL     1       2.552   2.820   0.532  0.00  0.00    +0.010 A 
ATOM     48  C   UNL     1       3.087   1.612   1.023  0.00  0.00    +0.000 A 
ATOM     49  C   UNL     1       2.671   0.453   0.353  0.00  0.00    +0.010 A 
ATOM     50  C   UNL     1       1.623   0.466  -0.558  0.00  0.00    +0.005 A 
BRANCH  48  51
ATOM     51  C   UNL     1       3.951   1.516   2.237  0.00  0.00    +0.071 A 
ATOM     52  N   UNL     1       4.219   2.667   2.906  0.00  0.00    -0.255 NA
ATOM     53  C   UNL     1       4.873   2.574   4.094  0.00  0.00    +0.111 A 
ATOM     54  C   UNL     1       5.288   1.386   4.672  0.00  0.00    +0.020 A 
ATOM     55  C   UNL     1       5.022   0.214   3.991  0.00  0.00    +0.004 A 
ATOM     56  C   UNL     1       4.354   0.282   2.772  0.00  0.00    +0.028 A 
ENDBRANCH  48  51
ENDBRANCH  44  45
ENDBRANCH   1  44
TORSDOF 19
