REMARK  Name = 
REMARK  2 active torsions:
REMARK  status: ('A' for Active; 'I' for Inactive)
REMARK    1  A    between atoms: C_1  and  C_2
REMARK    2  A    between atoms: N_12  and  C_13
REMARK                            x       y       z     vdW  Elec       q    Type
REMARK                         _______ _______ _______ _____ _____    ______ ____
ROOT
ATOM      1  C   UNL     1       0.937   0.239   0.303  0.00  0.00    +0.086 C 
ATOM      2  C   UNL     1       2.427   0.047   0.112  0.00  0.00    +0.114 A 
ATOM      3  N   UNL     1       2.985  -1.220   0.019  0.00  0.00    -0.263 N 
ATOM      4  C   UNL     1       4.377  -1.374  -0.081  0.00  0.00    +0.266 A 
ATOM      5  O   UNL     1       4.970  -2.450  -0.172  0.00  0.00    -0.267 OA
ATOM      6  C   UNL     1       5.182  -0.142  -0.097  0.00  0.00    +0.065 A 
ATOM      7  C   UNL     1       4.512   1.070  -0.003  0.00  0.00    +0.078 A 
ATOM      8  C   UNL     1       5.254   2.254   0.010  0.00  0.00    +0.028 A 
ATOM      9  C   UNL     1       6.646   2.220  -0.091  0.00  0.00    +0.002 A 
ATOM     10  C   UNL     1       7.312   1.002  -0.204  0.00  0.00    +0.001 A 
ATOM     11  C   UNL     1       6.579  -0.188  -0.203  0.00  0.00    +0.015 A 
ATOM     12  N   UNL     1       3.123   1.143   0.093  0.00  0.00    -0.233 NA
ENDROOT
BRANCH   3  13
ATOM     13  C   UNL     1       2.216  -2.437   0.070  0.00  0.00    +0.069 A 
ATOM     14  C   UNL     1       1.251  -2.796  -0.887  0.00  0.00    +0.065 A 
ATOM     15 CL   UNL     1       0.917  -1.837  -2.285  0.00  0.00    -0.081 Cl
ATOM     16  C   UNL     1       0.599  -4.038  -0.808  0.00  0.00    +0.022 A 
ATOM     17  C   UNL     1       0.928  -4.952   0.193  0.00  0.00    +0.002 A 
ATOM     18  C   UNL     1       1.903  -4.625   1.128  0.00  0.00    +0.002 A 
ATOM     19  C   UNL     1       2.534  -3.379   1.071  0.00  0.00    +0.028 A 
ENDBRANCH   3  13
TORSDOF 1
