REMARK  Name = 
REMARK  2 active torsions:
REMARK  status: ('A' for Active; 'I' for Inactive)
REMARK    1  A    between atoms: C_1  and  C_2
REMARK    2  A    between atoms: N_12  and  C_13
REMARK                            x       y       z     vdW  Elec       q    Type
REMARK                         _______ _______ _______ _____ _____    ______ ____
ROOT
ATOM      1  C   UNL     1       1.033   0.231   0.267  0.00  0.00    +0.086 C 
ATOM      2  C   UNL     1       2.525   0.038   0.087  0.00  0.00    +0.114 A 
ATOM      3  N   UNL     1       3.084  -1.228  -0.005  0.00  0.00    -0.263 N 
ATOM      4  C   UNL     1       4.474  -1.383  -0.095  0.00  0.00    +0.266 A 
ATOM      5  O   UNL     1       5.065  -2.459  -0.173  0.00  0.00    -0.267 OA
ATOM      6  C   UNL     1       5.281  -0.155  -0.117  0.00  0.00    +0.065 A 
ATOM      7  C   UNL     1       4.611   1.057  -0.032  0.00  0.00    +0.078 A 
ATOM      8  C   UNL     1       5.358   2.239  -0.029  0.00  0.00    +0.028 A 
ATOM      9  C   UNL     1       6.751   2.204  -0.136  0.00  0.00    +0.002 A 
ATOM     10  C   UNL     1       7.411   0.981  -0.238  0.00  0.00    +0.001 A 
ATOM     11  C   UNL     1       6.678  -0.204  -0.222  0.00  0.00    +0.015 A 
ATOM     12  N   UNL     1       3.221   1.134   0.066  0.00  0.00    -0.233 NA
ENDROOT
BRANCH   3  13
ATOM     13  C   UNL     1       2.313  -2.444   0.045  0.00  0.00    +0.069 A 
ATOM     14  C   UNL     1       1.357  -2.807  -0.920  0.00  0.00    +0.065 A 
ATOM     15 CL   UNL     1       1.034  -1.852  -2.324  0.00  0.00    -0.081 Cl
ATOM     16  C   UNL     1       0.707  -4.049  -0.846  0.00  0.00    +0.022 A 
ATOM     17  C   UNL     1       1.027  -4.960   0.162  0.00  0.00    +0.002 A 
ATOM     18  C   UNL     1       1.989  -4.628   1.107  0.00  0.00    +0.002 A 
ATOM     19  C   UNL     1       2.619  -3.380   1.052  0.00  0.00    +0.028 A 
ENDBRANCH   3  13
TORSDOF 1
