REMARK  Name = 
REMARK  17 active torsions:
REMARK  status: ('A' for Active; 'I' for Inactive)
REMARK    1  A    between atoms: C_1  and  C_2
REMARK    2  A    between atoms: C_2  and  C_4
REMARK    3  A    between atoms: C_2  and  O_15
REMARK    4  A    between atoms: C_4  and  N_5
REMARK    5  A    between atoms: C_9  and  N_14
REMARK    6  A    between atoms: O_15  and  C_16
REMARK    7  A    between atoms: C_16  and  P_17
REMARK    8  A    between atoms: P_17  and  N_19
REMARK    9  A    between atoms: P_17  and  O_29
REMARK   10  A    between atoms: N_19  and  C_20
REMARK   11  A    between atoms: C_20  and  C_22
REMARK   12  A    between atoms: C_20  and  C_23
REMARK   13  A    between atoms: C_23  and  O_25
REMARK   14  A    between atoms: O_25  and  C_26
REMARK   15  A    between atoms: C_26  and  C_27
REMARK   16  A    between atoms: C_26  and  C_28
REMARK   17  A    between atoms: O_29  and  C_30
REMARK                            x       y       z     vdW  Elec       q    Type
REMARK                         _______ _______ _______ _____ _____    ______ ____
ROOT
ATOM      1  P   UNL     1       5.031   2.535   1.569  0.00  0.00    +0.345 P 
ATOM      2  O   UNL     1       4.515   1.280   0.824  0.00  0.00    -0.257 OA
ENDROOT
BRANCH   1   3
ATOM      3  N   UNL     1       3.656   2.553   2.613  0.00  0.00    -0.221 NA
ATOM      4  H   UNL     1       2.830   2.792   2.071  0.00  0.00    +0.133 HD
BRANCH   3   5
ATOM      5  C   UNL     1       3.336   1.272   3.317  0.00  0.00    +0.169 C 
ATOM      6  C   UNL     1       4.391   0.906   4.354  0.00  0.00    +0.036 C 
BRANCH   5   7
ATOM      7  C   UNL     1       1.972   1.369   4.018  0.00  0.00    +0.325 C 
ATOM      8  O   UNL     1       1.387   2.410   4.280  0.00  0.00    -0.249 OA
BRANCH   7   9
ATOM      9  O   UNL     1       1.494   0.115   4.298  0.00  0.00    -0.461 OA
BRANCH   9  10
ATOM     10  C   UNL     1       0.255   0.047   5.032  0.00  0.00    +0.170 C 
ATOM     11  C   UNL     1       0.126  -1.375   5.577  0.00  0.00    +0.052 C 
ATOM     12  C   UNL     1      -0.938   0.366   4.135  0.00  0.00    +0.052 C 
ENDBRANCH   9  10
ENDBRANCH   7   9
ENDBRANCH   5   7
ENDBRANCH   3   5
ENDBRANCH   1   3
BRANCH   1  13
ATOM     13  C   UNL     1       4.568   3.697   0.118  0.00  0.00    +0.286 C 
BRANCH  13  14
ATOM     14  O   UNL     1       5.802   3.890  -0.581  0.00  0.00    -0.363 OA
BRANCH  14  16
ATOM     15  C   UNL     1       6.958   4.490  -2.585  0.00  0.00    +0.040 C 
ATOM     16  C   UNL     1       5.674   4.667  -1.773  0.00  0.00    +0.136 C 
BRANCH  16  17
ATOM     17  C   UNL     1       5.356   6.140  -1.464  0.00  0.00    +0.156 C 
BRANCH  17  18
ATOM     18  N   UNL     1       6.279   6.773  -0.544  0.00  0.00    -0.312 N 
ATOM     19  C   UNL     1       7.301   7.613  -0.879  0.00  0.00    +0.165 A 
ATOM     20  C   UNL     1       7.905   7.933   0.326  0.00  0.00    +0.147 A 
ATOM     21  C   UNL     1       9.025   8.774   0.272  0.00  0.00    +0.147 A 
ATOM     22  N   UNL     1       9.395   9.274  -0.927  0.00  0.00    -0.219 NA
ATOM     23  C   UNL     1       8.697   8.893  -2.022  0.00  0.00    +0.225 A 
ATOM     24  N   UNL     1       7.234   7.364   1.383  0.00  0.00    -0.231 NA
ATOM     25  N   UNL     1       7.643   8.053  -2.103  0.00  0.00    -0.216 NA
ATOM     26  C   UNL     1       6.241   6.707   0.825  0.00  0.00    +0.201 A 
BRANCH  21  27
ATOM     27  N   UNL     1       9.741   9.141   1.404  0.00  0.00    -0.341 N 
ATOM     28  H   UNL     1      10.212  10.027   1.290  0.00  0.00    +0.144 HD
ATOM     29  H   UNL     1       9.226   8.983   2.264  0.00  0.00    +0.144 HD
ENDBRANCH  21  27
ENDBRANCH  17  18
ENDBRANCH  16  17
ENDBRANCH  14  16
ENDBRANCH  13  14
ENDBRANCH   1  13
BRANCH   1  30
ATOM     30  O   UNL     1       5.608   3.937   2.402  0.00  0.00    -0.431 OA
BRANCH  30  31
ATOM     31  C   UNL     1       6.741   3.807   3.159  0.00  0.00    +0.129 A 
ATOM     32  C   UNL     1       6.800   4.554   4.332  0.00  0.00    +0.046 A 
ATOM     33  C   UNL     1       7.903   4.433   5.176  0.00  0.00    +0.004 A 
ATOM     34  C   UNL     1       8.949   3.577   4.835  0.00  0.00    +0.000 A 
ATOM     35  C   UNL     1       8.907   2.867   3.634  0.00  0.00    +0.004 A 
ATOM     36  C   UNL     1       7.804   2.988   2.786  0.00  0.00    +0.046 A 
ENDBRANCH  30  31
ENDBRANCH   1  30
TORSDOF 13
