REMARK  Name = 
REMARK  17 active torsions:
REMARK  status: ('A' for Active; 'I' for Inactive)
REMARK    1  A    between atoms: C_1  and  C_2
REMARK    2  A    between atoms: C_2  and  C_4
REMARK    3  A    between atoms: C_2  and  O_15
REMARK    4  A    between atoms: C_4  and  N_5
REMARK    5  A    between atoms: C_9  and  N_14
REMARK    6  A    between atoms: O_15  and  C_16
REMARK    7  A    between atoms: C_16  and  P_17
REMARK    8  A    between atoms: P_17  and  N_19
REMARK    9  A    between atoms: P_17  and  O_29
REMARK   10  A    between atoms: N_19  and  C_20
REMARK   11  A    between atoms: C_20  and  C_22
REMARK   12  A    between atoms: C_20  and  C_23
REMARK   13  A    between atoms: C_23  and  O_25
REMARK   14  A    between atoms: O_25  and  C_26
REMARK   15  A    between atoms: C_26  and  C_27
REMARK   16  A    between atoms: C_26  and  C_28
REMARK   17  A    between atoms: O_29  and  C_30
REMARK                            x       y       z     vdW  Elec       q    Type
REMARK                         _______ _______ _______ _____ _____    ______ ____
ROOT
ATOM      1  P   UNL     1       4.969  -1.918   2.359  0.00  0.00    +0.345 P 
ATOM      2  O   UNL     1       5.696  -2.742   1.283  0.00  0.00    -0.257 OA
ENDROOT
BRANCH   1   3
ATOM      3  N   UNL     1       5.945  -0.599   2.780  0.00  0.00    -0.221 NA
ATOM      4  H   UNL     1       6.559  -0.399   1.984  0.00  0.00    +0.133 HD
BRANCH   3   5
ATOM      5  C   UNL     1       5.705   0.653   3.486  0.00  0.00    +0.169 C 
ATOM      6  C   UNL     1       7.062   1.299   3.826  0.00  0.00    +0.036 C 
BRANCH   5   7
ATOM      7  C   UNL     1       5.025   1.697   2.611  0.00  0.00    +0.325 C 
ATOM      8  O   UNL     1       5.522   2.202   1.605  0.00  0.00    -0.249 OA
BRANCH   7   9
ATOM      9  O   UNL     1       3.836   2.043   3.146  0.00  0.00    -0.461 OA
BRANCH   9  10
ATOM     10  C   UNL     1       3.333   3.320   2.741  0.00  0.00    +0.170 C 
ATOM     11  C   UNL     1       2.412   3.753   3.871  0.00  0.00    +0.052 C 
ATOM     12  C   UNL     1       2.599   3.234   1.410  0.00  0.00    +0.052 C 
ENDBRANCH   9  10
ENDBRANCH   7   9
ENDBRANCH   5   7
ENDBRANCH   3   5
ENDBRANCH   1   3
BRANCH   1  13
ATOM     13  C   UNL     1       4.359  -0.795   1.049  0.00  0.00    +0.286 C 
BRANCH  13  14
ATOM     14  O   UNL     1       3.956  -1.505  -0.153  0.00  0.00    -0.363 OA
BRANCH  14  16
ATOM     15  C   UNL     1       2.929  -3.322  -1.318  0.00  0.00    +0.040 C 
ATOM     16  C   UNL     1       2.991  -2.541  -0.008  0.00  0.00    +0.136 C 
BRANCH  16  17
ATOM     17  C   UNL     1       1.634  -1.998   0.420  0.00  0.00    +0.156 C 
BRANCH  17  18
ATOM     18  N   UNL     1       1.041  -0.944  -0.376  0.00  0.00    -0.312 N 
ATOM     19  C   UNL     1      -0.277  -0.590  -0.261  0.00  0.00    +0.165 A 
ATOM     20  C   UNL     1      -0.389   0.605  -0.948  0.00  0.00    +0.147 A 
ATOM     21  C   UNL     1      -1.639   1.230  -0.908  0.00  0.00    +0.147 A 
ATOM     22  N   UNL     1      -2.659   0.601  -0.273  0.00  0.00    -0.219 NA
ATOM     23  C   UNL     1      -2.402  -0.576   0.338  0.00  0.00    +0.225 A 
ATOM     24  N   UNL     1       0.809   0.950  -1.530  0.00  0.00    -0.231 NA
ATOM     25  N   UNL     1      -1.233  -1.238   0.420  0.00  0.00    -0.216 NA
ATOM     26  C   UNL     1       1.645  -0.008  -1.182  0.00  0.00    +0.201 A 
BRANCH  21  27
ATOM     27  N   UNL     1      -1.880   2.469  -1.485  0.00  0.00    -0.341 N 
ATOM     28  H   UNL     1      -2.857   2.606  -1.710  0.00  0.00    +0.144 HD
ATOM     29  H   UNL     1      -1.196   2.723  -2.182  0.00  0.00    +0.144 HD
ENDBRANCH  21  27
ENDBRANCH  17  18
ENDBRANCH  16  17
ENDBRANCH  14  16
ENDBRANCH  13  14
ENDBRANCH   1  13
BRANCH   1  30
ATOM     30  O   UNL     1       5.545  -2.980   3.597  0.00  0.00    -0.431 OA
BRANCH  30  31
ATOM     31  C   UNL     1       6.945  -3.194   3.764  0.00  0.00    +0.129 A 
ATOM     32  C   UNL     1       7.367  -4.405   4.301  0.00  0.00    +0.046 A 
ATOM     33  C   UNL     1       8.747  -4.685   4.456  0.00  0.00    +0.004 A 
ATOM     34  C   UNL     1       9.733  -3.758   4.102  0.00  0.00    +0.000 A 
ATOM     35  C   UNL     1       9.342  -2.547   3.596  0.00  0.00    +0.004 A 
ATOM     36  C   UNL     1       7.975  -2.290   3.439  0.00  0.00    +0.046 A 
ENDBRANCH  30  31
ENDBRANCH   1  30
TORSDOF 13
