REMARK  Name = 
REMARK  17 active torsions:
REMARK  status: ('A' for Active; 'I' for Inactive)
REMARK    1  A    between atoms: C_1  and  C_2
REMARK    2  A    between atoms: C_2  and  C_4
REMARK    3  A    between atoms: C_2  and  O_15
REMARK    4  A    between atoms: C_4  and  N_5
REMARK    5  A    between atoms: C_9  and  N_14
REMARK    6  A    between atoms: O_15  and  C_16
REMARK    7  A    between atoms: C_16  and  P_17
REMARK    8  A    between atoms: P_17  and  N_19
REMARK    9  A    between atoms: P_17  and  O_29
REMARK   10  A    between atoms: N_19  and  C_20
REMARK   11  A    between atoms: C_20  and  C_22
REMARK   12  A    between atoms: C_20  and  C_23
REMARK   13  A    between atoms: C_23  and  O_25
REMARK   14  A    between atoms: O_25  and  C_26
REMARK   15  A    between atoms: C_26  and  C_27
REMARK   16  A    between atoms: C_26  and  C_28
REMARK   17  A    between atoms: O_29  and  C_30
REMARK                            x       y       z     vdW  Elec       q    Type
REMARK                         _______ _______ _______ _____ _____    ______ ____
ROOT
ATOM      1  P   UNL     1       5.137   2.265  -2.185  0.00  0.00    +0.345 P 
ATOM      2  O   UNL     1       5.297   0.799  -2.491  0.00  0.00    -0.257 OA
ENDROOT
BRANCH   1   3
ATOM      3  N   UNL     1       6.011   2.785  -0.898  0.00  0.00    -0.221 NA
ATOM      4  H   UNL     1       5.517   3.427  -0.278  0.00  0.00    +0.133 HD
BRANCH   3   5
ATOM      5  C   UNL     1       6.821   1.842  -0.104  0.00  0.00    +0.169 C 
ATOM      6  C   UNL     1       7.958   1.245  -0.937  0.00  0.00    +0.036 C 
BRANCH   5   7
ATOM      7  C   UNL     1       7.421   2.575   1.111  0.00  0.00    +0.325 C 
ATOM      8  O   UNL     1       7.181   3.740   1.408  0.00  0.00    -0.249 OA
BRANCH   7   9
ATOM      9  O   UNL     1       8.216   1.734   1.838  0.00  0.00    -0.461 OA
BRANCH   9  10
ATOM     10  C   UNL     1       8.898   2.312   2.969  0.00  0.00    +0.170 C 
ATOM     11  C   UNL     1      10.077   1.402   3.304  0.00  0.00    +0.052 C 
ATOM     12  C   UNL     1       7.950   2.408   4.159  0.00  0.00    +0.052 C 
ENDBRANCH   9  10
ENDBRANCH   7   9
ENDBRANCH   5   7
ENDBRANCH   3   5
ENDBRANCH   1   3
BRANCH   1  13
ATOM     13  C   UNL     1       3.380   2.654  -1.937  0.00  0.00    +0.286 C 
BRANCH  13  14
ATOM     14  O   UNL     1       3.203   4.009  -1.496  0.00  0.00    -0.363 OA
BRANCH  14  16
ATOM     15  C   UNL     1       1.729   5.911  -1.368  0.00  0.00    +0.040 C 
ATOM     16  C   UNL     1       1.819   4.390  -1.454  0.00  0.00    +0.136 C 
BRANCH  16  17
ATOM     17  C   UNL     1       1.029   3.699  -0.329  0.00  0.00    +0.156 C 
BRANCH  17  18
ATOM     18  N   UNL     1       1.526   3.885   1.018  0.00  0.00    -0.312 N 
ATOM     19  C   UNL     1       2.227   2.959   1.747  0.00  0.00    +0.165 A 
ATOM     20  C   UNL     1       2.096   3.374   3.063  0.00  0.00    +0.147 A 
ATOM     21  C   UNL     1       2.597   2.507   4.049  0.00  0.00    +0.147 A 
ATOM     22  N   UNL     1       3.240   1.383   3.657  0.00  0.00    -0.219 NA
ATOM     23  C   UNL     1       3.325   1.124   2.335  0.00  0.00    +0.225 A 
ATOM     24  N   UNL     1       1.434   4.584   3.132  0.00  0.00    -0.231 NA
ATOM     25  N   UNL     1       2.831   1.842   1.306  0.00  0.00    -0.216 NA
ATOM     26  C   UNL     1       1.116   4.864   1.886  0.00  0.00    +0.201 A 
BRANCH  21  27
ATOM     27  N   UNL     1       2.435   2.726   5.409  0.00  0.00    -0.341 N 
ATOM     28  H   UNL     1       3.085   2.200   5.975  0.00  0.00    +0.144 HD
ATOM     29  H   UNL     1       2.247   3.691   5.653  0.00  0.00    +0.144 HD
ENDBRANCH  21  27
ENDBRANCH  17  18
ENDBRANCH  16  17
ENDBRANCH  14  16
ENDBRANCH  13  14
ENDBRANCH   1  13
BRANCH   1  30
ATOM     30  O   UNL     1       5.562   3.238  -3.405  0.00  0.00    -0.431 OA
BRANCH  30  31
ATOM     31  C   UNL     1       5.127   3.134  -4.695  0.00  0.00    +0.129 A 
ATOM     32  C   UNL     1       4.659   1.954  -5.268  0.00  0.00    +0.046 A 
ATOM     33  C   UNL     1       4.263   1.936  -6.608  0.00  0.00    +0.004 A 
ATOM     34  C   UNL     1       4.339   3.093  -7.373  0.00  0.00    +0.000 A 
ATOM     35  C   UNL     1       4.814   4.275  -6.808  0.00  0.00    +0.004 A 
ATOM     36  C   UNL     1       5.211   4.293  -5.469  0.00  0.00    +0.046 A 
ENDBRANCH  30  31
ENDBRANCH   1  30
TORSDOF 13
