REMARK  Name = 
REMARK  17 active torsions:
REMARK  status: ('A' for Active; 'I' for Inactive)
REMARK    1  A    between atoms: C_1  and  C_2
REMARK    2  A    between atoms: C_2  and  C_4
REMARK    3  A    between atoms: C_2  and  O_15
REMARK    4  A    between atoms: C_4  and  N_5
REMARK    5  A    between atoms: C_9  and  N_14
REMARK    6  A    between atoms: O_15  and  C_16
REMARK    7  A    between atoms: C_16  and  P_17
REMARK    8  A    between atoms: P_17  and  N_19
REMARK    9  A    between atoms: P_17  and  O_29
REMARK   10  A    between atoms: N_19  and  C_20
REMARK   11  A    between atoms: C_20  and  C_22
REMARK   12  A    between atoms: C_20  and  C_23
REMARK   13  A    between atoms: C_23  and  O_25
REMARK   14  A    between atoms: O_25  and  C_26
REMARK   15  A    between atoms: C_26  and  C_27
REMARK   16  A    between atoms: C_26  and  C_28
REMARK   17  A    between atoms: O_29  and  C_30
REMARK                            x       y       z     vdW  Elec       q    Type
REMARK                         _______ _______ _______ _____ _____    ______ ____
ROOT
ATOM      1  P   UNL     1       5.020   2.211  -2.080  0.00  0.00    +0.345 P 
ATOM      2  O   UNL     1       5.813   1.073  -2.748  0.00  0.00    -0.257 OA
ENDROOT
BRANCH   1   3
ATOM      3  N   UNL     1       3.425   2.184  -2.682  0.00  0.00    -0.221 NA
ATOM      4  H   UNL     1       3.128   1.266  -3.006  0.00  0.00    +0.133 HD
BRANCH   3   5
ATOM      5  C   UNL     1       2.261   3.041  -2.423  0.00  0.00    +0.169 C 
ATOM      6  C   UNL     1       2.578   4.523  -2.616  0.00  0.00    +0.036 C 
BRANCH   5   7
ATOM      7  C   UNL     1       1.043   2.696  -3.371  0.00  0.00    +0.325 C 
ATOM      8  O   UNL     1      -0.022   3.305  -3.334  0.00  0.00    -0.249 OA
BRANCH   7   9
ATOM      9  O   UNL     1       1.279   1.656  -4.237  0.00  0.00    -0.461 OA
BRANCH   9  10
ATOM     10  C   UNL     1       0.208   1.269  -5.147  0.00  0.00    +0.170 C 
ATOM     11  C   UNL     1       0.479  -0.165  -5.606  0.00  0.00    +0.052 C 
ATOM     12  C   UNL     1       0.128   2.160  -6.390  0.00  0.00    +0.052 C 
ENDBRANCH   9  10
ENDBRANCH   7   9
ENDBRANCH   5   7
ENDBRANCH   3   5
ENDBRANCH   1   3
BRANCH   1  13
ATOM     13  C   UNL     1       4.410   0.992  -0.859  0.00  0.00    +0.286 C 
BRANCH  13  14
ATOM     14  O   UNL     1       3.819   1.475   0.346  0.00  0.00    -0.363 OA
BRANCH  14  16
ATOM     15  C   UNL     1       2.579   0.912   2.332  0.00  0.00    +0.040 C 
ATOM     16  C   UNL     1       3.385   0.354   1.168  0.00  0.00    +0.136 C 
BRANCH  16  17
ATOM     17  C   UNL     1       4.518  -0.606   1.635  0.00  0.00    +0.156 C 
BRANCH  17  18
ATOM     18  N   UNL     1       5.613   0.053   2.309  0.00  0.00    -0.312 N 
ATOM     19  C   UNL     1       5.653   0.393   3.630  0.00  0.00    +0.165 A 
ATOM     20  C   UNL     1       6.742   1.243   3.731  0.00  0.00    +0.147 A 
ATOM     21  C   UNL     1       6.916   1.894   4.967  0.00  0.00    +0.147 A 
ATOM     22  N   UNL     1       6.092   1.573   5.986  0.00  0.00    -0.219 NA
ATOM     23  C   UNL     1       5.102   0.681   5.751  0.00  0.00    +0.225 A 
ATOM     24  N   UNL     1       7.445   1.289   2.546  0.00  0.00    -0.231 NA
ATOM     25  N   UNL     1       4.786   0.056   4.598  0.00  0.00    -0.216 NA
ATOM     26  C   UNL     1       6.769   0.507   1.731  0.00  0.00    +0.201 A 
BRANCH  21  27
ATOM     27  N   UNL     1       7.885   2.864   5.162  0.00  0.00    -0.341 N 
ATOM     28  H   UNL     1       8.102   3.021   6.135  0.00  0.00    +0.144 HD
ATOM     29  H   UNL     1       8.639   2.851   4.485  0.00  0.00    +0.144 HD
ENDBRANCH  21  27
ENDBRANCH  17  18
ENDBRANCH  16  17
ENDBRANCH  14  16
ENDBRANCH  13  14
ENDBRANCH   1  13
BRANCH   1  30
ATOM     30  O   UNL     1       5.596   3.363  -3.235  0.00  0.00    -0.431 OA
BRANCH  30  31
ATOM     31  C   UNL     1       5.249   3.495  -4.581  0.00  0.00    +0.129 A 
ATOM     32  C   UNL     1       6.104   4.252  -5.395  0.00  0.00    +0.046 A 
ATOM     33  C   UNL     1       5.722   4.650  -6.694  0.00  0.00    +0.004 A 
ATOM     34  C   UNL     1       4.446   4.379  -7.176  0.00  0.00    +0.000 A 
ATOM     35  C   UNL     1       3.619   3.592  -6.412  0.00  0.00    +0.004 A 
ATOM     36  C   UNL     1       4.069   3.085  -5.199  0.00  0.00    +0.046 A 
ENDBRANCH  30  31
ENDBRANCH   1  30
TORSDOF 13
