REMARK  Name = 
REMARK  6 active torsions:
REMARK  status: ('A' for Active; 'I' for Inactive)
REMARK    1  A    between atoms: C6_3  and  N6_23
REMARK    2  A    between atoms: N9_7  and  C1*_10
REMARK    3  A    between atoms: C2*_12  and  O2*_22
REMARK    4  A    between atoms: C3*_14  and  O3*_21
REMARK    5  A    between atoms: C4*_16  and  C5*_19
REMARK    6  A    between atoms: C5*_19  and  O5*_20
REMARK                            x       y       z     vdW  Elec       q    Type
REMARK                         _______ _______ _______ _____ _____    ______ ____
ROOT
ATOM      1  C2    A A   1       2.277   1.402  -4.317  0.00  0.00    +0.225 A 
ATOM      2  N3    A A   1       2.004   1.715  -3.030  0.00  0.00    -0.216 NA
ATOM      3  C4    A A   1       3.127   2.072  -2.383  0.00  0.00    +0.167 A 
ATOM      4  N9    A A   1       3.252   2.490  -1.083  0.00  0.00    -0.286 N 
ATOM      5  C8    A A   1       4.582   2.699  -0.846  0.00  0.00    +0.203 A 
ATOM      6  N7    A A   1       5.312   2.514  -1.927  0.00  0.00    -0.231 NA
ATOM      7  C5    A A   1       4.407   2.143  -2.901  0.00  0.00    +0.147 A 
ATOM      8  C6    A A   1       4.556   1.848  -4.267  0.00  0.00    +0.147 A 
ATOM      9  N1    A A   1       3.465   1.450  -4.960  0.00  0.00    -0.219 NA
ENDROOT
BRANCH   4  10
ATOM     10  C1*   A A   1       2.135   2.706  -0.179  0.00  0.00    +0.253 C 
ATOM     11  O4*   A A   1       2.609   3.008   1.151  0.00  0.00    -0.346 OA
ATOM     12  C4*   A A   1       2.476   4.433   1.378  0.00  0.00    +0.177 C 
ATOM     13  C3*   A A   1       1.810   5.048   0.143  0.00  0.00    +0.178 C 
ATOM     14  C2*   A A   1       1.224   3.861  -0.604  0.00  0.00    +0.195 C 
BRANCH  13  15
ATOM     15  O3*   A A   1       2.827   5.657  -0.663  0.00  0.00    -0.386 OA
ATOM     16  H3*   A A   1       2.384   6.174  -1.361  0.00  0.00    +0.210 HD
ENDBRANCH  13  15
BRANCH  14  17
ATOM     17  O2*   A A   1      -0.123   3.627  -0.181  0.00  0.00    -0.385 OA
ATOM     18  H2*   A A   1      -0.483   2.905  -0.729  0.00  0.00    +0.210 HD
ENDBRANCH  14  17
BRANCH  12  19
ATOM     19  C5*   A A   1       1.708   4.673   2.683  0.00  0.00    +0.190 C 
BRANCH  19  20
ATOM     20  O5*   A A   1       0.381   4.167   2.643  0.00  0.00    -0.392 OA
ATOM     21  H5*   A A   1       0.435   3.243   2.338  0.00  0.00    +0.210 HD
ENDBRANCH  19  20
ENDBRANCH  12  19
ENDBRANCH   4  10
BRANCH   8  22
ATOM     22  N6    A A   1       5.768   1.948  -4.934  0.00  0.00    -0.341 N 
ATOM     23  H61   A A   1       6.572   1.954  -4.318  0.00  0.00    +0.144 HD
ATOM     24  H62   A A   1       5.808   1.382  -5.769  0.00  0.00    +0.144 HD
ENDBRANCH   8  22
TORSDOF 6
