REMARK  Name = 
REMARK  6 active torsions:
REMARK  status: ('A' for Active; 'I' for Inactive)
REMARK    1  A    between atoms: C6_3  and  N6_23
REMARK    2  A    between atoms: N9_7  and  C1*_10
REMARK    3  A    between atoms: C2*_12  and  O2*_22
REMARK    4  A    between atoms: C3*_14  and  O3*_21
REMARK    5  A    between atoms: C4*_16  and  C5*_19
REMARK    6  A    between atoms: C5*_19  and  O5*_20
REMARK                            x       y       z     vdW  Elec       q    Type
REMARK                         _______ _______ _______ _____ _____    ______ ____
ROOT
ATOM      1  C2    A A   1       2.325   1.484  -4.372  0.00  0.00    +0.225 A 
ATOM      2  N3    A A   1       2.026   1.775  -3.086  0.00  0.00    -0.216 NA
ATOM      3  C4    A A   1       3.142   2.102  -2.408  0.00  0.00    +0.167 A 
ATOM      4  N9    A A   1       3.249   2.487  -1.095  0.00  0.00    -0.286 N 
ATOM      5  C8    A A   1       4.582   2.655  -0.828  0.00  0.00    +0.203 A 
ATOM      6  N7    A A   1       5.328   2.494  -1.901  0.00  0.00    -0.231 NA
ATOM      7  C5    A A   1       4.435   2.168  -2.900  0.00  0.00    +0.147 A 
ATOM      8  C6    A A   1       4.605   1.904  -4.267  0.00  0.00    +0.147 A 
ATOM      9  N1    A A   1       3.525   1.533  -4.993  0.00  0.00    -0.219 NA
ENDROOT
BRANCH   4  10
ATOM     10  C1*   A A   1       2.131   2.707  -0.197  0.00  0.00    +0.253 C 
ATOM     11  O4*   A A   1       2.626   3.014   1.125  0.00  0.00    -0.346 OA
ATOM     12  C4*   A A   1       2.519   4.442   1.336  0.00  0.00    +0.177 C 
ATOM     13  C3*   A A   1       1.874   5.063   0.093  0.00  0.00    +0.178 C 
ATOM     14  C2*   A A   1       1.229   3.879  -0.608  0.00  0.00    +0.195 C 
BRANCH  13  15
ATOM     15  O3*   A A   1       2.896   5.622  -0.735  0.00  0.00    -0.386 OA
ATOM     16  H3*   A A   1       2.461   6.141  -1.436  0.00  0.00    +0.210 HD
ENDBRANCH  13  15
BRANCH  14  17
ATOM     17  O2*   A A   1      -0.105   3.719  -0.109  0.00  0.00    -0.385 OA
ATOM     18  H2*   A A   1      -0.501   2.956  -0.572  0.00  0.00    +0.210 HD
ENDBRANCH  14  17
BRANCH  12  19
ATOM     19  C5*   A A   1       1.708   4.714   2.609  0.00  0.00    +0.190 C 
BRANCH  19  20
ATOM     20  O5*   A A   1       2.315   4.145   3.770  0.00  0.00    -0.392 OA
ATOM     21  H5*   A A   1       3.253   3.973   3.575  0.00  0.00    +0.210 HD
ENDBRANCH  19  20
ENDBRANCH  12  19
ENDBRANCH   4  10
BRANCH   8  22
ATOM     22  N6    A A   1       5.832   2.009  -4.907  0.00  0.00    -0.341 N 
ATOM     23  H61   A A   1       6.622   1.993  -4.271  0.00  0.00    +0.144 HD
ATOM     24  H62   A A   1       5.887   1.456  -5.751  0.00  0.00    +0.144 HD
ENDBRANCH   8  22
TORSDOF 6
