REMARK  Name = 
REMARK  6 active torsions:
REMARK  status: ('A' for Active; 'I' for Inactive)
REMARK    1  A    between atoms: C_3  and  C_19
REMARK    2  A    between atoms: N_5  and  C1*_6
REMARK    3  A    between atoms: C2*_8  and  O2*_18
REMARK    4  A    between atoms: C3*_10  and  O3*_17
REMARK    5  A    between atoms: C4*_12  and  C5*_15
REMARK    6  A    between atoms: C5*_15  and  O5*_16
REMARK                            x       y       z     vdW  Elec       q    Type
REMARK                         _______ _______ _______ _____ _____    ______ ____
ROOT
ATOM      1  C1* UNL     1      -0.869  -2.494  -0.037  0.00  0.00    +0.270 C 
ATOM      2  O4* UNL     1      -1.286  -2.902   1.289  0.00  0.00    -0.344 OA
ATOM      3  C4* UNL     1      -1.104  -4.339   1.369  0.00  0.00    +0.177 C 
ATOM      4  C3* UNL     1      -0.695  -4.816  -0.029  0.00  0.00    +0.178 C 
ATOM      5  C2* UNL     1       0.045  -3.601  -0.568  0.00  0.00    +0.196 C 
ENDROOT
BRANCH   1   7
ATOM      6  C   UNL     1      -1.017  -0.057   0.486  0.00  0.00    +0.223 A 
ATOM      7  N   UNL     1      -0.343  -1.150   0.031  0.00  0.00    -0.220 N 
ATOM      8  N   UNL     1       0.874  -0.810  -0.441  0.00  0.00    -0.142 NA
ATOM      9  C   UNL     1       0.889   0.524  -0.235  0.00  0.00    +0.236 A 
ATOM     10  N   UNL     1      -0.282   1.016   0.330  0.00  0.00    -0.211 NA
BRANCH   9  11
ATOM     11  C   UNL     1       2.016   1.417  -0.565  0.00  0.00    +0.281 C 
ATOM     12  N   UNL     1       1.772   2.741  -0.294  0.00  0.00    -0.323 N 
ATOM     13  H   UNL     1       2.488   3.426  -0.478  0.00  0.00    +0.145 HD
ATOM     14  H   UNL     1       0.881   3.015   0.106  0.00  0.00    +0.145 HD
ATOM     15  O   UNL     1       3.090   1.057  -1.042  0.00  0.00    -0.267 OA
ENDBRANCH   9  11
ENDBRANCH   1   7
BRANCH   4  16
ATOM     16  O3* UNL     1       0.128  -5.974   0.012  0.00  0.00    -0.386 OA
ATOM     17  H3* UNL     1       1.038  -5.644   0.172  0.00  0.00    +0.210 HD
ENDBRANCH   4  16
BRANCH   5  18
ATOM     18  O2* UNL     1       1.366  -3.611   0.003  0.00  0.00    -0.385 OA
ATOM     19  H2* UNL     1       1.759  -2.734  -0.207  0.00  0.00    +0.210 HD
ENDBRANCH   5  18
BRANCH   3  20
ATOM     20  C5* UNL     1      -2.413  -4.956   1.855  0.00  0.00    +0.190 C 
BRANCH  20  21
ATOM     21  O5* UNL     1      -3.491  -4.538   1.013  0.00  0.00    -0.392 OA
ATOM     22  H5* UNL     1      -3.588  -3.580   1.164  0.00  0.00    +0.210 HD
ENDBRANCH  20  21
ENDBRANCH   3  20
TORSDOF 6
