REMARK  Name = 
REMARK  11 active torsions:
REMARK  status: ('A' for Active; 'I' for Inactive)
REMARK    1  A    between atoms: C_1  and  C_2
REMARK    2  A    between atoms: N_4  and  C_10
REMARK    3  A    between atoms: C_13  and  N_20
REMARK    4  A    between atoms: C_15  and  C_18
REMARK    5  A    between atoms: C_18  and  O_19
REMARK    6  A    between atoms: C_25  and  C_26
REMARK    7  A    between atoms: C_27  and  C_28
REMARK    8  A    between atoms: C_28  and  C_40
REMARK    9  A    between atoms: C_45  and  N_53
REMARK   10  A    between atoms: C_48  and  C_51
REMARK   11  A    between atoms: C_51  and  O_52
REMARK                            x       y       z     vdW  Elec       q    Type
REMARK                         _______ _______ _______ _____ _____    ______ ____
ROOT
ATOM      1  C   UNL     1       6.130   2.727  -0.112  0.00  0.00    +0.226 C 
ATOM      2  O   UNL     1       5.204   3.848   0.000  0.00  0.00    -0.349 OA
ATOM      3  C   UNL     1       5.508   4.818  -1.030  0.00  0.00    +0.177 C 
ATOM      4  C   UNL     1       6.853   4.390  -1.611  0.00  0.00    +0.226 C 
ATOM      5  C   UNL     1       6.803   2.892  -1.478  0.00  0.00    +0.091 C 
ENDROOT
BRANCH   1  14
ATOM      6  C   UNL     1       2.699   0.773  -2.346  0.00  0.00    +0.051 C 
ATOM      7  C   UNL     1       3.704   0.454  -1.312  0.00  0.00    +0.030 A 
ATOM      8  C   UNL     1       4.350  -0.857  -1.140  0.00  0.00    +0.257 A 
ATOM      9  O   UNL     1       3.952  -1.868  -1.707  0.00  0.00    -0.267 OA
ATOM     10  N   UNL     1       5.441  -0.861  -0.317  0.00  0.00    -0.275 N 
ATOM     11  H   UNL     1       5.955  -1.727  -0.292  0.00  0.00    +0.173 HD
ATOM     12  C   UNL     1       6.145   0.275   0.005  0.00  0.00    +0.331 A 
ATOM     13  O   UNL     1       7.348   0.202   0.246  0.00  0.00    -0.246 OA
ATOM     14  N   UNL     1       5.413   1.458  -0.062  0.00  0.00    -0.274 N 
ATOM     15  C   UNL     1       4.153   1.475  -0.593  0.00  0.00    +0.101 A 
ENDBRANCH   1  14
BRANCH   4  16
ATOM     16  N   UNL     1       7.952   4.846  -0.757  0.00  0.00    +0.082 NA
ATOM     17  N   UNL     1       8.529   5.901  -1.103  0.00  0.00    -0.014 NA
ATOM     18  N   UNL     1       9.012   6.858  -1.469  0.00  0.00    -0.328 NA
ENDBRANCH   4  16
BRANCH   3  19
ATOM     19  C   UNL     1       4.386   4.846  -2.093  0.00  0.00    +0.189 C 
BRANCH  19  20
ATOM     20  O   UNL     1       3.141   5.260  -1.533  0.00  0.00    -0.392 OA
ATOM     21  H   UNL     1       3.147   5.013  -0.589  0.00  0.00    +0.210 HD
ENDBRANCH  19  20
ENDBRANCH   3  19
TORSDOF 4
REMARK  Name = 
REMARK  11 active torsions:
REMARK  status: ('A' for Active; 'I' for Inactive)
REMARK    1  A    between atoms: C_1  and  C_2
REMARK    2  A    between atoms: N_4  and  C_10
REMARK    3  A    between atoms: C_13  and  N_20
REMARK    4  A    between atoms: C_15  and  C_18
REMARK    5  A    between atoms: C_18  and  O_19
REMARK    6  A    between atoms: C_25  and  C_26
REMARK    7  A    between atoms: C_27  and  C_28
REMARK    8  A    between atoms: C_28  and  C_40
REMARK    9  A    between atoms: C_45  and  N_53
REMARK   10  A    between atoms: C_48  and  C_51
REMARK   11  A    between atoms: C_51  and  O_52
REMARK                            x       y       z     vdW  Elec       q    Type
REMARK                         _______ _______ _______ _____ _____    ______ ____
ROOT
ATOM      1  C   UNL     1       2.990  -1.600   3.547  0.00  0.00    +0.296 C 
ATOM      2  O   UNL     1       3.875  -0.471   3.804  0.00  0.00    -0.417 OA
ATOM      3  C   UNL     1       5.134  -0.397   3.334  0.00  0.00    +0.407 C 
ATOM      4  O   UNL     1       5.744   0.665   3.292  0.00  0.00    -0.226 OA
ATOM      5  N   UNL     1       5.732  -1.564   2.968  0.00  0.00    -0.251 N 
ATOM      6  H   UNL     1       6.704  -1.463   2.701  0.00  0.00    +0.158 HD
ATOM      7  C   UNL     1       5.116  -2.804   2.963  0.00  0.00    +0.045 A 
ATOM      8  C   UNL     1       5.865  -3.947   2.674  0.00  0.00    +0.025 A 
ATOM      9  C   UNL     1       5.237  -5.193   2.626  0.00  0.00    +0.022 A 
ATOM     10  C   UNL     1       3.864  -5.280   2.834  0.00  0.00    +0.042 A 
ATOM     11 CL   UNL     1       3.083  -6.810   2.758  0.00  0.00    -0.084 Cl
ATOM     12  C   UNL     1       3.119  -4.133   3.111  0.00  0.00    +0.030 A 
ATOM     13  C   UNL     1       3.751  -2.878   3.218  0.00  0.00    +0.040 A 
ENDROOT
BRANCH   1  14
ATOM     14  C   UNL     1       2.121  -1.763   4.842  0.00  0.00    +0.446 C 
ATOM     15  F   UNL     1       2.481  -0.884   5.814  0.00  0.00    -0.165 F 
ATOM     16  F   UNL     1       2.228  -2.993   5.408  0.00  0.00    -0.165 F 
ATOM     17  F   UNL     1       0.806  -1.570   4.637  0.00  0.00    -0.165 F 
ENDBRANCH   1  14
BRANCH   1  19
ATOM     18  C   UNL     1       1.553  -0.831   1.241  0.00  0.00    -0.094 C 
ATOM     19  C   UNL     1       2.216  -1.186   2.306  0.00  0.00    -0.041 C 
BRANCH  18  21
ATOM     20  C   UNL     1       0.346   0.011  -1.041  0.00  0.00    +0.017 C 
ATOM     21  C   UNL     1       1.064  -1.015  -0.172  0.00  0.00    +0.064 C 
ATOM     22  C   UNL     1      -0.376  -1.209  -0.631  0.00  0.00    +0.017 C 
ENDBRANCH  18  21
ENDBRANCH   1  19
TORSDOF 3
REMARK  Name = 
REMARK  11 active torsions:
REMARK  status: ('A' for Active; 'I' for Inactive)
REMARK    1  A    between atoms: C_1  and  C_2
REMARK    2  A    between atoms: N_4  and  C_10
REMARK    3  A    between atoms: C_13  and  N_20
REMARK    4  A    between atoms: C_15  and  C_18
REMARK    5  A    between atoms: C_18  and  O_19
REMARK    6  A    between atoms: C_25  and  C_26
REMARK    7  A    between atoms: C_27  and  C_28
REMARK    8  A    between atoms: C_28  and  C_40
REMARK    9  A    between atoms: C_45  and  N_53
REMARK   10  A    between atoms: C_48  and  C_51
REMARK   11  A    between atoms: C_51  and  O_52
REMARK                            x       y       z     vdW  Elec       q    Type
REMARK                         _______ _______ _______ _____ _____    ______ ____
ROOT
ATOM      1  N   UNL     1      -3.552   1.281   2.756  0.00  0.00    -0.272 N 
ATOM      2  C   UNL     1      -4.807   0.780   3.099  0.00  0.00    +0.352 A 
ATOM      3  O   UNL     1      -5.224  -0.287   2.655  0.00  0.00    -0.244 OA
ATOM      4  N   UNL     1      -5.602   1.559   3.893  0.00  0.00    -0.178 NA
ATOM      5  C   UNL     1      -5.207   2.740   4.219  0.00  0.00    +0.123 A 
ATOM      6  N   UNL     1      -6.087   3.530   4.871  0.00  0.00    -0.343 N 
ATOM      7  H   UNL     1      -6.831   2.994   5.304  0.00  0.00    +0.144 HD
ATOM      8  H   UNL     1      -5.722   4.294   5.421  0.00  0.00    +0.144 HD
ATOM      9  C   UNL     1      -3.869   3.285   3.932  0.00  0.00    +0.061 A 
ATOM     10  C   UNL     1      -3.096   2.490   3.221  0.00  0.00    +0.096 A 
ENDROOT
BRANCH   1  15
ATOM     11  C   UNL     1      -2.590  -0.843   1.865  0.00  0.00    +0.126 C 
ATOM     12  S   UNL     1      -1.137  -0.734   2.885  0.00  0.00    -0.123 S 
ATOM     13  C   UNL     1      -0.591   0.788   2.073  0.00  0.00    +0.203 C 
ATOM     14  O   UNL     1      -1.674   1.403   1.381  0.00  0.00    -0.340 OA
ATOM     15  C   UNL     1      -2.878   0.645   1.643  0.00  0.00    +0.235 C 
BRANCH  13  16
ATOM     16  C   UNL     1       0.431   1.686   2.810  0.00  0.00    +0.198 C 
BRANCH  16  17
ATOM     17  O   UNL     1       1.257   2.423   1.885  0.00  0.00    -0.392 OA
ATOM     18  H   UNL     1       0.677   2.973   1.333  0.00  0.00    +0.210 HD
ENDBRANCH  16  17
ENDBRANCH  13  16
ENDBRANCH   1  15
TORSDOF 3
