REMARK  Name = 
REMARK  33 active torsions:
REMARK  status: ('A' for Active; 'I' for Inactive)
REMARK    1  A    between atoms: C_1  and  C_2
REMARK    2  A    between atoms: C_2  and  C_4
REMARK    3  A    between atoms: C_2  and  O_15
REMARK    4  A    between atoms: C_4  and  N_5
REMARK    5  A    between atoms: C_9  and  N_14
REMARK    6  A    between atoms: O_15  and  C_16
REMARK    7  A    between atoms: C_16  and  P_17
REMARK    8  A    between atoms: P_17  and  O_19
REMARK    9  A    between atoms: P_17  and  O_28
REMARK   10  A    between atoms: O_19  and  C_20
REMARK   11  A    between atoms: C_20  and  O_21
REMARK   12  A    between atoms: O_21  and  C_22
REMARK   13  A    between atoms: C_22  and  O_24
REMARK   14  A    between atoms: O_24  and  C_25
REMARK   15  A    between atoms: C_25  and  C_26
REMARK   16  A    between atoms: C_25  and  C_27
REMARK   17  A    between atoms: O_28  and  C_29
REMARK   18  A    between atoms: C_29  and  O_30
REMARK   19  A    between atoms: O_30  and  C_31
REMARK   20  A    between atoms: C_31  and  O_33
REMARK   21  A    between atoms: O_33  and  C_34
REMARK   22  A    between atoms: C_34  and  C_35
REMARK   23  A    between atoms: C_34  and  C_36
REMARK   24  A    between atoms: C_39  and  C_40
REMARK   25  A    between atoms: C_41  and  C_42
REMARK   26  A    between atoms: C_42  and  C_54
REMARK   27  A    between atoms: C_59  and  N_67
REMARK   28  A    between atoms: C_62  and  C_65
REMARK   29  A    between atoms: C_65  and  O_66
REMARK   30  A    between atoms: C_76  and  C_81
REMARK   31  A    between atoms: C_77  and  C_78
REMARK   32  A    between atoms: C_78  and  O_80
REMARK   33  A    between atoms: C_81  and  O_83
REMARK                            x       y       z     vdW  Elec       q    Type
REMARK                         _______ _______ _______ _____ _____    ______ ____
ROOT
ATOM      1  P   UNL     1       2.022   4.474  -6.738  0.00  0.00    +0.364 P 
ATOM      2  O   UNL     1       2.876   4.657  -5.468  0.00  0.00    -0.256 OA
ENDROOT
BRANCH   1   3
ATOM      3  O   UNL     1       1.808   2.818  -6.287  0.00  0.00    -0.268 OA
BRANCH   3   4
ATOM      4  C   UNL     1       0.825   1.980  -6.850  0.00  0.00    +0.410 C 
BRANCH   4   5
ATOM      5  O   UNL     1      -0.542   2.110  -6.460  0.00  0.00    -0.406 OA
BRANCH   5   6
ATOM      6  C   UNL     1      -0.890   2.226  -5.169  0.00  0.00    +0.512 C 
ATOM      7  O   UNL     1      -0.140   2.308  -4.207  0.00  0.00    -0.203 OA
BRANCH   6   8
ATOM      8  O   UNL     1      -2.234   2.439  -5.140  0.00  0.00    -0.431 OA
BRANCH   8   9
ATOM      9  C   UNL     1      -3.109   1.283  -5.148  0.00  0.00    +0.174 C 
ATOM     10  C   UNL     1      -2.929   0.579  -3.867  0.00  0.00    +0.052 C 
ATOM     11  C   UNL     1      -2.848   0.193  -6.152  0.00  0.00    +0.052 C 
ENDBRANCH   8   9
ENDBRANCH   6   8
ENDBRANCH   5   6
ENDBRANCH   4   5
ENDBRANCH   3   4
ENDBRANCH   1   3
BRANCH   1  12
ATOM     12  O   UNL     1       0.534   4.848  -6.122  0.00  0.00    -0.268 OA
BRANCH  12  13
ATOM     13  C   UNL     1      -0.723   4.845  -6.746  0.00  0.00    +0.410 C 
BRANCH  13  14
ATOM     14  O   UNL     1      -0.886   5.857  -7.693  0.00  0.00    -0.406 OA
BRANCH  14  15
ATOM     15  C   UNL     1      -1.612   6.894  -7.249  0.00  0.00    +0.512 C 
ATOM     16  O   UNL     1      -2.136   7.035  -6.159  0.00  0.00    -0.203 OA
BRANCH  15  17
ATOM     17  O   UNL     1      -1.475   7.823  -8.202  0.00  0.00    -0.431 OA
BRANCH  17  18
ATOM     18  C   UNL     1      -1.279   9.138  -7.697  0.00  0.00    +0.174 C 
ATOM     19  C   UNL     1      -1.541  10.028  -8.889  0.00  0.00    +0.052 C 
ATOM     20  C   UNL     1       0.166   9.262  -7.216  0.00  0.00    +0.052 C 
ENDBRANCH  17  18
ENDBRANCH  15  17
ENDBRANCH  14  15
ENDBRANCH  13  14
ENDBRANCH  12  13
ENDBRANCH   1  12
BRANCH   1  21
ATOM     21  C   UNL     1       2.249   6.226  -7.215  0.00  0.00    +0.287 C 
BRANCH  21  22
ATOM     22  O   UNL     1       3.686   6.483  -7.102  0.00  0.00    -0.363 OA
BRANCH  22  24
ATOM     23  C   UNL     1       5.239   4.418  -6.874  0.00  0.00    +0.040 C 
ATOM     24  C   UNL     1       4.441   5.433  -7.747  0.00  0.00    +0.136 C 
BRANCH  24  25
ATOM     25  C   UNL     1       4.433   5.555  -9.263  0.00  0.00    +0.156 C 
BRANCH  25  26
ATOM     26  N   UNL     1       4.756   6.783  -9.918  0.00  0.00    -0.312 N 
ATOM     27  C   UNL     1       6.002   7.277 -10.137  0.00  0.00    +0.165 A 
ATOM     28  C   UNL     1       5.832   8.271 -11.092  0.00  0.00    +0.147 A 
ATOM     29  C   UNL     1       6.993   8.952 -11.499  0.00  0.00    +0.147 A 
ATOM     30  N   UNL     1       8.185   8.503 -11.041  0.00  0.00    -0.219 NA
ATOM     31  C   UNL     1       8.196   7.466 -10.175  0.00  0.00    +0.225 A 
ATOM     32  N   UNL     1       4.510   8.355 -11.482  0.00  0.00    -0.231 NA
ATOM     33  N   UNL     1       7.151   6.828  -9.615  0.00  0.00    -0.216 NA
ATOM     34  C   UNL     1       3.899   7.426 -10.782  0.00  0.00    +0.201 A 
BRANCH  29  35
ATOM     35  N   UNL     1       7.010  10.034 -12.370  0.00  0.00    -0.341 N 
ATOM     36  H   UNL     1       7.891  10.532 -12.346  0.00  0.00    +0.144 HD
ATOM     37  H   UNL     1       6.157  10.578 -12.405  0.00  0.00    +0.144 HD
ENDBRANCH  29  35
ENDBRANCH  25  26
ENDBRANCH  24  25
ENDBRANCH  22  24
ENDBRANCH  21  22
ENDBRANCH   1  21
TORSDOF 18
REMARK  Name = 
REMARK  33 active torsions:
REMARK  status: ('A' for Active; 'I' for Inactive)
REMARK    1  A    between atoms: C_1  and  C_2
REMARK    2  A    between atoms: C_2  and  C_4
REMARK    3  A    between atoms: C_2  and  O_15
REMARK    4  A    between atoms: C_4  and  N_5
REMARK    5  A    between atoms: C_9  and  N_14
REMARK    6  A    between atoms: O_15  and  C_16
REMARK    7  A    between atoms: C_16  and  P_17
REMARK    8  A    between atoms: P_17  and  O_19
REMARK    9  A    between atoms: P_17  and  O_28
REMARK   10  A    between atoms: O_19  and  C_20
REMARK   11  A    between atoms: C_20  and  O_21
REMARK   12  A    between atoms: O_21  and  C_22
REMARK   13  A    between atoms: C_22  and  O_24
REMARK   14  A    between atoms: O_24  and  C_25
REMARK   15  A    between atoms: C_25  and  C_26
REMARK   16  A    between atoms: C_25  and  C_27
REMARK   17  A    between atoms: O_28  and  C_29
REMARK   18  A    between atoms: C_29  and  O_30
REMARK   19  A    between atoms: O_30  and  C_31
REMARK   20  A    between atoms: C_31  and  O_33
REMARK   21  A    between atoms: O_33  and  C_34
REMARK   22  A    between atoms: C_34  and  C_35
REMARK   23  A    between atoms: C_34  and  C_36
REMARK   24  A    between atoms: C_39  and  C_40
REMARK   25  A    between atoms: C_41  and  C_42
REMARK   26  A    between atoms: C_42  and  C_54
REMARK   27  A    between atoms: C_59  and  N_67
REMARK   28  A    between atoms: C_62  and  C_65
REMARK   29  A    between atoms: C_65  and  O_66
REMARK   30  A    between atoms: C_76  and  C_81
REMARK   31  A    between atoms: C_77  and  C_78
REMARK   32  A    between atoms: C_78  and  O_80
REMARK   33  A    between atoms: C_81  and  O_83
REMARK                            x       y       z     vdW  Elec       q    Type
REMARK                         _______ _______ _______ _____ _____    ______ ____
ROOT
ATOM      1  C   UNL     1       2.990  -1.600   3.547  0.00  0.00    +0.296 C 
ATOM      2  O   UNL     1       3.941  -0.580   3.960  0.00  0.00    -0.417 OA
ATOM      3  C   UNL     1       5.231  -0.530   3.523  0.00  0.00    +0.407 C 
ATOM      4  O   UNL     1       5.908   0.494   3.572  0.00  0.00    -0.226 OA
ATOM      5  N   UNL     1       5.830  -1.688   3.119  0.00  0.00    -0.251 N 
ATOM      6  H   UNL     1       6.822  -1.604   2.933  0.00  0.00    +0.158 HD
ATOM      7  C   UNL     1       5.202  -2.904   2.989  0.00  0.00    +0.045 A 
ATOM      8  C   UNL     1       5.988  -4.046   2.696  0.00  0.00    +0.025 A 
ATOM      9  C   UNL     1       5.399  -5.305   2.615  0.00  0.00    +0.022 A 
ATOM     10  C   UNL     1       4.034  -5.408   2.849  0.00  0.00    +0.042 A 
ATOM     11 CL   UNL     1       3.298  -6.967   2.836  0.00  0.00    -0.084 Cl
ATOM     12  C   UNL     1       3.252  -4.258   3.096  0.00  0.00    +0.030 A 
ATOM     13  C   UNL     1       3.820  -2.954   3.159  0.00  0.00    +0.040 A 
ENDROOT
BRANCH   1  14
ATOM     14  C   UNL     1       2.185  -2.128   4.832  0.00  0.00    +0.446 C 
ATOM     15  F   UNL     1       2.159  -1.257   5.866  0.00  0.00    -0.165 F 
ATOM     16  F   UNL     1       2.726  -3.265   5.380  0.00  0.00    -0.165 F 
ATOM     17  F   UNL     1       0.915  -2.480   4.552  0.00  0.00    -0.165 F 
ENDBRANCH   1  14
BRANCH   1  19
ATOM     18  C   UNL     1       1.553  -0.831   1.241  0.00  0.00    -0.094 C 
ATOM     19  C   UNL     1       2.216  -1.186   2.306  0.00  0.00    -0.041 C 
BRANCH  18  21
ATOM     20  C   UNL     1      -1.917  -0.070   0.090  0.00  0.00    +0.017 C 
ATOM     21  C   UNL     1      -0.131  -0.579  -0.098  0.00  0.00    +0.064 C 
ATOM     22  C   UNL     1      -1.723  -1.384  -0.433  0.00  0.00    +0.017 C 
ENDBRANCH  18  21
ENDBRANCH   1  19
TORSDOF 3
REMARK  Name = 
REMARK  33 active torsions:
REMARK  status: ('A' for Active; 'I' for Inactive)
REMARK    1  A    between atoms: C_1  and  C_2
REMARK    2  A    between atoms: C_2  and  C_4
REMARK    3  A    between atoms: C_2  and  O_15
REMARK    4  A    between atoms: C_4  and  N_5
REMARK    5  A    between atoms: C_9  and  N_14
REMARK    6  A    between atoms: O_15  and  C_16
REMARK    7  A    between atoms: C_16  and  P_17
REMARK    8  A    between atoms: P_17  and  O_19
REMARK    9  A    between atoms: P_17  and  O_28
REMARK   10  A    between atoms: O_19  and  C_20
REMARK   11  A    between atoms: C_20  and  O_21
REMARK   12  A    between atoms: O_21  and  C_22
REMARK   13  A    between atoms: C_22  and  O_24
REMARK   14  A    between atoms: O_24  and  C_25
REMARK   15  A    between atoms: C_25  and  C_26
REMARK   16  A    between atoms: C_25  and  C_27
REMARK   17  A    between atoms: O_28  and  C_29
REMARK   18  A    between atoms: C_29  and  O_30
REMARK   19  A    between atoms: O_30  and  C_31
REMARK   20  A    between atoms: C_31  and  O_33
REMARK   21  A    between atoms: O_33  and  C_34
REMARK   22  A    between atoms: C_34  and  C_35
REMARK   23  A    between atoms: C_34  and  C_36
REMARK   24  A    between atoms: C_39  and  C_40
REMARK   25  A    between atoms: C_41  and  C_42
REMARK   26  A    between atoms: C_42  and  C_54
REMARK   27  A    between atoms: C_59  and  N_67
REMARK   28  A    between atoms: C_62  and  C_65
REMARK   29  A    between atoms: C_65  and  O_66
REMARK   30  A    between atoms: C_76  and  C_81
REMARK   31  A    between atoms: C_77  and  C_78
REMARK   32  A    between atoms: C_78  and  O_80
REMARK   33  A    between atoms: C_81  and  O_83
REMARK                            x       y       z     vdW  Elec       q    Type
REMARK                         _______ _______ _______ _____ _____    ______ ____
ROOT
ATOM      1  N   UNL     1      -1.049   0.574   2.998  0.00  0.00    -0.269 N 
ATOM      2  C   UNL     1      -1.507  -0.453   3.843  0.00  0.00    +0.352 A 
ATOM      3  O   UNL     1      -1.085  -1.590   3.663  0.00  0.00    -0.244 OA
ATOM      4  N   UNL     1      -2.505  -0.209   4.757  0.00  0.00    -0.175 NA
ATOM      5  C   UNL     1      -3.203   0.885   4.698  0.00  0.00    +0.159 A 
ATOM      6  N   UNL     1      -4.185   1.044   5.637  0.00  0.00    -0.341 N 
ATOM      7  H   UNL     1      -4.456   0.181   6.092  0.00  0.00    +0.144 HD
ATOM      8  H   UNL     1      -4.928   1.710   5.460  0.00  0.00    +0.144 HD
ATOM      9  C   UNL     1      -2.968   1.907   3.671  0.00  0.00    +0.179 A 
ATOM     10  F   UNL     1      -3.878   2.896   3.538  0.00  0.00    -0.200 F 
ATOM     11  C   UNL     1      -1.903   1.729   2.888  0.00  0.00    +0.135 A 
ENDROOT
BRANCH   1  16
ATOM     12  C   UNL     1       0.331  -1.840   0.854  0.00  0.00    +0.126 C 
ATOM     13  S   UNL     1       1.875  -0.379  -0.807  0.00  0.00    -0.123 S 
ATOM     14  C   UNL     1       1.439   2.213  -0.401  0.00  0.00    +0.203 C 
ATOM     15  O   UNL     1      -0.245   1.825   0.717  0.00  0.00    -0.340 OA
ATOM     16  C   UNL     1      -0.326   0.074   1.674  0.00  0.00    +0.235 C 
BRANCH  14  17
ATOM     17  C   UNL     1       1.601   3.393   0.949  0.00  0.00    +0.198 C 
BRANCH  17  18
ATOM     18  O   UNL     1       2.486   3.250   2.049  0.00  0.00    -0.392 OA
ATOM     19  H   UNL     1       3.384   2.977   1.789  0.00  0.00    +0.210 HD
ENDBRANCH  17  18
ENDBRANCH  14  17
ENDBRANCH   1  16
TORSDOF 3
REMARK  Name = 
REMARK  33 active torsions:
REMARK  status: ('A' for Active; 'I' for Inactive)
REMARK    1  A    between atoms: C_1  and  C_2
REMARK    2  A    between atoms: C_2  and  C_4
REMARK    3  A    between atoms: C_2  and  O_15
REMARK    4  A    between atoms: C_4  and  N_5
REMARK    5  A    between atoms: C_9  and  N_14
REMARK    6  A    between atoms: O_15  and  C_16
REMARK    7  A    between atoms: C_16  and  P_17
REMARK    8  A    between atoms: P_17  and  O_19
REMARK    9  A    between atoms: P_17  and  O_28
REMARK   10  A    between atoms: O_19  and  C_20
REMARK   11  A    between atoms: C_20  and  O_21
REMARK   12  A    between atoms: O_21  and  C_22
REMARK   13  A    between atoms: C_22  and  O_24
REMARK   14  A    between atoms: O_24  and  C_25
REMARK   15  A    between atoms: C_25  and  C_26
REMARK   16  A    between atoms: C_25  and  C_27
REMARK   17  A    between atoms: O_28  and  C_29
REMARK   18  A    between atoms: C_29  and  O_30
REMARK   19  A    between atoms: O_30  and  C_31
REMARK   20  A    between atoms: C_31  and  O_33
REMARK   21  A    between atoms: O_33  and  C_34
REMARK   22  A    between atoms: C_34  and  C_35
REMARK   23  A    between atoms: C_34  and  C_36
REMARK   24  A    between atoms: C_39  and  C_40
REMARK   25  A    between atoms: C_41  and  C_42
REMARK   26  A    between atoms: C_42  and  C_54
REMARK   27  A    between atoms: C_59  and  N_67
REMARK   28  A    between atoms: C_62  and  C_65
REMARK   29  A    between atoms: C_65  and  O_66
REMARK   30  A    between atoms: C_76  and  C_81
REMARK   31  A    between atoms: C_77  and  C_78
REMARK   32  A    between atoms: C_78  and  O_80
REMARK   33  A    between atoms: C_81  and  O_83
REMARK                            x       y       z     vdW  Elec       q    Type
REMARK                         _______ _______ _______ _____ _____    ______ ____
ROOT
ATOM      1  C   UNL     1       1.255   0.945   0.633  0.00  0.00    +0.098 C 
ATOM      2  C   UNL     1       0.206   1.105  -0.899  0.00  0.00    +0.098 C 
ENDROOT
BRANCH   1   3
ATOM      3  C   UNL     1       3.093   1.102   0.787  0.00  0.00    +0.330 C 
ATOM      4  O   UNL     1       3.667   0.887   1.838  0.00  0.00    -0.246 OA
BRANCH   3   5
ATOM      5  O   UNL     1       3.728   1.865  -0.157  0.00  0.00    -0.478 OA
ATOM      6  H   UNL     1       3.474   1.833  -1.099  0.00  0.00    +0.295 HD
ENDBRANCH   3   5
ENDBRANCH   1   3
BRANCH   2   7
ATOM      7  C   UNL     1      -1.081   1.710  -1.546  0.00  0.00    +0.330 C 
ATOM      8  O   UNL     1      -1.992   0.984  -1.878  0.00  0.00    -0.246 OA
BRANCH   7   9
ATOM      9  O   UNL     1      -1.133   3.006  -1.870  0.00  0.00    -0.478 OA
ATOM     10  H   UNL     1      -0.535   3.172  -2.630  0.00  0.00    +0.295 HD
ENDBRANCH   7   9
ENDBRANCH   2   7
TORSDOF 4
