REMARK  Name = 
REMARK  33 active torsions:
REMARK  status: ('A' for Active; 'I' for Inactive)
REMARK    1  A    between atoms: C_1  and  C_2
REMARK    2  A    between atoms: C_2  and  C_4
REMARK    3  A    between atoms: C_2  and  O_15
REMARK    4  A    between atoms: C_4  and  N_5
REMARK    5  A    between atoms: C_9  and  N_14
REMARK    6  A    between atoms: O_15  and  C_16
REMARK    7  A    between atoms: C_16  and  P_17
REMARK    8  A    between atoms: P_17  and  O_19
REMARK    9  A    between atoms: P_17  and  O_28
REMARK   10  A    between atoms: O_19  and  C_20
REMARK   11  A    between atoms: C_20  and  O_21
REMARK   12  A    between atoms: O_21  and  C_22
REMARK   13  A    between atoms: C_22  and  O_24
REMARK   14  A    between atoms: O_24  and  C_25
REMARK   15  A    between atoms: C_25  and  C_26
REMARK   16  A    between atoms: C_25  and  C_27
REMARK   17  A    between atoms: O_28  and  C_29
REMARK   18  A    between atoms: C_29  and  O_30
REMARK   19  A    between atoms: O_30  and  C_31
REMARK   20  A    between atoms: C_31  and  O_33
REMARK   21  A    between atoms: O_33  and  C_34
REMARK   22  A    between atoms: C_34  and  C_35
REMARK   23  A    between atoms: C_34  and  C_36
REMARK   24  A    between atoms: C_39  and  C_40
REMARK   25  A    between atoms: C_41  and  C_42
REMARK   26  A    between atoms: C_42  and  C_54
REMARK   27  A    between atoms: C_59  and  N_67
REMARK   28  A    between atoms: C_62  and  C_65
REMARK   29  A    between atoms: C_65  and  O_66
REMARK   30  A    between atoms: C_76  and  C_81
REMARK   31  A    between atoms: C_77  and  C_78
REMARK   32  A    between atoms: C_78  and  O_80
REMARK   33  A    between atoms: C_81  and  O_83
REMARK                            x       y       z     vdW  Elec       q    Type
REMARK                         _______ _______ _______ _____ _____    ______ ____
ROOT
ATOM      1  P   UNL     1      -0.525  -2.086  -8.410  0.00  0.00    +0.364 P 
ATOM      2  O   UNL     1      -1.025  -3.047  -9.471  0.00  0.00    -0.256 OA
ENDROOT
BRANCH   1   3
ATOM      3  O   UNL     1      -1.926  -2.574  -7.519  0.00  0.00    -0.268 OA
BRANCH   3   4
ATOM      4  C   UNL     1      -3.194  -2.290  -8.083  0.00  0.00    +0.410 C 
BRANCH   4   5
ATOM      5  O   UNL     1      -4.225  -2.795  -7.220  0.00  0.00    -0.406 OA
BRANCH   5   6
ATOM      6  C   UNL     1      -4.581  -4.067  -7.464  0.00  0.00    +0.512 C 
ATOM      7  O   UNL     1      -4.304  -4.732  -8.451  0.00  0.00    -0.203 OA
BRANCH   6   8
ATOM      8  O   UNL     1      -5.259  -4.517  -6.374  0.00  0.00    -0.431 OA
BRANCH   8   9
ATOM      9  C   UNL     1      -5.563  -5.919  -6.390  0.00  0.00    +0.174 C 
ATOM     10  C   UNL     1      -6.630  -6.155  -5.330  0.00  0.00    +0.052 C 
ATOM     11  C   UNL     1      -4.317  -6.743  -6.068  0.00  0.00    +0.052 C 
ENDBRANCH   8   9
ENDBRANCH   6   8
ENDBRANCH   5   6
ENDBRANCH   4   5
ENDBRANCH   3   4
ENDBRANCH   1   3
BRANCH   1  12
ATOM     12  O   UNL     1       0.454  -2.759  -7.258  0.00  0.00    -0.268 OA
BRANCH  12  13
ATOM     13  C   UNL     1       1.134  -1.845  -6.386  0.00  0.00    +0.410 C 
BRANCH  13  14
ATOM     14  O   UNL     1       2.279  -1.221  -6.981  0.00  0.00    -0.406 OA
BRANCH  14  15
ATOM     15  C   UNL     1       3.427  -1.939  -6.959  0.00  0.00    +0.512 C 
ATOM     16  O   UNL     1       3.666  -2.859  -6.198  0.00  0.00    -0.203 OA
BRANCH  15  17
ATOM     17  O   UNL     1       4.256  -1.468  -7.935  0.00  0.00    -0.431 OA
BRANCH  17  18
ATOM     18  C   UNL     1       5.461  -2.229  -8.174  0.00  0.00    +0.174 C 
ATOM     19  C   UNL     1       6.372  -1.397  -9.075  0.00  0.00    +0.052 C 
ATOM     20  C   UNL     1       5.137  -3.552  -8.860  0.00  0.00    +0.052 C 
ENDBRANCH  17  18
ENDBRANCH  15  17
ENDBRANCH  14  15
ENDBRANCH  13  14
ENDBRANCH  12  13
ENDBRANCH   1  12
BRANCH   1  21
ATOM     21  C   UNL     1       0.956  -1.570  -9.351  0.00  0.00    +0.287 C 
BRANCH  21  22
ATOM     22  O   UNL     1       1.848  -2.640  -9.758  0.00  0.00    -0.363 OA
BRANCH  22  24
ATOM     23  C   UNL     1       2.008  -4.981 -10.523  0.00  0.00    +0.040 C 
ATOM     24  C   UNL     1       1.183  -3.691 -10.471  0.00  0.00    +0.136 C 
BRANCH  24  25
ATOM     25  C   UNL     1       0.626  -3.265 -11.879  0.00  0.00    +0.156 C 
BRANCH  25  26
ATOM     26  N   UNL     1      -0.192  -2.062 -12.079  0.00  0.00    -0.312 N 
ATOM     27  C   UNL     1       0.258  -0.842 -12.553  0.00  0.00    +0.165 A 
ATOM     28  C   UNL     1      -0.844   0.005 -12.526  0.00  0.00    +0.147 A 
ATOM     29  C   UNL     1      -0.643   1.335 -12.941  0.00  0.00    +0.147 A 
ATOM     30  N   UNL     1       0.609   1.725 -13.263  0.00  0.00    -0.219 NA
ATOM     31  C   UNL     1       1.595   0.803 -13.215  0.00  0.00    +0.225 A 
ATOM     32  N   UNL     1      -1.948  -0.655 -12.037  0.00  0.00    -0.231 NA
ATOM     33  N   UNL     1       1.515  -0.502 -12.881  0.00  0.00    -0.216 NA
ATOM     34  C   UNL     1      -1.538  -1.893 -11.833  0.00  0.00    +0.201 A 
BRANCH  29  35
ATOM     35  N   UNL     1      -1.661   2.276 -13.018  0.00  0.00    -0.341 N 
ATOM     36  H   UNL     1      -1.347   3.235 -13.046  0.00  0.00    +0.144 HD
ATOM     37  H   UNL     1      -2.515   2.042 -12.530  0.00  0.00    +0.144 HD
ENDBRANCH  29  35
ENDBRANCH  25  26
ENDBRANCH  24  25
ENDBRANCH  22  24
ENDBRANCH  21  22
ENDBRANCH   1  21
TORSDOF 18
REMARK  Name = 
REMARK  33 active torsions:
REMARK  status: ('A' for Active; 'I' for Inactive)
REMARK    1  A    between atoms: C_1  and  C_2
REMARK    2  A    between atoms: C_2  and  C_4
REMARK    3  A    between atoms: C_2  and  O_15
REMARK    4  A    between atoms: C_4  and  N_5
REMARK    5  A    between atoms: C_9  and  N_14
REMARK    6  A    between atoms: O_15  and  C_16
REMARK    7  A    between atoms: C_16  and  P_17
REMARK    8  A    between atoms: P_17  and  O_19
REMARK    9  A    between atoms: P_17  and  O_28
REMARK   10  A    between atoms: O_19  and  C_20
REMARK   11  A    between atoms: C_20  and  O_21
REMARK   12  A    between atoms: O_21  and  C_22
REMARK   13  A    between atoms: C_22  and  O_24
REMARK   14  A    between atoms: O_24  and  C_25
REMARK   15  A    between atoms: C_25  and  C_26
REMARK   16  A    between atoms: C_25  and  C_27
REMARK   17  A    between atoms: O_28  and  C_29
REMARK   18  A    between atoms: C_29  and  O_30
REMARK   19  A    between atoms: O_30  and  C_31
REMARK   20  A    between atoms: C_31  and  O_33
REMARK   21  A    between atoms: O_33  and  C_34
REMARK   22  A    between atoms: C_34  and  C_35
REMARK   23  A    between atoms: C_34  and  C_36
REMARK   24  A    between atoms: C_39  and  C_40
REMARK   25  A    between atoms: C_41  and  C_42
REMARK   26  A    between atoms: C_42  and  C_54
REMARK   27  A    between atoms: C_59  and  N_67
REMARK   28  A    between atoms: C_62  and  C_65
REMARK   29  A    between atoms: C_65  and  O_66
REMARK   30  A    between atoms: C_76  and  C_81
REMARK   31  A    between atoms: C_77  and  C_78
REMARK   32  A    between atoms: C_78  and  O_80
REMARK   33  A    between atoms: C_81  and  O_83
REMARK                            x       y       z     vdW  Elec       q    Type
REMARK                         _______ _______ _______ _____ _____    ______ ____
ROOT
ATOM      1  C   UNL     1       2.990  -1.600   3.547  0.00  0.00    +0.296 C 
ATOM      2  O   UNL     1       3.939  -0.483   3.698  0.00  0.00    -0.417 OA
ATOM      3  C   UNL     1       5.258  -0.517   3.455  0.00  0.00    +0.407 C 
ATOM      4  O   UNL     1       5.958   0.484   3.552  0.00  0.00    -0.226 OA
ATOM      5  N   UNL     1       5.795  -1.702   3.072  0.00  0.00    -0.251 N 
ATOM      6  H   UNL     1       6.793  -1.672   2.908  0.00  0.00    +0.158 HD
ATOM      7  C   UNL     1       5.101  -2.891   2.968  0.00  0.00    +0.045 A 
ATOM      8  C   UNL     1       5.810  -4.058   2.663  0.00  0.00    +0.025 A 
ATOM      9  C   UNL     1       5.141  -5.277   2.595  0.00  0.00    +0.022 A 
ATOM     10  C   UNL     1       3.766  -5.315   2.807  0.00  0.00    +0.042 A 
ATOM     11 CL   UNL     1       2.940  -6.822   2.752  0.00  0.00    -0.084 Cl
ATOM     12  C   UNL     1       3.057  -4.141   3.077  0.00  0.00    +0.030 A 
ATOM     13  C   UNL     1       3.727  -2.904   3.187  0.00  0.00    +0.040 A 
ENDROOT
BRANCH   1  14
ATOM     14  C   UNL     1       2.326  -1.758   4.961  0.00  0.00    +0.446 C 
ATOM     15  F   UNL     1       2.994  -1.056   5.917  0.00  0.00    -0.165 F 
ATOM     16  F   UNL     1       2.341  -3.046   5.405  0.00  0.00    -0.165 F 
ATOM     17  F   UNL     1       1.054  -1.367   5.047  0.00  0.00    -0.165 F 
ENDBRANCH   1  14
BRANCH   1  19
ATOM     18  C   UNL     1       1.553  -0.831   1.241  0.00  0.00    -0.094 C 
ATOM     19  C   UNL     1       2.216  -1.186   2.306  0.00  0.00    -0.041 C 
BRANCH  18  21
ATOM     20  C   UNL     1       1.724   0.161  -1.714  0.00  0.00    +0.017 C 
ATOM     21  C   UNL     1       1.684  -1.014  -0.555  0.00  0.00    +0.064 C 
ATOM     22  C   UNL     1       0.776  -0.940  -1.930  0.00  0.00    +0.017 C 
ENDBRANCH  18  21
ENDBRANCH   1  19
TORSDOF 3
REMARK  Name = 
REMARK  33 active torsions:
REMARK  status: ('A' for Active; 'I' for Inactive)
REMARK    1  A    between atoms: C_1  and  C_2
REMARK    2  A    between atoms: C_2  and  C_4
REMARK    3  A    between atoms: C_2  and  O_15
REMARK    4  A    between atoms: C_4  and  N_5
REMARK    5  A    between atoms: C_9  and  N_14
REMARK    6  A    between atoms: O_15  and  C_16
REMARK    7  A    between atoms: C_16  and  P_17
REMARK    8  A    between atoms: P_17  and  O_19
REMARK    9  A    between atoms: P_17  and  O_28
REMARK   10  A    between atoms: O_19  and  C_20
REMARK   11  A    between atoms: C_20  and  O_21
REMARK   12  A    between atoms: O_21  and  C_22
REMARK   13  A    between atoms: C_22  and  O_24
REMARK   14  A    between atoms: O_24  and  C_25
REMARK   15  A    between atoms: C_25  and  C_26
REMARK   16  A    between atoms: C_25  and  C_27
REMARK   17  A    between atoms: O_28  and  C_29
REMARK   18  A    between atoms: C_29  and  O_30
REMARK   19  A    between atoms: O_30  and  C_31
REMARK   20  A    between atoms: C_31  and  O_33
REMARK   21  A    between atoms: O_33  and  C_34
REMARK   22  A    between atoms: C_34  and  C_35
REMARK   23  A    between atoms: C_34  and  C_36
REMARK   24  A    between atoms: C_39  and  C_40
REMARK   25  A    between atoms: C_41  and  C_42
REMARK   26  A    between atoms: C_42  and  C_54
REMARK   27  A    between atoms: C_59  and  N_67
REMARK   28  A    between atoms: C_62  and  C_65
REMARK   29  A    between atoms: C_65  and  O_66
REMARK   30  A    between atoms: C_76  and  C_81
REMARK   31  A    between atoms: C_77  and  C_78
REMARK   32  A    between atoms: C_78  and  O_80
REMARK   33  A    between atoms: C_81  and  O_83
REMARK                            x       y       z     vdW  Elec       q    Type
REMARK                         _______ _______ _______ _____ _____    ______ ____
ROOT
ATOM      1  N   UNL     1      -3.718   0.616   2.823  0.00  0.00    -0.269 N 
ATOM      2  C   UNL     1      -4.129  -0.069   3.960  0.00  0.00    +0.352 A 
ATOM      3  O   UNL     1      -4.290  -1.285   3.965  0.00  0.00    -0.244 OA
ATOM      4  N   UNL     1      -4.276   0.659   5.109  0.00  0.00    -0.175 NA
ATOM      5  C   UNL     1      -4.162   1.950   5.061  0.00  0.00    +0.159 A 
ATOM      6  N   UNL     1      -4.187   2.586   6.268  0.00  0.00    -0.341 N 
ATOM      7  H   UNL     1      -4.009   1.927   7.018  0.00  0.00    +0.144 HD
ATOM      8  H   UNL     1      -3.622   3.426   6.324  0.00  0.00    +0.144 HD
ATOM      9  C   UNL     1      -3.972   2.726   3.794  0.00  0.00    +0.179 A 
ATOM     10  F   UNL     1      -3.751   4.032   3.878  0.00  0.00    -0.200 F 
ATOM     11  C   UNL     1      -3.759   1.993   2.725  0.00  0.00    +0.135 A 
ENDROOT
BRANCH   1  16
ATOM     12  C   UNL     1      -2.210  -1.434   2.294  0.00  0.00    +0.126 C 
ATOM     13  S   UNL     1      -1.099  -1.261   3.689  0.00  0.00    -0.123 S 
ATOM     14  C   UNL     1      -0.551   0.369   3.138  0.00  0.00    +0.203 C 
ATOM     15  O   UNL     1      -1.539   0.924   2.293  0.00  0.00    -0.340 OA
ATOM     16  C   UNL     1      -2.649   0.021   2.049  0.00  0.00    +0.235 C 
BRANCH  14  17
ATOM     17  C   UNL     1       0.306   1.416   3.885  0.00  0.00    +0.198 C 
BRANCH  17  18
ATOM     18  O   UNL     1       1.677   1.014   4.039  0.00  0.00    -0.392 OA
ATOM     19  H   UNL     1       2.213   1.460   3.350  0.00  0.00    +0.210 HD
ENDBRANCH  17  18
ENDBRANCH  14  17
ENDBRANCH   1  16
TORSDOF 3
REMARK  Name = 
REMARK  33 active torsions:
REMARK  status: ('A' for Active; 'I' for Inactive)
REMARK    1  A    between atoms: C_1  and  C_2
REMARK    2  A    between atoms: C_2  and  C_4
REMARK    3  A    between atoms: C_2  and  O_15
REMARK    4  A    between atoms: C_4  and  N_5
REMARK    5  A    between atoms: C_9  and  N_14
REMARK    6  A    between atoms: O_15  and  C_16
REMARK    7  A    between atoms: C_16  and  P_17
REMARK    8  A    between atoms: P_17  and  O_19
REMARK    9  A    between atoms: P_17  and  O_28
REMARK   10  A    between atoms: O_19  and  C_20
REMARK   11  A    between atoms: C_20  and  O_21
REMARK   12  A    between atoms: O_21  and  C_22
REMARK   13  A    between atoms: C_22  and  O_24
REMARK   14  A    between atoms: O_24  and  C_25
REMARK   15  A    between atoms: C_25  and  C_26
REMARK   16  A    between atoms: C_25  and  C_27
REMARK   17  A    between atoms: O_28  and  C_29
REMARK   18  A    between atoms: C_29  and  O_30
REMARK   19  A    between atoms: O_30  and  C_31
REMARK   20  A    between atoms: C_31  and  O_33
REMARK   21  A    between atoms: O_33  and  C_34
REMARK   22  A    between atoms: C_34  and  C_35
REMARK   23  A    between atoms: C_34  and  C_36
REMARK   24  A    between atoms: C_39  and  C_40
REMARK   25  A    between atoms: C_41  and  C_42
REMARK   26  A    between atoms: C_42  and  C_54
REMARK   27  A    between atoms: C_59  and  N_67
REMARK   28  A    between atoms: C_62  and  C_65
REMARK   29  A    between atoms: C_65  and  O_66
REMARK   30  A    between atoms: C_76  and  C_81
REMARK   31  A    between atoms: C_77  and  C_78
REMARK   32  A    between atoms: C_78  and  O_80
REMARK   33  A    between atoms: C_81  and  O_83
REMARK                            x       y       z     vdW  Elec       q    Type
REMARK                         _______ _______ _______ _____ _____    ______ ____
ROOT
ATOM      1  C   UNL     1      -0.741   0.428  -0.247  0.00  0.00    +0.098 C 
ATOM      2  C   UNL     1      -1.320  -0.773  -0.515  0.00  0.00    +0.098 C 
ENDROOT
BRANCH   1   3
ATOM      3  C   UNL     1       0.236   1.632   0.192  0.00  0.00    +0.330 C 
ATOM      4  O   UNL     1      -0.256   2.711   0.488  0.00  0.00    -0.246 OA
BRANCH   3   5
ATOM      5  O   UNL     1       1.657   1.558   0.404  0.00  0.00    -0.478 OA
ATOM      6  H   UNL     1       2.303   0.884   0.171  0.00  0.00    +0.295 HD
ENDBRANCH   3   5
ENDBRANCH   1   3
BRANCH   2   7
ATOM      7  C   UNL     1      -2.506  -1.166  -1.312  0.00  0.00    +0.330 C 
ATOM      8  O   UNL     1      -3.461  -0.428  -1.482  0.00  0.00    -0.246 OA
BRANCH   7   9
ATOM      9  O   UNL     1      -2.485  -2.435  -1.772  0.00  0.00    -0.478 OA
ATOM     10  H   UNL     1      -1.710  -3.032  -1.626  0.00  0.00    +0.295 HD
ENDBRANCH   7   9
ENDBRANCH   2   7
TORSDOF 4
