REMARK  Name = 
REMARK  3 active torsions:
REMARK  status: ('A' for Active; 'I' for Inactive)
REMARK    1  A    between atoms: C_2  and  N_8
REMARK    2  A    between atoms: C_4  and  C_6
REMARK    3  A    between atoms: C_6  and  O_7
REMARK                            x       y       z     vdW  Elec       q    Type
REMARK                         _______ _______ _______ _____ _____    ______ ____
ROOT
ATOM      1  N   UNL     1      -1.196   0.307   1.829  0.00  0.00    -0.269 N 
ATOM      2  C   UNL     1      -2.298  -0.397   2.344  0.00  0.00    +0.352 A 
ATOM      3  O   UNL     1      -3.109  -0.931   1.591  0.00  0.00    -0.244 OA
ATOM      4  N   UNL     1      -2.459  -0.475   3.713  0.00  0.00    -0.175 NA
ATOM      5  C   UNL     1      -1.656   0.175   4.501  0.00  0.00    +0.159 A 
ATOM      6  N   UNL     1      -1.853   0.056   5.852  0.00  0.00    -0.341 N 
ATOM      7  H   UNL     1      -2.777  -0.284   6.099  0.00  0.00    +0.144 HD
ATOM      8  H   UNL     1      -1.510   0.811   6.435  0.00  0.00    +0.144 HD
ATOM      9  C   UNL     1      -0.573   1.033   3.983  0.00  0.00    +0.179 A 
ATOM     10  F   UNL     1       0.171   1.731   4.857  0.00  0.00    -0.200 F 
ATOM     11  C   UNL     1      -0.408   1.074   2.667  0.00  0.00    +0.135 A 
ENDROOT
BRANCH   1  16
ATOM     12  C   UNL     1      -0.910  -1.024  -0.337  0.00  0.00    +0.126 C 
ATOM     13  S   UNL     1       0.818  -1.482  -0.115  0.00  0.00    -0.123 S 
ATOM     14  C   UNL     1       1.308   0.252   0.048  0.00  0.00    +0.203 C 
ATOM     15  O   UNL     1       0.142   1.096  -0.004  0.00  0.00    -0.340 OA
ATOM     16  C   UNL     1      -1.030   0.338   0.367  0.00  0.00    +0.235 C 
BRANCH  14  17
ATOM     17  C   UNL     1       2.295   0.661  -1.054  0.00  0.00    +0.198 C 
BRANCH  17  18
ATOM     18  O   UNL     1       1.762   0.456  -2.365  0.00  0.00    -0.392 OA
ATOM     19  H   UNL     1       1.412  -0.454  -2.379  0.00  0.00    +0.210 HD
ENDBRANCH  17  18
ENDBRANCH  14  17
ENDBRANCH   1  16
TORSDOF 3
