REMARK  Name = 
REMARK  3 active torsions:
REMARK  status: ('A' for Active; 'I' for Inactive)
REMARK    1  A    between atoms: C_2  and  N_8
REMARK    2  A    between atoms: C_4  and  C_6
REMARK    3  A    between atoms: C_6  and  O_7
REMARK                            x       y       z     vdW  Elec       q    Type
REMARK                         _______ _______ _______ _____ _____    ______ ____
ROOT
ATOM      1  N   UNL     1      -1.190   0.314   1.832  0.00  0.00    -0.269 N 
ATOM      2  C   UNL     1      -2.287  -0.390   2.358  0.00  0.00    +0.352 A 
ATOM      3  O   UNL     1      -3.101  -0.929   1.611  0.00  0.00    -0.244 OA
ATOM      4  N   UNL     1      -2.436  -0.464   3.727  0.00  0.00    -0.175 NA
ATOM      5  C   UNL     1      -1.629   0.193   4.506  0.00  0.00    +0.159 A 
ATOM      6  N   UNL     1      -1.816   0.076   5.858  0.00  0.00    -0.341 N 
ATOM      7  H   UNL     1      -2.733  -0.272   6.118  0.00  0.00    +0.144 HD
ATOM      8  H   UNL     1      -1.468   0.832   6.439  0.00  0.00    +0.144 HD
ATOM      9  C   UNL     1      -0.560   1.058   3.979  0.00  0.00    +0.179 A 
ATOM     10  F   UNL     1       0.181   1.768   4.842  0.00  0.00    -0.200 F 
ATOM     11  C   UNL     1      -0.402   1.093   2.661  0.00  0.00    +0.135 A 
ENDROOT
BRANCH   1  16
ATOM     12  C   UNL     1      -0.909  -1.030  -0.325  0.00  0.00    +0.126 C 
ATOM     13  S   UNL     1       0.821  -1.482  -0.105  0.00  0.00    -0.123 S 
ATOM     14  C   UNL     1       1.307   0.254   0.046  0.00  0.00    +0.203 C 
ATOM     15  O   UNL     1       0.138   1.094  -0.012  0.00  0.00    -0.340 OA
ATOM     16  C   UNL     1      -1.031   0.337   0.369  0.00  0.00    +0.235 C 
BRANCH  14  17
ATOM     17  C   UNL     1       2.292   0.659  -1.058  0.00  0.00    +0.198 C 
BRANCH  17  18
ATOM     18  O   UNL     1       1.761   0.439  -2.367  0.00  0.00    -0.392 OA
ATOM     19  H   UNL     1       1.421  -0.475  -2.375  0.00  0.00    +0.210 HD
ENDBRANCH  17  18
ENDBRANCH  14  17
ENDBRANCH   1  16
TORSDOF 3
