REMARK  Name = 
REMARK  7 active torsions:
REMARK  status: ('A' for Active; 'I' for Inactive)
REMARK    1  A    between atoms: C_3  and  N_4
REMARK    2  A    between atoms: N_4  and  C_5
REMARK    3  A    between atoms: N_12  and  C_15
REMARK    4  A    between atoms: C_18  and  C_22
REMARK    5  A    between atoms: C_22  and  O_23
REMARK    6  A    between atoms: O_24  and  S_25
REMARK    7  A    between atoms: S_25  and  O_28
REMARK                            x       y       z     vdW  Elec       q    Type
REMARK                         _______ _______ _______ _____ _____    ______ ____
ROOT
ATOM      1  C   UNL     1       2.662  -1.081   1.924  0.00  0.00    +0.152 A 
ATOM      2  N   UNL     1       3.291   0.121   2.081  0.00  0.00    -0.198 NA
ATOM      3  C   UNL     1       4.634   0.184   2.153  0.00  0.00    +0.216 A 
ATOM      4  N   UNL     1       5.184   1.449   2.187  0.00  0.00    -0.327 N 
ATOM      5  H   UNL     1       4.528   2.132   1.829  0.00  0.00    +0.145 HD
ATOM      6  H   UNL     1       6.093   1.446   1.740  0.00  0.00    +0.145 HD
ATOM      7  N   UNL     1       5.481  -0.833   1.966  0.00  0.00    -0.195 NA
ATOM      8  C   UNL     1       4.849  -1.990   1.722  0.00  0.00    +0.168 A 
ATOM      9  N   UNL     1       5.403  -3.191   1.359  0.00  0.00    -0.308 N 
ATOM     10  C   UNL     1       4.360  -4.065   1.169  0.00  0.00    +0.202 A 
ATOM     11  N   UNL     1       3.187  -3.503   1.378  0.00  0.00    -0.231 NA
ATOM     12  C   UNL     1       3.481  -2.200   1.697  0.00  0.00    +0.148 A 
ENDROOT
BRANCH   9  13
ATOM     13  C   UNL     1       6.829  -3.459   1.206  0.00  0.00    +0.113 C 
ATOM     14  C   UNL     1       7.114  -4.829   0.648  0.00  0.00    -0.006 C 
ATOM     15  C   UNL     1       7.450  -4.784  -0.647  0.00  0.00    -0.023 C 
ATOM     16  C   UNL     1       7.526  -3.370  -1.157  0.00  0.00    +0.039 C 
ATOM     17  C   UNL     1       7.550  -2.578   0.161  0.00  0.00    +0.039 C 
BRANCH  16  18
ATOM     18  C   UNL     1       6.356  -2.958  -2.056  0.00  0.00    +0.163 C 
BRANCH  18  19
ATOM     19  O   UNL     1       6.371  -3.704  -3.267  0.00  0.00    -0.394 OA
ATOM     20  H   UNL     1       6.063  -4.601  -3.054  0.00  0.00    +0.209 HD
ENDBRANCH  18  19
ENDBRANCH  16  18
ENDBRANCH   9  13
BRANCH   1  21
ATOM     21  N   UNL     1       1.259  -1.161   1.808  0.00  0.00    -0.324 N 
ATOM     22  H   UNL     1       0.985  -2.145   1.802  0.00  0.00    +0.148 HD
BRANCH  21  24
ATOM     23  C   UNL     1      -1.007  -0.015   2.168  0.00  0.00    +0.024 C 
ATOM     24  C   UNL     1       0.425  -0.241   2.581  0.00  0.00    +0.072 C 
ATOM     25  C   UNL     1      -0.008   1.099   2.059  0.00  0.00    +0.024 C 
ENDBRANCH  21  24
ENDBRANCH   1  21
TORSDOF 5
REMARK  Name = 
REMARK  7 active torsions:
REMARK  status: ('A' for Active; 'I' for Inactive)
REMARK    1  A    between atoms: C_3  and  N_4
REMARK    2  A    between atoms: N_4  and  C_5
REMARK    3  A    between atoms: N_12  and  C_15
REMARK    4  A    between atoms: C_18  and  C_22
REMARK    5  A    between atoms: C_22  and  O_23
REMARK    6  A    between atoms: O_24  and  S_25
REMARK    7  A    between atoms: S_25  and  O_28
REMARK                            x       y       z     vdW  Elec       q    Type
REMARK                         _______ _______ _______ _____ _____    ______ ____
ROOT
ATOM      1  S   UNL     1       3.587   1.025  -1.828  0.00  0.00    +0.205 S 
ATOM      2  O   UNL     1       4.604   1.965  -1.420  0.00  0.00    -0.118 OA
ATOM      3  O   UNL     1       3.361   0.625  -3.193  0.00  0.00    -0.118 OA
ENDROOT
BRANCH   1   4
ATOM      4  O   UNL     1       2.183   1.529  -1.241  0.00  0.00    -0.231 OA
ATOM      5  H   UNL     1       1.497   0.876  -1.491  0.00  0.00    +0.247 HD
ENDBRANCH   1   4
BRANCH   1   6
ATOM      6  O   UNL     1       3.790  -0.297  -0.952  0.00  0.00    -0.231 OA
ATOM      7  H   UNL     1       3.636  -0.020  -0.023  0.00  0.00    +0.247 HD
ENDBRANCH   1   6
TORSDOF 2
