REMARK  Name = 
REMARK  7 active torsions:
REMARK  status: ('A' for Active; 'I' for Inactive)
REMARK    1  A    between atoms: C_3  and  N_4
REMARK    2  A    between atoms: N_4  and  C_5
REMARK    3  A    between atoms: N_12  and  C_15
REMARK    4  A    between atoms: C_18  and  C_22
REMARK    5  A    between atoms: C_22  and  O_23
REMARK    6  A    between atoms: O_24  and  S_25
REMARK    7  A    between atoms: S_25  and  O_28
REMARK                            x       y       z     vdW  Elec       q    Type
REMARK                         _______ _______ _______ _____ _____    ______ ____
ROOT
ATOM      1  C   UNL     1       2.838  -1.049   1.750  0.00  0.00    +0.152 A 
ATOM      2  N   UNL     1       3.506   0.125   1.919  0.00  0.00    -0.198 NA
ATOM      3  C   UNL     1       4.853   0.133   1.924  0.00  0.00    +0.216 A 
ATOM      4  N   UNL     1       5.467   1.368   2.041  0.00  0.00    -0.327 N 
ATOM      5  H   UNL     1       4.880   2.058   1.576  0.00  0.00    +0.145 HD
ATOM      6  H   UNL     1       6.392   1.295   1.638  0.00  0.00    +0.145 HD
ATOM      7  N   UNL     1       5.659  -0.914   1.727  0.00  0.00    -0.195 NA
ATOM      8  C   UNL     1       4.975  -2.042   1.493  0.00  0.00    +0.168 A 
ATOM      9  N   UNL     1       5.496  -3.276   1.201  0.00  0.00    -0.308 N 
ATOM     10  C   UNL     1       4.432  -4.127   1.042  0.00  0.00    +0.202 A 
ATOM     11  N   UNL     1       3.277  -3.517   1.211  0.00  0.00    -0.231 NA
ATOM     12  C   UNL     1       3.599  -2.204   1.486  0.00  0.00    +0.148 A 
ENDROOT
BRANCH   9  13
ATOM     13  C   UNL     1       6.918  -3.594   1.166  0.00  0.00    +0.113 C 
ATOM     14  C   UNL     1       7.207  -5.019   0.775  0.00  0.00    -0.006 C 
ATOM     15  C   UNL     1       7.668  -5.113  -0.479  0.00  0.00    -0.023 C 
ATOM     16  C   UNL     1       7.809  -3.762  -1.125  0.00  0.00    +0.039 C 
ATOM     17  C   UNL     1       7.726  -2.831   0.095  0.00  0.00    +0.039 C 
BRANCH  16  18
ATOM     18  C   UNL     1       6.723  -3.455  -2.161  0.00  0.00    +0.163 C 
BRANCH  18  19
ATOM     19  O   UNL     1       6.840  -4.328  -3.279  0.00  0.00    -0.394 OA
ATOM     20  H   UNL     1       6.494  -5.193  -2.999  0.00  0.00    +0.209 HD
ENDBRANCH  18  19
ENDBRANCH  16  18
ENDBRANCH   9  13
BRANCH   1  21
ATOM     21  N   UNL     1       1.433  -0.938   1.805  0.00  0.00    -0.324 N 
ATOM     22  H   UNL     1       1.242  -0.081   2.321  0.00  0.00    +0.148 HD
BRANCH  21  24
ATOM     23  C   UNL     1      -0.801  -1.888   2.640  0.00  0.00    +0.024 C 
ATOM     24  C   UNL     1       0.618  -2.097   2.180  0.00  0.00    +0.072 C 
ATOM     25  C   UNL     1       0.243  -2.347   3.615  0.00  0.00    +0.024 C 
ENDBRANCH  21  24
ENDBRANCH   1  21
TORSDOF 5
REMARK  Name = 
REMARK  7 active torsions:
REMARK  status: ('A' for Active; 'I' for Inactive)
REMARK    1  A    between atoms: C_3  and  N_4
REMARK    2  A    between atoms: N_4  and  C_5
REMARK    3  A    between atoms: N_12  and  C_15
REMARK    4  A    between atoms: C_18  and  C_22
REMARK    5  A    between atoms: C_22  and  O_23
REMARK    6  A    between atoms: O_24  and  S_25
REMARK    7  A    between atoms: S_25  and  O_28
REMARK                            x       y       z     vdW  Elec       q    Type
REMARK                         _______ _______ _______ _____ _____    ______ ____
ROOT
ATOM      1  S   UNL     1       3.435   1.430  -1.184  0.00  0.00    +0.205 S 
ATOM      2  O   UNL     1       3.854   0.067  -1.400  0.00  0.00    -0.118 OA
ATOM      3  O   UNL     1       4.159   2.342  -0.326  0.00  0.00    -0.118 OA
ENDROOT
BRANCH   1   4
ATOM      4  O   UNL     1       1.919   1.413  -0.658  0.00  0.00    -0.231 OA
ATOM      5  H   UNL     1       1.877   0.793   0.110  0.00  0.00    +0.247 HD
ENDBRANCH   1   4
BRANCH   1   6
ATOM      6  O   UNL     1       3.288   2.169  -2.599  0.00  0.00    -0.231 OA
ATOM      7  H   UNL     1       3.050   3.100  -2.428  0.00  0.00    +0.247 HD
ENDBRANCH   1   6
TORSDOF 2
