REMARK  Name = 
REMARK  24 active torsions:
REMARK  status: ('A' for Active; 'I' for Inactive)
REMARK    1  A    between atoms: C_1  and  C_2
REMARK    2  A    between atoms: C_2  and  C_3
REMARK    3  A    between atoms: C_2  and  C_4
REMARK    4  A    between atoms: C_6  and  C_9
REMARK    5  A    between atoms: C_9  and  N_10
REMARK    6  A    between atoms: N_10  and  C_11
REMARK    7  A    between atoms: N_14  and  C_15
REMARK    8  A    between atoms: C_15  and  C_16
REMARK    9  A    between atoms: C_15  and  C_19
REMARK   10  A    between atoms: C_16  and  C_17
REMARK   11  A    between atoms: C_16  and  C_18
REMARK   12  A    between atoms: N_21  and  C_22
REMARK   13  A    between atoms: C_22  and  C_24
REMARK   14  A    between atoms: C_22  and  C_31
REMARK   15  A    between atoms: C_24  and  C_25
REMARK   16  A    between atoms: C_31  and  C_32
REMARK   17  A    between atoms: C_32  and  C_34
REMARK   18  A    between atoms: C_32  and  O_53
REMARK   19  A    between atoms: C_34  and  C_36
REMARK   20  A    between atoms: C_34  and  N_43
REMARK   21  A    between atoms: C_36  and  C_37
REMARK   22  A    between atoms: C_44  and  O_46
REMARK   23  A    between atoms: O_46  and  C_47
REMARK   24  A    between atoms: C_47  and  C_48
REMARK                            x       y       z     vdW  Elec       q    Type
REMARK                         _______ _______ _______ _____ _____    ______ ____
ROOT
ATOM      1  C   UNL     1       4.221  12.098  11.632  0.00  0.00    +0.080 C 
ENDROOT
BRANCH   1   3
ATOM      2  C   UNL     1       1.746  12.568  11.182  0.00  0.00    +0.234 C 
ATOM      3  N   UNL     1       3.086  12.603  10.849  0.00  0.00    -0.311 N 
ATOM      4  H   UNL     1       3.282  13.462  10.355  0.00  0.00    +0.149 HD
ATOM      5  O   UNL     1       1.256  11.931  12.107  0.00  0.00    -0.274 OA
BRANCH   2   6
ATOM      6  C   UNL     1       0.844  13.215  10.097  0.00  0.00    +0.163 C 
BRANCH   6   9
ATOM      7  N   UNL     1       2.466  16.504   9.377  0.00  0.00    -0.283 N 
ATOM      8  C   UNL     1       2.008  15.451  10.157  0.00  0.00    +0.303 C 
ATOM      9  N   UNL     1       1.501  14.380   9.437  0.00  0.00    -0.288 N 
ATOM     10  H   UNL     1       1.021  14.675   8.603  0.00  0.00    +0.151 HD
ATOM     11  O   UNL     1       2.159  15.389  11.370  0.00  0.00    -0.253 OA
ATOM     12  C   UNL     1       2.088  16.710   7.989  0.00  0.00    +0.134 C 
BRANCH   7  13
ATOM     13  C   UNL     1       3.198  17.602  10.031  0.00  0.00    +0.164 C 
BRANCH  13  17
ATOM     14  C   UNL     1       5.911  18.657   7.805  0.00  0.00    +0.081 A 
ATOM     15  S   UNL     1       7.036  18.378   9.078  0.00  0.00    -0.080 S 
ATOM     16  C   UNL     1       5.759  17.849  10.086  0.00  0.00    +0.071 A 
ATOM     17  C   UNL     1       4.550  17.892   9.414  0.00  0.00    +0.066 A 
ATOM     18  N   UNL     1       4.656  18.370   8.101  0.00  0.00    -0.247 NA
BRANCH  14  20
ATOM     19  C   UNL     1       6.075  18.241   5.341  0.00  0.00    +0.014 C 
ATOM     20  C   UNL     1       6.408  19.199   6.483  0.00  0.00    +0.038 C 
ATOM     21  C   UNL     1       5.843  20.589   6.195  0.00  0.00    +0.014 C 
ENDBRANCH  14  20
ENDBRANCH  13  17
ENDBRANCH   7  13
ENDBRANCH   6   9
BRANCH   6  22
ATOM     22  C   UNL     1       0.534  12.097   9.038  0.00  0.00    +0.012 C 
ATOM     23  C   UNL     1      -0.366  12.577   7.897  0.00  0.00    +0.009 C 
ATOM     24  C   UNL     1      -0.091  10.831   9.651  0.00  0.00    +0.009 C 
ENDBRANCH   6  22
ENDBRANCH   2   6
ENDBRANCH   1   3
BRANCH   1  25
ATOM     25  C   UNL     1       5.252  11.385  10.702  0.00  0.00    +0.055 C 
BRANCH  25  26
ATOM     26  C   UNL     1       5.943  12.244   9.609  0.00  0.00    +0.137 C 
BRANCH  26  27
ATOM     27  O   UNL     1       7.126  11.557   9.175  0.00  0.00    -0.390 OA
ATOM     28  H   UNL     1       6.926  11.055   8.356  0.00  0.00    +0.210 HD
ENDBRANCH  26  27
BRANCH  26  29
ATOM     29  C   UNL     1       5.034  12.613   8.404  0.00  0.00    +0.109 C 
BRANCH  29  30
ATOM     30  N   UNL     1       4.340  11.445   7.864  0.00  0.00    -0.275 N 
ATOM     31  H   UNL     1       3.338  11.390   7.927  0.00  0.00    +0.152 HD
ATOM     32  C   UNL     1       4.911  10.423   7.189  0.00  0.00    +0.401 C 
ATOM     33  O   UNL     1       6.123  10.254   7.072  0.00  0.00    -0.226 OA
BRANCH  32  34
ATOM     34  O   UNL     1       3.941   9.620   6.698  0.00  0.00    -0.445 OA
BRANCH  34  35
ATOM     35  C   UNL     1       4.411   8.465   5.990  0.00  0.00    +0.278 C 
BRANCH  35  36
ATOM     36  C   UNL     1       4.766   8.867   4.601  0.00  0.00    +0.046 A 
ATOM     37  S   UNL     1       3.610   8.862   3.332  0.00  0.00    -0.077 S 
ATOM     38  C   UNL     1       4.824   9.405   2.248  0.00  0.00    +0.156 A 
ATOM     39  N   UNL     1       6.022   9.583   2.759  0.00  0.00    -0.255 NA
ATOM     40  C   UNL     1       5.985   9.285   4.105  0.00  0.00    +0.125 A 
ENDBRANCH  35  36
ENDBRANCH  34  35
ENDBRANCH  32  34
ENDBRANCH  29  30
BRANCH  29  41
ATOM     41  C   UNL     1       5.735  13.451   7.305  0.00  0.00    +0.060 C 
BRANCH  41  42
ATOM     42  C   UNL     1       4.839  13.978   6.190  0.00  0.00    -0.046 A 
ATOM     43  C   UNL     1       5.417  14.701   5.139  0.00  0.00    +0.004 A 
ATOM     44  C   UNL     1       4.650  15.153   4.062  0.00  0.00    +0.000 A 
ATOM     45  C   UNL     1       3.286  14.871   4.007  0.00  0.00    +0.000 A 
ATOM     46  C   UNL     1       2.689  14.172   5.045  0.00  0.00    +0.000 A 
ATOM     47  C   UNL     1       3.454  13.758   6.133  0.00  0.00    +0.004 A 
ENDBRANCH  41  42
ENDBRANCH  29  41
ENDBRANCH  26  29
ENDBRANCH  25  26
ENDBRANCH   1  25
BRANCH   1  48
ATOM     48  C   UNL     1       3.787  11.214  12.832  0.00  0.00    +0.057 C 
BRANCH  48  49
ATOM     49  C   UNL     1       4.930  10.746  13.688  0.00  0.00    -0.046 A 
ATOM     50  C   UNL     1       5.532   9.502  13.435  0.00  0.00    +0.004 A 
ATOM     51  C   UNL     1       6.698   9.148  14.096  0.00  0.00    +0.000 A 
ATOM     52  C   UNL     1       7.257  10.015  15.038  0.00  0.00    +0.000 A 
ATOM     53  C   UNL     1       6.624  11.216  15.346  0.00  0.00    +0.000 A 
ATOM     54  C   UNL     1       5.459  11.582  14.675  0.00  0.00    +0.004 A 
ENDBRANCH  48  49
ENDBRANCH   1  48
TORSDOF 19
