REMARK  Name = 
REMARK  24 active torsions:
REMARK  status: ('A' for Active; 'I' for Inactive)
REMARK    1  A    between atoms: C_1  and  C_2
REMARK    2  A    between atoms: C_2  and  C_3
REMARK    3  A    between atoms: C_2  and  C_4
REMARK    4  A    between atoms: C_6  and  C_9
REMARK    5  A    between atoms: C_9  and  N_10
REMARK    6  A    between atoms: N_10  and  C_11
REMARK    7  A    between atoms: N_14  and  C_15
REMARK    8  A    between atoms: C_15  and  C_16
REMARK    9  A    between atoms: C_15  and  C_19
REMARK   10  A    between atoms: C_16  and  C_17
REMARK   11  A    between atoms: C_16  and  C_18
REMARK   12  A    between atoms: N_21  and  C_22
REMARK   13  A    between atoms: C_22  and  C_24
REMARK   14  A    between atoms: C_22  and  C_31
REMARK   15  A    between atoms: C_24  and  C_25
REMARK   16  A    between atoms: C_31  and  C_32
REMARK   17  A    between atoms: C_32  and  C_34
REMARK   18  A    between atoms: C_32  and  O_53
REMARK   19  A    between atoms: C_34  and  C_36
REMARK   20  A    between atoms: C_34  and  N_43
REMARK   21  A    between atoms: C_36  and  C_37
REMARK   22  A    between atoms: C_44  and  O_46
REMARK   23  A    between atoms: O_46  and  C_47
REMARK   24  A    between atoms: C_47  and  C_48
REMARK                            x       y       z     vdW  Elec       q    Type
REMARK                         _______ _______ _______ _____ _____    ______ ____
ROOT
ATOM      1  C   UNL     1       8.500  12.523  -7.223  0.00  0.00    +0.080 C 
ENDROOT
BRANCH   1   3
ATOM      2  C   UNL     1       8.388  11.753  -4.809  0.00  0.00    +0.234 C 
ATOM      3  N   UNL     1       7.880  11.794  -6.101  0.00  0.00    -0.311 N 
ATOM      4  H   UNL     1       6.900  11.540  -6.163  0.00  0.00    +0.149 HD
ATOM      5  O   UNL     1       9.319  12.454  -4.426  0.00  0.00    -0.274 OA
BRANCH   2   6
ATOM      6  C   UNL     1       7.661  10.741  -3.872  0.00  0.00    +0.163 C 
BRANCH   6   9
ATOM      7  N   UNL     1       5.105   8.349  -5.110  0.00  0.00    -0.283 N 
ATOM      8  C   UNL     1       5.559   9.481  -4.438  0.00  0.00    +0.303 C 
ATOM      9  N   UNL     1       6.875   9.782  -4.659  0.00  0.00    -0.288 N 
ATOM     10  H   UNL     1       7.371   9.287  -5.377  0.00  0.00    +0.151 HD
ATOM     11  O   UNL     1       4.869  10.141  -3.668  0.00  0.00    -0.253 OA
ATOM     12  C   UNL     1       5.984   7.482  -5.878  0.00  0.00    +0.134 C 
BRANCH   7  13
ATOM     13  C   UNL     1       3.764   7.842  -4.776  0.00  0.00    +0.164 C 
BRANCH  13  17
ATOM     14  C   UNL     1       2.857   6.965  -8.139  0.00  0.00    +0.081 A 
ATOM     15  S   UNL     1       2.422   8.612  -7.955  0.00  0.00    -0.080 S 
ATOM     16  C   UNL     1       1.874   8.218  -6.381  0.00  0.00    +0.071 A 
ATOM     17  C   UNL     1       2.974   7.482  -6.001  0.00  0.00    +0.066 A 
ATOM     18  N   UNL     1       3.343   6.529  -6.985  0.00  0.00    -0.247 NA
BRANCH  14  20
ATOM     19  C   UNL     1       3.889   6.953 -10.388  0.00  0.00    +0.014 C 
ATOM     20  C   UNL     1       2.796   6.373  -9.511  0.00  0.00    +0.038 C 
ATOM     21  C   UNL     1       2.791   4.856  -9.572  0.00  0.00    +0.014 C 
ENDBRANCH  14  20
ENDBRANCH  13  17
ENDBRANCH   7  13
ENDBRANCH   6   9
BRANCH   6  22
ATOM     22  C   UNL     1       8.676  10.003  -2.945  0.00  0.00    +0.012 C 
ATOM     23  C   UNL     1       9.695   9.148  -3.708  0.00  0.00    +0.009 C 
ATOM     24  C   UNL     1       7.977   9.120  -1.904  0.00  0.00    +0.009 C 
ENDBRANCH   6  22
ENDBRANCH   2   6
ENDBRANCH   1   3
BRANCH   1  25
ATOM     25  C   UNL     1       7.892  12.132  -8.600  0.00  0.00    +0.055 C 
BRANCH  25  26
ATOM     26  C   UNL     1       6.382  12.300  -8.739  0.00  0.00    +0.137 C 
BRANCH  26  27
ATOM     27  O   UNL     1       6.060  13.658  -8.430  0.00  0.00    -0.390 OA
ATOM     28  H   UNL     1       5.087  13.701  -8.395  0.00  0.00    +0.210 HD
ENDBRANCH  26  27
BRANCH  26  29
ATOM     29  C   UNL     1       5.822  11.960 -10.158  0.00  0.00    +0.109 C 
BRANCH  29  30
ATOM     30  N   UNL     1       4.347  12.147 -10.242  0.00  0.00    -0.275 N 
ATOM     31  H   UNL     1       3.969  12.361 -11.150  0.00  0.00    +0.152 HD
ATOM     32  C   UNL     1       3.388  11.836  -9.282  0.00  0.00    +0.401 C 
ATOM     33  O   UNL     1       3.665  11.513  -8.131  0.00  0.00    -0.226 OA
BRANCH  32  34
ATOM     34  O   UNL     1       2.162  11.979  -9.801  0.00  0.00    -0.445 OA
BRANCH  34  35
ATOM     35  C   UNL     1       1.044  11.712  -8.927  0.00  0.00    +0.278 C 
BRANCH  35  36
ATOM     36  C   UNL     1       0.376  10.441  -9.371  0.00  0.00    +0.046 A 
ATOM     37  S   UNL     1      -0.879   9.725  -8.421  0.00  0.00    -0.077 S 
ATOM     38  C   UNL     1      -0.593   8.229  -9.223  0.00  0.00    +0.156 A 
ATOM     39  N   UNL     1       0.137   8.307 -10.316  0.00  0.00    -0.255 NA
ATOM     40  C   UNL     1       0.709   9.569 -10.394  0.00  0.00    +0.125 A 
ENDBRANCH  35  36
ENDBRANCH  34  35
ENDBRANCH  32  34
ENDBRANCH  29  30
BRANCH  29  41
ATOM     41  C   UNL     1       6.269  10.564 -10.681  0.00  0.00    +0.060 C 
BRANCH  41  42
ATOM     42  C   UNL     1       5.834  10.215 -12.095  0.00  0.00    -0.046 A 
ATOM     43  C   UNL     1       5.231   8.979 -12.303  0.00  0.00    +0.004 A 
ATOM     44  C   UNL     1       4.517   8.668 -13.452  0.00  0.00    +0.000 A 
ATOM     45  C   UNL     1       4.600   9.527 -14.533  0.00  0.00    +0.000 A 
ATOM     46  C   UNL     1       5.425  10.648 -14.441  0.00  0.00    +0.000 A 
ATOM     47  C   UNL     1       6.021  11.008 -13.220  0.00  0.00    +0.004 A 
ENDBRANCH  41  42
ENDBRANCH  29  41
ENDBRANCH  26  29
ENDBRANCH  25  26
ENDBRANCH   1  25
BRANCH   1  48
ATOM     48  C   UNL     1      10.043  12.302  -7.333  0.00  0.00    +0.057 C 
BRANCH  48  49
ATOM     49  C   UNL     1      10.553  10.880  -7.559  0.00  0.00    -0.046 A 
ATOM     50  C   UNL     1       9.844   9.735  -7.159  0.00  0.00    +0.004 A 
ATOM     51  C   UNL     1      10.393   8.463  -7.244  0.00  0.00    +0.000 A 
ATOM     52  C   UNL     1      11.641   8.293  -7.807  0.00  0.00    +0.000 A 
ATOM     53  C   UNL     1      12.345   9.407  -8.277  0.00  0.00    +0.000 A 
ATOM     54  C   UNL     1      11.805  10.689  -8.143  0.00  0.00    +0.004 A 
ENDBRANCH  48  49
ENDBRANCH   1  48
TORSDOF 19
