REMARK  Name = 
REMARK  16 active torsions:
REMARK  status: ('A' for Active; 'I' for Inactive)
REMARK    1  A    between atoms: C_1  and  C_2
REMARK    2  A    between atoms: C_2  and  N_3
REMARK    3  A    between atoms: N_3  and  C_4
REMARK    4  A    between atoms: N_3  and  C_6
REMARK    5  A    between atoms: C_4  and  C_5
REMARK    6  A    between atoms: C_6  and  C_7
REMARK    7  A    between atoms: C_7  and  O_8
REMARK    8  A    between atoms: O_8  and  C_9
REMARK    9  A    between atoms: C_20  and  O_23
REMARK   10  A    between atoms: O_23  and  C_24
REMARK   11  A    between atoms: C_24  and  C_25
REMARK   12  A    between atoms: C_25  and  N_26
REMARK   13  A    between atoms: N_26  and  C_27
REMARK   14  A    between atoms: N_26  and  C_29
REMARK   15  A    between atoms: C_27  and  C_28
REMARK   16  A    between atoms: C_29  and  C_30
REMARK                            x       y       z     vdW  Elec       q    Type
REMARK                         _______ _______ _______ _____ _____    ______ ____
ROOT
ATOM      1  C   UNL     1       7.166  -1.015   3.937  0.00  0.00    +0.121 A 
ATOM      2  C   UNL     1       7.217  -2.378   4.332  0.00  0.00    +0.046 A 
ATOM      3  C   UNL     1       7.906  -2.763   5.480  0.00  0.00    +0.013 A 
ATOM      4  C   UNL     1       8.540  -1.779   6.224  0.00  0.00    -0.006 A 
ATOM      5  C   UNL     1       9.302  -1.917   7.447  0.00  0.00    -0.006 A 
ATOM      6  C   UNL     1       9.577  -3.069   8.159  0.00  0.00    +0.013 A 
ATOM      7  C   UNL     1      10.329  -2.956   9.323  0.00  0.00    +0.046 A 
ATOM      8  C   UNL     1      10.803  -1.691   9.779  0.00  0.00    +0.121 A 
ATOM      9  C   UNL     1      10.505  -0.529   9.024  0.00  0.00    +0.058 A 
ATOM     10  C   UNL     1       9.749  -0.675   7.854  0.00  0.00    +0.033 A 
ATOM     11  C   UNL     1       9.277   0.306   6.865  0.00  0.00    +0.195 C 
ATOM     12  O   UNL     1       9.475   1.511   6.879  0.00  0.00    -0.287 OA
ATOM     13  C   UNL     1       8.512  -0.448   5.860  0.00  0.00    +0.033 A 
ATOM     14  C   UNL     1       7.829  -0.035   4.712  0.00  0.00    +0.058 A 
ENDROOT
BRANCH   1  15
ATOM     15  O   UNL     1       6.500  -0.625   2.821  0.00  0.00    -0.491 OA
BRANCH  15  16
ATOM     16  C   UNL     1       5.852  -1.491   1.967  0.00  0.00    +0.244 C 
BRANCH  16  17
ATOM     17  C   UNL     1       5.266  -0.709   0.800  0.00  0.00    +0.125 C 
BRANCH  17  18
ATOM     18  N   UNL     1       4.532  -1.558  -0.170  0.00  0.00    -0.300 NA
BRANCH  18  20
ATOM     19  C   UNL     1       3.081  -1.398  -2.238  0.00  0.00    +0.020 C 
ATOM     20  C   UNL     1       3.945  -0.673  -1.206  0.00  0.00    +0.081 C 
ENDBRANCH  18  20
BRANCH  18  21
ATOM     21  C   UNL     1       5.322  -2.703  -0.705  0.00  0.00    +0.081 C 
ATOM     22  C   UNL     1       6.646  -2.308  -1.372  0.00  0.00    +0.020 C 
ENDBRANCH  18  21
ENDBRANCH  17  18
ENDBRANCH  16  17
ENDBRANCH  15  16
ENDBRANCH   1  15
BRANCH   8  23
ATOM     23  O   UNL     1      11.532  -1.585  10.925  0.00  0.00    -0.491 OA
BRANCH  23  24
ATOM     24  C   UNL     1      11.937  -2.691  11.656  0.00  0.00    +0.244 C 
BRANCH  24  25
ATOM     25  C   UNL     1      12.740  -2.320  12.907  0.00  0.00    +0.125 C 
BRANCH  25  26
ATOM     26  N   UNL     1      12.027  -1.468  13.893  0.00  0.00    -0.300 NA
BRANCH  26  27
ATOM     27  C   UNL     1      12.947  -1.216  15.031  0.00  0.00    +0.081 C 
ATOM     28  C   UNL     1      12.384  -0.266  16.086  0.00  0.00    +0.020 C 
ENDBRANCH  26  27
BRANCH  26  29
ATOM     29  C   UNL     1      10.682  -1.969  14.293  0.00  0.00    +0.081 C 
ATOM     30  C   UNL     1      10.694  -3.281  15.088  0.00  0.00    +0.020 C 
ENDBRANCH  26  29
ENDBRANCH  25  26
ENDBRANCH  24  25
ENDBRANCH  23  24
ENDBRANCH   8  23
TORSDOF 12
REMARK  Name = 
REMARK  16 active torsions:
REMARK  status: ('A' for Active; 'I' for Inactive)
REMARK    1  A    between atoms: C_1  and  C_2
REMARK    2  A    between atoms: C_2  and  N_3
REMARK    3  A    between atoms: N_3  and  C_4
REMARK    4  A    between atoms: N_3  and  C_6
REMARK    5  A    between atoms: C_4  and  C_5
REMARK    6  A    between atoms: C_6  and  C_7
REMARK    7  A    between atoms: C_7  and  O_8
REMARK    8  A    between atoms: O_8  and  C_9
REMARK    9  A    between atoms: C_20  and  O_23
REMARK   10  A    between atoms: O_23  and  C_24
REMARK   11  A    between atoms: C_24  and  C_25
REMARK   12  A    between atoms: C_25  and  N_26
REMARK   13  A    between atoms: N_26  and  C_27
REMARK   14  A    between atoms: N_26  and  C_29
REMARK   15  A    between atoms: C_27  and  C_28
REMARK   16  A    between atoms: C_29  and  C_30
REMARK                            x       y       z     vdW  Elec       q    Type
REMARK                         _______ _______ _______ _____ _____    ______ ____
ROOT
ATOM      1 CL   UNL     1      -1.563  -0.222   0.549  0.00  0.00    -0.145 Cl
ATOM      2  H   UNL     1      -0.390   0.086   1.198  0.00  0.00    +0.145 HD
ENDROOT
TORSDOF 0
