REMARK  Name = 
REMARK  12 active torsions:
REMARK  status: ('A' for Active; 'I' for Inactive)
REMARK    1  A    between atoms: C_1  and  C_2
REMARK    2  A    between atoms: C_2  and  C_3
REMARK    3  A    between atoms: C_3  and  C_4
REMARK    4  A    between atoms: C_3  and  C_6
REMARK    5  A    between atoms: C_4  and  C_5
REMARK    6  A    between atoms: C_6  and  C_8
REMARK    7  A    between atoms: C_6  and  N_25
REMARK    8  A    between atoms: C_10  and  N_21
REMARK    9  A    between atoms: C_13  and  C_18
REMARK   10  A    between atoms: C_15  and  O_17
REMARK   11  A    between atoms: C_18  and  O_20
REMARK   12  A    between atoms: C_26  and  C_28
REMARK                            x       y       z     vdW  Elec       q    Type
REMARK                         _______ _______ _______ _____ _____    ______ ____
ROOT
ATOM      1  C   UNL     1       4.959  -0.926   0.890  0.00  0.00    +0.079 C 
ATOM      2  C   UNL     1       6.491  -0.655   0.821  0.00  0.00    +0.137 C 
ATOM      3  C   UNL     1       7.120  -1.115   2.133  0.00  0.00    +0.130 C 
ATOM      4  C   UNL     1       5.953  -1.402   3.050  0.00  0.00    +0.062 C 
ATOM      5  C   UNL     1       4.785  -1.835   2.135  0.00  0.00    +0.196 C 
ENDROOT
BRANCH   5   6
ATOM      6  N   UNL     1       3.619  -1.557   2.956  0.00  0.00    -0.110 NA
ATOM      7  C   UNL     1       2.552  -2.252   2.959  0.00  0.00    +0.377 C 
ATOM      8  N   UNL     1       1.644  -2.046   3.939  0.00  0.00    -0.289 N 
ATOM      9  H   UNL     1       1.082  -2.840   4.203  0.00  0.00    +0.255 HD
ATOM     10  H   UNL     1       2.050  -1.562   4.732  0.00  0.00    +0.255 HD
ATOM     11  N   UNL     1       2.135  -3.214   2.121  0.00  0.00    -0.289 N 
ATOM     12  H   UNL     1       1.782  -4.062   2.537  0.00  0.00    +0.255 HD
ATOM     13  H   UNL     1       2.747  -3.444   1.337  0.00  0.00    +0.255 HD
ENDBRANCH   5   6
BRANCH   2  14
ATOM     14  O   UNL     1       7.188  -1.366  -0.209  0.00  0.00    -0.391 OA
ATOM     15  H   UNL     1       6.994  -2.313  -0.062  0.00  0.00    +0.210 HD
ENDBRANCH   2  14
BRANCH   3  16
ATOM     16  C   UNL     1       8.070  -0.069   2.658  0.00  0.00    +0.310 C 
ATOM     17  O   UNL     1       7.993   0.493   3.737  0.00  0.00    -0.251 OA
BRANCH  16  18
ATOM     18  O   UNL     1       9.114   0.145   1.814  0.00  0.00    -0.480 OA
ATOM     19  H   UNL     1       9.060  -0.369   0.980  0.00  0.00    +0.295 HD
ENDBRANCH  16  18
ENDBRANCH   3  16
BRANCH   1  20
ATOM     20  C   UNL     1       4.324  -1.432  -0.454  0.00  0.00    +0.085 C 
BRANCH  20  21
ATOM     21  N   UNL     1       4.955  -2.703  -0.866  0.00  0.00    -0.312 N 
ATOM     22  H   UNL     1       5.731  -2.622  -1.514  0.00  0.00    +0.149 HD
ATOM     23  C   UNL     1       4.467  -3.952  -0.580  0.00  0.00    +0.210 C 
ATOM     24  C   UNL     1       5.329  -5.086  -1.057  0.00  0.00    +0.109 C 
ATOM     25  O   UNL     1       3.441  -4.156   0.058  0.00  0.00    -0.276 OA
ENDBRANCH  20  21
BRANCH  20  26
ATOM     26  C   UNL     1       4.461  -0.381  -1.639  0.00  0.00    +0.009 C 
BRANCH  26  28
ATOM     27  C   UNL     1       2.184   0.885  -1.585  0.00  0.00    +0.004 C 
ATOM     28  C   UNL     1       3.695   0.943  -1.383  0.00  0.00    +0.002 C 
ENDBRANCH  26  28
BRANCH  26  29
ATOM     29  C   UNL     1       4.103  -0.985  -3.029  0.00  0.00    +0.002 C 
ATOM     30  C   UNL     1       4.515  -0.102  -4.205  0.00  0.00    +0.004 C 
ENDBRANCH  26  29
ENDBRANCH  20  26
ENDBRANCH   1  20
TORSDOF 9
