REMARK  Name = 
REMARK  12 active torsions:
REMARK  status: ('A' for Active; 'I' for Inactive)
REMARK    1  A    between atoms: C_3  and  N_4
REMARK    2  A    between atoms: N_4  and  C_5
REMARK    3  A    between atoms: N_12  and  C_15
REMARK    4  A    between atoms: C_17  and  C_20
REMARK    5  A    between atoms: C_20  and  O_21
REMARK    6  A    between atoms: C_24  and  N_25
REMARK    7  A    between atoms: N_25  and  C_26
REMARK    8  A    between atoms: N_33  and  C_36
REMARK    9  A    between atoms: C_38  and  C_41
REMARK   10  A    between atoms: C_41  and  O_42
REMARK   11  A    between atoms: O_43  and  S_44
REMARK   12  A    between atoms: S_44  and  O_47
REMARK                            x       y       z     vdW  Elec       q    Type
REMARK                         _______ _______ _______ _____ _____    ______ ____
ROOT
ATOM      1  C   UNL     1       1.890  -2.627   1.471  0.00  0.00    +0.152 A 
ATOM      2  N   UNL     1       1.227  -3.606   0.836  0.00  0.00    -0.198 NA
ATOM      3  C   UNL     1       1.683  -4.846   1.017  0.00  0.00    +0.216 A 
ATOM      4  N   UNL     1       0.980  -5.788   0.294  0.00  0.00    -0.327 N 
ATOM      5  H   UNL     1       0.088  -5.375   0.049  0.00  0.00    +0.145 HD
ATOM      6  H   UNL     1       0.978  -6.692   0.738  0.00  0.00    +0.145 HD
ATOM      7  N   UNL     1       2.726  -5.242   1.793  0.00  0.00    -0.195 NA
ATOM      8  C   UNL     1       3.386  -4.195   2.330  0.00  0.00    +0.168 A 
ATOM      9  N   UNL     1       4.563  -4.128   3.040  0.00  0.00    -0.308 N 
ATOM     10  C   UNL     1       4.883  -2.807   3.229  0.00  0.00    +0.202 A 
ATOM     11  N   UNL     1       3.981  -2.013   2.712  0.00  0.00    -0.231 NA
ATOM     12  C   UNL     1       3.047  -2.879   2.197  0.00  0.00    +0.148 A 
ENDROOT
BRANCH   9  13
ATOM     13  C   UNL     1       5.370  -5.279   3.366  0.00  0.00    +0.113 C 
ATOM     14  C   UNL     1       5.876  -5.886   2.092  0.00  0.00    -0.006 C 
ATOM     15  C   UNL     1       7.179  -5.662   1.904  0.00  0.00    -0.023 C 
ATOM     16  C   UNL     1       7.785  -4.941   3.067  0.00  0.00    +0.039 C 
ATOM     17  C   UNL     1       6.674  -5.007   4.135  0.00  0.00    +0.039 C 
BRANCH  16  18
ATOM     18  C   UNL     1       9.068  -5.612   3.542  0.00  0.00    +0.163 C 
BRANCH  18  19
ATOM     19  O   UNL     1       9.561  -4.971   4.711  0.00  0.00    -0.394 OA
ATOM     20  H   UNL     1       9.805  -4.062   4.465  0.00  0.00    +0.209 HD
ENDBRANCH  18  19
ENDBRANCH  16  18
ENDBRANCH   9  13
BRANCH   1  21
ATOM     21  N   UNL     1       1.527  -0.817   1.200  0.00  0.00    -0.324 N 
ATOM     22  H   UNL     1       2.109  -0.059   1.892  0.00  0.00    +0.148 HD
BRANCH  21  24
ATOM     23  C   UNL     1      -0.029   0.883   0.000  0.00  0.00    +0.024 C 
ATOM     24  C   UNL     1       0.779  -0.417   0.000  0.00  0.00    +0.072 C 
ATOM     25  C   UNL     1      -0.751  -0.466   0.000  0.00  0.00    +0.024 C 
ENDBRANCH  21  24
ENDBRANCH   1  21
TORSDOF 5
REMARK  Name = 
REMARK  12 active torsions:
REMARK  status: ('A' for Active; 'I' for Inactive)
REMARK    1  A    between atoms: C_3  and  N_4
REMARK    2  A    between atoms: N_4  and  C_5
REMARK    3  A    between atoms: N_12  and  C_15
REMARK    4  A    between atoms: C_17  and  C_20
REMARK    5  A    between atoms: C_20  and  O_21
REMARK    6  A    between atoms: C_24  and  N_25
REMARK    7  A    between atoms: N_25  and  C_26
REMARK    8  A    between atoms: N_33  and  C_36
REMARK    9  A    between atoms: C_38  and  C_41
REMARK   10  A    between atoms: C_41  and  O_42
REMARK   11  A    between atoms: O_43  and  S_44
REMARK   12  A    between atoms: S_44  and  O_47
REMARK                            x       y       z     vdW  Elec       q    Type
REMARK                         _______ _______ _______ _____ _____    ______ ____
ROOT
ATOM      1  C   UNL     1       0.739  -0.658   2.899  0.00  0.00    +0.152 A 
ATOM      2  N   UNL     1       1.499  -0.952   3.990  0.00  0.00    -0.198 NA
ATOM      3  C   UNL     1       1.000  -0.723   5.215  0.00  0.00    +0.216 A 
ATOM      4  N   UNL     1       1.885  -1.010   6.234  0.00  0.00    -0.327 N 
ATOM      5  H   UNL     1       2.619  -1.613   5.886  0.00  0.00    +0.145 HD
ATOM      6  H   UNL     1       1.439  -1.228   7.108  0.00  0.00    +0.145 HD
ATOM      7  N   UNL     1      -0.218  -0.226   5.529  0.00  0.00    -0.195 NA
ATOM      8  C   UNL     1      -0.916   0.151   4.436  0.00  0.00    +0.168 A 
ATOM      9  N   UNL     1      -2.130   0.803   4.296  0.00  0.00    -0.308 N 
ATOM     10  C   UNL     1      -2.371   1.050   2.982  0.00  0.00    +0.202 A 
ATOM     11  N   UNL     1      -1.412   0.540   2.312  0.00  0.00    -0.231 NA
ATOM     12  C   UNL     1      -0.494  -0.021   3.141  0.00  0.00    +0.148 A 
ENDROOT
BRANCH   9  13
ATOM     13  C   UNL     1      -3.198   1.113   5.199  0.00  0.00    +0.113 C 
ATOM     14  C   UNL     1      -4.381   0.229   4.868  0.00  0.00    -0.006 C 
ATOM     15  C   UNL     1      -4.461  -0.792   5.723  0.00  0.00    -0.023 C 
ATOM     16  C   UNL     1      -3.402  -0.670   6.779  0.00  0.00    +0.039 C 
ATOM     17  C   UNL     1      -2.900   0.774   6.632  0.00  0.00    +0.039 C 
BRANCH  16  18
ATOM     18  C   UNL     1      -3.942  -0.864   8.178  0.00  0.00    +0.163 C 
BRANCH  18  19
ATOM     19  O   UNL     1      -2.909  -0.646   9.130  0.00  0.00    -0.394 OA
ATOM     20  H   UNL     1      -2.146  -1.188   8.861  0.00  0.00    +0.209 HD
ENDBRANCH  18  19
ENDBRANCH  16  18
ENDBRANCH   9  13
BRANCH   1  21
ATOM     21  N   UNL     1       1.527  -0.817   1.200  0.00  0.00    -0.324 N 
ATOM     22  H   UNL     1       2.695  -0.990   1.104  0.00  0.00    +0.148 HD
BRANCH  21  24
ATOM     23  C   UNL     1      -0.029   0.883   0.000  0.00  0.00    +0.024 C 
ATOM     24  C   UNL     1       0.779  -0.417   0.000  0.00  0.00    +0.072 C 
ATOM     25  C   UNL     1      -0.751  -0.466   0.000  0.00  0.00    +0.024 C 
ENDBRANCH  21  24
ENDBRANCH   1  21
TORSDOF 5
REMARK  Name = 
REMARK  12 active torsions:
REMARK  status: ('A' for Active; 'I' for Inactive)
REMARK    1  A    between atoms: C_3  and  N_4
REMARK    2  A    between atoms: N_4  and  C_5
REMARK    3  A    between atoms: N_12  and  C_15
REMARK    4  A    between atoms: C_17  and  C_20
REMARK    5  A    between atoms: C_20  and  O_21
REMARK    6  A    between atoms: C_24  and  N_25
REMARK    7  A    between atoms: N_25  and  C_26
REMARK    8  A    between atoms: N_33  and  C_36
REMARK    9  A    between atoms: C_38  and  C_41
REMARK   10  A    between atoms: C_41  and  O_42
REMARK   11  A    between atoms: O_43  and  S_44
REMARK   12  A    between atoms: S_44  and  O_47
REMARK                            x       y       z     vdW  Elec       q    Type
REMARK                         _______ _______ _______ _____ _____    ______ ____
ROOT
ATOM      1  S   UNL     1       3.379   2.350  -1.314  0.00  0.00    +0.205 S 
ATOM      2  O   UNL     1       3.253   0.961  -1.673  0.00  0.00    -0.118 OA
ATOM      3  O   UNL     1       4.644   3.042  -1.307  0.00  0.00    -0.118 OA
ENDROOT
BRANCH   1   4
ATOM      4  O   UNL     1       2.712   2.532   0.133  0.00  0.00    -0.231 OA
ATOM      5  H   UNL     1       2.395   1.648   0.422  0.00  0.00    +0.247 HD
ENDBRANCH   1   4
BRANCH   1   6
ATOM      6  O   UNL     1       2.411   3.212  -2.260  0.00  0.00    -0.231 OA
ATOM      7  H   UNL     1       2.908   4.020  -2.509  0.00  0.00    +0.247 HD
ENDBRANCH   1   6
TORSDOF 2
