REMARK  Name = 
REMARK  16 active torsions:
REMARK  status: ('A' for Active; 'I' for Inactive)
REMARK    1  A    between atoms: C_1  and  C_2
REMARK    2  A    between atoms: C_2  and  C_3
REMARK    3  A    between atoms: C_2  and  C_4
REMARK    4  A    between atoms: C_4  and  N_5
REMARK    5  A    between atoms: N_5  and  C_6
REMARK    6  A    between atoms: N_5  and  S_29
REMARK    7  A    between atoms: C_6  and  C_7
REMARK    8  A    between atoms: C_7  and  C_9
REMARK    9  A    between atoms: C_7  and  O_28
REMARK   10  A    between atoms: C_9  and  C_11
REMARK   11  A    between atoms: C_9  and  N_18
REMARK   12  A    between atoms: C_11  and  C_12
REMARK   13  A    between atoms: C_19  and  O_21
REMARK   14  A    between atoms: O_21  and  C_22
REMARK   15  A    between atoms: S_29  and  C_32
REMARK   16  A    between atoms: C_35  and  N_38
REMARK                            x       y       z     vdW  Elec       q    Type
REMARK                         _______ _______ _______ _____ _____    ______ ____
ROOT
ATOM      1  C   UNL     1       3.668   1.215  -1.470  0.00  0.00    +0.151 C 
ENDROOT
BRANCH   1   2
ATOM      2  O   UNL     1       4.209   1.342  -2.803  0.00  0.00    -0.389 OA
ATOM      3  H   UNL     1       5.140   1.562  -2.683  0.00  0.00    +0.210 HD
ENDBRANCH   1   2
BRANCH   1   4
ATOM      4  C   UNL     1       4.634   1.929  -0.523  0.00  0.00    +0.142 C 
BRANCH   4   5
ATOM      5  N   UNL     1       6.120   1.615  -0.927  0.00  0.00    -0.174 NA
BRANCH   5   6
ATOM      6  S   UNL     1       7.124   2.622   0.241  0.00  0.00    +0.061 S 
ATOM      7  O   UNL     1       7.169   1.879   1.483  0.00  0.00    -0.153 OA
ATOM      8  O   UNL     1       6.611   3.976   0.203  0.00  0.00    -0.153 OA
BRANCH   6   9
ATOM      9  C   UNL     1       8.769   2.678  -0.435  0.00  0.00    +0.106 A 
ATOM     10  C   UNL     1       9.852   2.158   0.282  0.00  0.00    +0.030 A 
ATOM     11  C   UNL     1      11.139   2.212  -0.269  0.00  0.00    +0.024 A 
ATOM     12  C   UNL     1      11.347   2.753  -1.540  0.00  0.00    +0.025 A 
ATOM     13  C   UNL     1      10.283   3.408  -2.168  0.00  0.00    +0.024 A 
ATOM     14  C   UNL     1       8.992   3.364  -1.629  0.00  0.00    +0.030 A 
BRANCH  12  15
ATOM     15  N   UNL     1      12.641   2.840  -2.068  0.00  0.00    -0.358 N 
ATOM     16  H   UNL     1      13.261   2.101  -1.748  0.00  0.00    +0.142 HD
ATOM     17  H   UNL     1      12.659   2.928  -3.080  0.00  0.00    +0.142 HD
ENDBRANCH  12  15
ENDBRANCH   6   9
ENDBRANCH   5   6
BRANCH   5  18
ATOM     18  C   UNL     1       6.553   0.140  -0.792  0.00  0.00    +0.112 C 
BRANCH  18  20
ATOM     19  C   UNL     1       4.858  -1.612  -1.984  0.00  0.00    +0.008 C 
ATOM     20  C   UNL     1       6.249  -0.979  -1.847  0.00  0.00    -0.001 C 
ATOM     21  C   UNL     1       6.845  -0.778  -3.240  0.00  0.00    +0.008 C 
ENDBRANCH  18  20
ENDBRANCH   5  18
ENDBRANCH   4   5
ENDBRANCH   1   4
BRANCH   1  22
ATOM     22  C   UNL     1       2.118   1.415  -1.429  0.00  0.00    +0.110 C 
BRANCH  22  23
ATOM     23  N   UNL     1       1.407   0.590  -2.450  0.00  0.00    -0.275 N 
ATOM     24  H   UNL     1       1.766   0.624  -3.396  0.00  0.00    +0.152 HD
ATOM     25  C   UNL     1       0.286  -0.193  -2.250  0.00  0.00    +0.401 C 
ATOM     26  O   UNL     1      -0.262  -0.396  -1.186  0.00  0.00    -0.226 OA
BRANCH  25  27
ATOM     27  O   UNL     1      -0.120  -0.722  -3.452  0.00  0.00    -0.445 OA
BRANCH  27  28
ATOM     28  C   UNL     1      -1.198  -1.700  -3.511  0.00  0.00    +0.206 C 
ATOM     29  C   UNL     1      -1.314  -2.213  -4.959  0.00  0.00    +0.204 C 
ATOM     30  O   UNL     1      -2.698  -2.441  -5.273  0.00  0.00    -0.376 OA
ATOM     31  C   UNL     1      -3.475  -2.073  -4.133  0.00  0.00    +0.163 C 
ATOM     32  C   UNL     1      -2.605  -1.182  -3.271  0.00  0.00    +0.075 C 
ENDBRANCH  27  28
ENDBRANCH  25  27
ENDBRANCH  22  23
BRANCH  22  33
ATOM     33  C   UNL     1       1.609   2.876  -1.383  0.00  0.00    +0.060 C 
BRANCH  33  34
ATOM     34  C   UNL     1       2.005   3.968  -2.355  0.00  0.00    -0.046 A 
ATOM     35  C   UNL     1       1.620   5.282  -2.022  0.00  0.00    +0.004 A 
ATOM     36  C   UNL     1       1.955   6.376  -2.826  0.00  0.00    +0.000 A 
ATOM     37  C   UNL     1       2.688   6.178  -3.991  0.00  0.00    +0.000 A 
ATOM     38  C   UNL     1       3.057   4.885  -4.354  0.00  0.00    +0.000 A 
ATOM     39  C   UNL     1       2.693   3.790  -3.556  0.00  0.00    +0.004 A 
ENDBRANCH  33  34
ENDBRANCH  22  33
ENDBRANCH   1  22
TORSDOF 14
