REMARK  Name = 
REMARK  16 active torsions:
REMARK  status: ('A' for Active; 'I' for Inactive)
REMARK    1  A    between atoms: C_1  and  C_2
REMARK    2  A    between atoms: C_2  and  C_3
REMARK    3  A    between atoms: C_2  and  C_4
REMARK    4  A    between atoms: C_4  and  N_5
REMARK    5  A    between atoms: N_5  and  C_6
REMARK    6  A    between atoms: N_5  and  S_29
REMARK    7  A    between atoms: C_6  and  C_7
REMARK    8  A    between atoms: C_7  and  C_9
REMARK    9  A    between atoms: C_7  and  O_28
REMARK   10  A    between atoms: C_9  and  C_11
REMARK   11  A    between atoms: C_9  and  N_18
REMARK   12  A    between atoms: C_11  and  C_12
REMARK   13  A    between atoms: C_19  and  O_21
REMARK   14  A    between atoms: O_21  and  C_22
REMARK   15  A    between atoms: S_29  and  C_32
REMARK   16  A    between atoms: C_35  and  N_38
REMARK                            x       y       z     vdW  Elec       q    Type
REMARK                         _______ _______ _______ _____ _____    ______ ____
ROOT
ATOM      1  C   UNL     1       4.097   0.682   1.306  0.00  0.00    +0.151 C 
ENDROOT
BRANCH   1   2
ATOM      2  O   UNL     1       4.609   1.946   1.769  0.00  0.00    -0.389 OA
ATOM      3  H   UNL     1       5.578   1.928   1.686  0.00  0.00    +0.210 HD
ENDBRANCH   1   2
BRANCH   1   4
ATOM      4  C   UNL     1       4.787  -0.459   2.088  0.00  0.00    +0.142 C 
BRANCH   4   5
ATOM      5  N   UNL     1       4.493  -0.671   3.600  0.00  0.00    -0.174 NA
BRANCH   5   6
ATOM      6  S   UNL     1       5.108  -2.251   4.038  0.00  0.00    +0.061 S 
ATOM      7  O   UNL     1       4.573  -3.207   3.090  0.00  0.00    -0.153 OA
ATOM      8  O   UNL     1       4.900  -2.450   5.454  0.00  0.00    -0.153 OA
BRANCH   6   9
ATOM      9  C   UNL     1       6.868  -2.141   3.747  0.00  0.00    +0.106 A 
ATOM     10  C   UNL     1       7.423  -2.509   2.513  0.00  0.00    +0.030 A 
ATOM     11  C   UNL     1       8.799  -2.359   2.293  0.00  0.00    +0.024 A 
ATOM     12  C   UNL     1       9.634  -1.831   3.286  0.00  0.00    +0.025 A 
ATOM     13  C   UNL     1       9.090  -1.599   4.551  0.00  0.00    +0.024 A 
ATOM     14  C   UNL     1       7.720  -1.757   4.779  0.00  0.00    +0.030 A 
BRANCH  12  15
ATOM     15  N   UNL     1      11.020  -1.769   3.109  0.00  0.00    -0.358 N 
ATOM     16  H   UNL     1      11.319  -1.655   2.146  0.00  0.00    +0.142 HD
ATOM     17  H   UNL     1      11.493  -1.123   3.734  0.00  0.00    +0.142 HD
ENDBRANCH  12  15
ENDBRANCH   6   9
ENDBRANCH   5   6
BRANCH   5  18
ATOM     18  C   UNL     1       4.876   0.522   4.457  0.00  0.00    +0.112 C 
BRANCH  18  20
ATOM     19  C   UNL     1       3.085   0.650   6.411  0.00  0.00    +0.008 C 
ATOM     20  C   UNL     1       4.543   0.704   5.974  0.00  0.00    -0.001 C 
ATOM     21  C   UNL     1       5.415   0.016   7.026  0.00  0.00    +0.008 C 
ENDBRANCH  18  20
ENDBRANCH   5  18
ENDBRANCH   4   5
ENDBRANCH   1   4
BRANCH   1  22
ATOM     22  C   UNL     1       2.550   0.675   1.344  0.00  0.00    +0.110 C 
BRANCH  22  23
ATOM     23  N   UNL     1       1.830  -0.602   1.038  0.00  0.00    -0.275 N 
ATOM     24  H   UNL     1       1.429  -1.048   1.855  0.00  0.00    +0.152 HD
ATOM     25  C   UNL     1       1.746  -1.462  -0.021  0.00  0.00    +0.401 C 
ATOM     26  O   UNL     1       2.277  -1.340  -1.112  0.00  0.00    -0.226 OA
BRANCH  25  27
ATOM     27  O   UNL     1       1.006  -2.539   0.384  0.00  0.00    -0.445 OA
BRANCH  27  28
ATOM     28  C   UNL     1       1.073  -3.847  -0.245  0.00  0.00    +0.206 C 
ATOM     29  C   UNL     1       0.333  -4.067  -1.560  0.00  0.00    +0.204 C 
ATOM     30  O   UNL     1      -0.076  -5.457  -1.600  0.00  0.00    -0.376 OA
ATOM     31  C   UNL     1       0.072  -6.018  -0.288  0.00  0.00    +0.163 C 
ATOM     32  C   UNL     1       0.334  -4.847   0.640  0.00  0.00    +0.075 C 
ENDBRANCH  27  28
ENDBRANCH  25  27
ENDBRANCH  22  23
BRANCH  22  33
ATOM     33  C   UNL     1       1.866   2.019   0.898  0.00  0.00    +0.060 C 
BRANCH  33  34
ATOM     34  C   UNL     1       2.266   2.932  -0.263  0.00  0.00    -0.046 A 
ATOM     35  C   UNL     1       2.315   4.332  -0.040  0.00  0.00    +0.004 A 
ATOM     36  C   UNL     1       2.482   5.242  -1.090  0.00  0.00    +0.000 A 
ATOM     37  C   UNL     1       2.604   4.779  -2.393  0.00  0.00    +0.000 A 
ATOM     38  C   UNL     1       2.571   3.406  -2.631  0.00  0.00    +0.000 A 
ATOM     39  C   UNL     1       2.405   2.495  -1.570  0.00  0.00    +0.004 A 
ENDBRANCH  33  34
ENDBRANCH  22  33
ENDBRANCH   1  22
TORSDOF 14
