REMARK  Name = 
REMARK  5 active torsions:
REMARK  status: ('A' for Active; 'I' for Inactive)
REMARK    1  A    between atoms: C_1  and  C_2
REMARK    2  A    between atoms: C_10  and  C_25
REMARK    3  A    between atoms: C_16  and  N_17
REMARK    4  A    between atoms: N_20  and  C_23
REMARK    5  A    between atoms: C_25  and  O_27
REMARK                            x       y       z     vdW  Elec       q    Type
REMARK                         _______ _______ _______ _____ _____    ______ ____
ROOT
ATOM      1  C   UNL     1       3.656  -0.057   1.694  0.00  0.00    +0.034 C 
ATOM      2  C   UNL     1       2.819  -0.075   0.408  0.00  0.00    +0.122 C 
ATOM      3  N   UNL     1       3.112  -1.297  -0.374  0.00  0.00    -0.337 N 
ATOM      4  C   UNL     1       2.689  -2.496   0.134  0.00  0.00    +0.105 A 
ATOM      5  C   UNL     1       2.954  -3.717  -0.519  0.00  0.00    +0.122 A 
ATOM      6  C   UNL     1       3.677  -3.673  -1.729  0.00  0.00    +0.204 A 
ATOM      7  C   UNL     1       4.109  -2.442  -2.248  0.00  0.00    +0.052 A 
ATOM      8  C   UNL     1       4.845  -2.389  -3.435  0.00  0.00    +0.054 A 
ATOM      9  C   UNL     1       5.289  -1.180  -3.947  0.00  0.00    +0.149 A 
ATOM     10  F   UNL     1       6.038  -1.243  -5.077  0.00  0.00    -0.203 F 
ATOM     11  C   UNL     1       5.025   0.043  -3.281  0.00  0.00    +0.110 A 
ATOM     12  C   UNL     1       4.294  -0.013  -2.054  0.00  0.00    +0.168 A 
ATOM     13  O   UNL     1       4.037   1.109  -1.340  0.00  0.00    -0.486 OA
ATOM     14  O   UNL     1       3.938  -4.705  -2.329  0.00  0.00    -0.286 OA
ATOM     15  C   UNL     1       3.819  -1.248  -1.552  0.00  0.00    +0.097 A 
ATOM     16  C   UNL     1       3.012   1.214  -0.427  0.00  0.00    +0.254 C 
ENDROOT
BRANCH  11  17
ATOM     17  N   UNL     1       5.501   1.283  -3.856  0.00  0.00    -0.322 N 
ATOM     18  C   UNL     1       5.921   2.431  -3.059  0.00  0.00    +0.120 C 
ATOM     19  C   UNL     1       5.119   3.671  -3.489  0.00  0.00    +0.103 C 
ATOM     20  N   UNL     1       5.238   3.915  -4.944  0.00  0.00    -0.302 NA
ATOM     21  C   UNL     1       6.577   4.391  -5.342  0.00  0.00    +0.105 C 
ATOM     22  C   UNL     1       4.807   2.729  -5.709  0.00  0.00    +0.103 C 
ATOM     23  C   UNL     1       5.592   1.470  -5.305  0.00  0.00    +0.120 C 
ENDBRANCH  11  17
BRANCH   5  24
ATOM     24  C   UNL     1       2.489  -5.030   0.057  0.00  0.00    +0.342 C 
ATOM     25  O   UNL     1       2.754  -6.074  -0.518  0.00  0.00    -0.245 OA
BRANCH  24  26
ATOM     26  O   UNL     1       1.776  -5.117   1.203  0.00  0.00    -0.477 OA
ATOM     27  H   UNL     1       1.497  -4.368   1.741  0.00  0.00    +0.295 HD
ENDBRANCH  24  26
ENDBRANCH   5  24
TORSDOF 3
REMARK  Name = 
REMARK  5 active torsions:
REMARK  status: ('A' for Active; 'I' for Inactive)
REMARK    1  A    between atoms: C_1  and  C_2
REMARK    2  A    between atoms: C_10  and  C_25
REMARK    3  A    between atoms: C_16  and  N_17
REMARK    4  A    between atoms: N_20  and  C_23
REMARK    5  A    between atoms: C_25  and  O_27
REMARK                            x       y       z     vdW  Elec       q    Type
REMARK                         _______ _______ _______ _____ _____    ______ ____
ROOT
ATOM      1 CL   UNL     1      -0.476  -0.266  -1.176  0.00  0.00    -0.145 Cl
ATOM      2  H   UNL     1       0.764  -0.380  -1.758  0.00  0.00    +0.145 HD
ENDROOT
TORSDOF 0
