REMARK  Name = 
REMARK  5 active torsions:
REMARK  status: ('A' for Active; 'I' for Inactive)
REMARK    1  A    between atoms: C_1  and  C_2
REMARK    2  A    between atoms: C_10  and  C_25
REMARK    3  A    between atoms: C_16  and  N_17
REMARK    4  A    between atoms: N_20  and  C_23
REMARK    5  A    between atoms: C_25  and  O_27
REMARK                            x       y       z     vdW  Elec       q    Type
REMARK                         _______ _______ _______ _____ _____    ______ ____
ROOT
ATOM      1  C   UNL     1       3.576   0.145   1.438  0.00  0.00    +0.034 C 
ATOM      2  C   UNL     1       2.794   0.089   0.121  0.00  0.00    +0.122 C 
ATOM      3  N   UNL     1       3.107  -1.162  -0.615  0.00  0.00    -0.337 N 
ATOM      4  C   UNL     1       2.688  -2.346  -0.071  0.00  0.00    +0.105 A 
ATOM      5  C   UNL     1       2.961  -3.586  -0.681  0.00  0.00    +0.122 A 
ATOM      6  C   UNL     1       3.692  -3.581  -1.888  0.00  0.00    +0.204 A 
ATOM      7  C   UNL     1       4.130  -2.365  -2.442  0.00  0.00    +0.052 A 
ATOM      8  C   UNL     1       4.881  -2.341  -3.628  0.00  0.00    +0.054 A 
ATOM      9  C   UNL     1       5.333  -1.140  -4.160  0.00  0.00    +0.149 A 
ATOM     10  F   UNL     1       6.085  -1.216  -5.294  0.00  0.00    -0.203 F 
ATOM     11  C   UNL     1       5.054   0.094  -3.527  0.00  0.00    +0.110 A 
ATOM     12  C   UNL     1       4.301   0.060  -2.317  0.00  0.00    +0.168 A 
ATOM     13  O   UNL     1       4.018   1.210  -1.657  0.00  0.00    -0.486 OA
ATOM     14  O   UNL     1       3.956  -4.629  -2.454  0.00  0.00    -0.286 OA
ATOM     15  C   UNL     1       3.828  -1.153  -1.785  0.00  0.00    +0.097 A 
ATOM     16  C   UNL     1       3.012   1.353  -0.735  0.00  0.00    +0.254 C 
ENDROOT
BRANCH  11  17
ATOM     17  N   UNL     1       5.489   1.349  -4.098  0.00  0.00    -0.322 N 
ATOM     18  C   UNL     1       5.565   1.570  -5.541  0.00  0.00    +0.120 C 
ATOM     19  C   UNL     1       6.969   2.078  -5.904  0.00  0.00    +0.103 C 
ATOM     20  N   UNL     1       7.329   3.280  -5.118  0.00  0.00    -0.302 NA
ATOM     21  C   UNL     1       6.572   4.481  -5.522  0.00  0.00    +0.105 C 
ATOM     22  C   UNL     1       7.228   3.008  -3.671  0.00  0.00    +0.103 C 
ATOM     23  C   UNL     1       5.832   2.509  -3.279  0.00  0.00    +0.120 C 
ENDBRANCH  11  17
BRANCH   5  24
ATOM     24  C   UNL     1       2.493  -4.877  -0.060  0.00  0.00    +0.342 C 
ATOM     25  O   UNL     1       2.760  -5.939  -0.598  0.00  0.00    -0.245 OA
BRANCH  24  26
ATOM     26  O   UNL     1       1.786  -4.926   1.088  0.00  0.00    -0.477 OA
ATOM     27  H   UNL     1       1.513  -4.160   1.609  0.00  0.00    +0.295 HD
ENDBRANCH  24  26
ENDBRANCH   5  24
TORSDOF 3
REMARK  Name = 
REMARK  5 active torsions:
REMARK  status: ('A' for Active; 'I' for Inactive)
REMARK    1  A    between atoms: C_1  and  C_2
REMARK    2  A    between atoms: C_10  and  C_25
REMARK    3  A    between atoms: C_16  and  N_17
REMARK    4  A    between atoms: N_20  and  C_23
REMARK    5  A    between atoms: C_25  and  O_27
REMARK                            x       y       z     vdW  Elec       q    Type
REMARK                         _______ _______ _______ _____ _____    ______ ____
ROOT
ATOM      1 CL   UNL     1      -0.921  -0.748  -0.237  0.00  0.00    -0.145 Cl
ATOM      2  H   UNL     1      -0.072  -1.383   0.639  0.00  0.00    +0.145 HD
ENDROOT
TORSDOF 0
