REMARK  Name = 
REMARK  10 active torsions:
REMARK  status: ('A' for Active; 'I' for Inactive)
REMARK    1  A    between atoms: C_1  and  O_2
REMARK    2  A    between atoms: O_2  and  C_3
REMARK    3  A    between atoms: C_4  and  N_13
REMARK    4  A    between atoms: C_6  and  C_9
REMARK    5  A    between atoms: C_14  and  C_38
REMARK    6  A    between atoms: N_27  and  C_30
REMARK    7  A    between atoms: C_32  and  O_36
REMARK    8  A    between atoms: O_36  and  C_37
REMARK    9  A    between atoms: C_38  and  C_39
REMARK   10  A    between atoms: C_39  and  O_41
REMARK                            x       y       z     vdW  Elec       q    Type
REMARK                         _______ _______ _______ _____ _____    ______ ____
ROOT
ATOM      1  N   UNL     1       3.344   2.177   1.142  0.00  0.00    -0.181 N 
ATOM      2  C   UNL     1       3.126   2.275  -0.242  0.00  0.00    +0.380 C 
ATOM      3  N   UNL     1       2.962   1.144  -1.034  0.00  0.00    -0.221 N 
ATOM      4  C   UNL     1       2.325   1.350  -2.366  0.00  0.00    +0.206 C 
ATOM      5  C   UNL     1       1.561   0.088  -2.777  0.00  0.00    +0.140 C 
ATOM      6  N   UNL     1       2.485  -1.070  -2.861  0.00  0.00    -0.324 N 
ATOM      7  C   UNL     1       3.258  -1.283  -1.619  0.00  0.00    +0.140 C 
ATOM      8  C   UNL     1       3.950   0.043  -1.147  0.00  0.00    +0.206 C 
ATOM      9  N   UNL     1       2.988   3.413  -0.877  0.00  0.00    -0.073 NA
ATOM     10  C   UNL     1       3.173   4.643  -0.259  0.00  0.00    +0.183 A 
ATOM     11  C   UNL     1       3.035   5.828  -0.998  0.00  0.00    +0.166 A 
ATOM     12  F   UNL     1       2.595   5.785  -2.266  0.00  0.00    -0.202 F 
ATOM     13  C   UNL     1       3.369   7.068  -0.459  0.00  0.00    +0.042 A 
ATOM     14  C   UNL     1       3.871   7.138   0.834  0.00  0.00    +0.003 A 
ATOM     15  C   UNL     1       3.982   5.969   1.589  0.00  0.00    +0.010 A 
ATOM     16  C   UNL     1       3.593   4.718   1.057  0.00  0.00    +0.033 A 
ATOM     17  C   UNL     1       3.641   3.455   1.889  0.00  0.00    +0.189 C 
ENDROOT
BRANCH   1  23
ATOM     18  C   UNL     1       2.784  -0.225   1.781  0.00  0.00    +0.156 A 
ATOM     19  C   UNL     1       3.211  -1.396   2.453  0.00  0.00    +0.049 A 
ATOM     20  C   UNL     1       4.284  -1.398   3.340  0.00  0.00    +0.016 A 
ATOM     21  C   UNL     1       4.957  -0.213   3.589  0.00  0.00    +0.058 A 
ATOM     22  C   UNL     1       4.597   0.925   2.846  0.00  0.00    +0.056 A 
ATOM     23  C   UNL     1       3.525   0.973   1.903  0.00  0.00    +0.137 A 
BRANCH  21  24
ATOM     24  C   UNL     1       6.057  -0.152   4.625  0.00  0.00    +0.418 C 
ATOM     25  F   UNL     1       7.142  -0.899   4.289  0.00  0.00    -0.166 F 
ATOM     26  F   UNL     1       5.641  -0.608   5.838  0.00  0.00    -0.166 F 
ATOM     27  F   UNL     1       6.518   1.111   4.843  0.00  0.00    -0.166 F 
ENDBRANCH  21  24
BRANCH  18  29
ATOM     28  C   UNL     1       0.601   0.328   0.872  0.00  0.00    +0.277 C 
ATOM     29  O   UNL     1       1.731  -0.524   0.965  0.00  0.00    -0.492 OA
ENDBRANCH  18  29
ENDBRANCH   1  23
BRANCH   6  30
ATOM     30  C   UNL     1       1.915  -2.149  -3.546  0.00  0.00    +0.033 A 
ATOM     31  C   UNL     1       1.599  -1.961  -4.904  0.00  0.00    +0.023 A 
ATOM     32  C   UNL     1       0.997  -2.952  -5.673  0.00  0.00    +0.005 A 
ATOM     33  C   UNL     1       0.715  -4.181  -5.095  0.00  0.00    +0.046 A 
ATOM     34  C   UNL     1       1.032  -4.423  -3.757  0.00  0.00    +0.122 A 
ATOM     35  C   UNL     1       1.629  -3.410  -2.983  0.00  0.00    +0.068 A 
BRANCH  34  36
ATOM     36  O   UNL     1       0.710  -5.689  -3.352  0.00  0.00    -0.495 OA
ATOM     37  C   UNL     1       0.923  -6.036  -1.993  0.00  0.00    +0.277 C 
ENDBRANCH  34  36
ENDBRANCH   6  30
BRANCH  17  38
ATOM     38  C   UNL     1       2.799   3.607   3.166  0.00  0.00    +0.164 C 
BRANCH  38  39
ATOM     39  C   UNL     1       1.325   3.762   2.894  0.00  0.00    +0.308 C 
ATOM     40  O   UNL     1       0.784   4.831   2.663  0.00  0.00    -0.251 OA
BRANCH  39  41
ATOM     41  O   UNL     1       0.633   2.611   3.007  0.00  0.00    -0.481 OA
ATOM     42  H   UNL     1       1.193   1.827   3.168  0.00  0.00    +0.295 HD
ENDBRANCH  39  41
ENDBRANCH  38  39
ENDBRANCH  17  38
TORSDOF 8
