REMARK  Name = 
REMARK  10 active torsions:
REMARK  status: ('A' for Active; 'I' for Inactive)
REMARK    1  A    between atoms: C_1  and  C_2
REMARK    2  A    between atoms: N_4  and  C_10
REMARK    3  A    between atoms: C_14  and  C_17
REMARK    4  A    between atoms: C_17  and  O_18
REMARK    5  A    between atoms: C_21  and  C_22
REMARK    6  A    between atoms: C_23  and  C_24
REMARK    7  A    between atoms: C_24  and  C_36
REMARK    8  A    between atoms: C_41  and  N_49
REMARK    9  A    between atoms: C_44  and  C_47
REMARK   10  A    between atoms: C_47  and  O_48
REMARK                            x       y       z     vdW  Elec       q    Type
REMARK                         _______ _______ _______ _____ _____    ______ ____
ROOT
ATOM      1  C   UNL     1       2.364   0.217  -1.774  0.00  0.00    +0.051 C 
ATOM      2  C   UNL     1       3.693   0.193  -1.127  0.00  0.00    +0.030 A 
ATOM      3  C   UNL     1       4.381  -1.079  -0.832  0.00  0.00    +0.257 A 
ATOM      4  O   UNL     1       3.897  -2.160  -1.067  0.00  0.00    -0.267 OA
ATOM      5  N   UNL     1       5.643  -0.936  -0.276  0.00  0.00    -0.275 N 
ATOM      6  H   UNL     1       6.150  -1.778  -0.136  0.00  0.00    +0.173 HD
ATOM      7  C   UNL     1       6.327   0.246  -0.171  0.00  0.00    +0.332 A 
ATOM      8  O   UNL     1       7.539   0.191   0.100  0.00  0.00    -0.246 OA
ATOM      9  N   UNL     1       5.615   1.401  -0.428  0.00  0.00    -0.270 N 
ATOM     10  C   UNL     1       4.321   1.345  -0.866  0.00  0.00    +0.102 A 
ENDROOT
BRANCH   9  11
ATOM     11  C   UNL     1       6.341   2.656  -0.547  0.00  0.00    +0.248 C 
ATOM     12  O   UNL     1       5.592   3.744   0.033  0.00  0.00    -0.343 OA
ATOM     13  C   UNL     1       5.693   4.863  -0.877  0.00  0.00    +0.169 C 
ATOM     14  C   UNL     1       5.974   4.244  -2.202  0.00  0.00    +0.007 C 
ATOM     15  C   UNL     1       6.421   3.003  -2.005  0.00  0.00    +0.025 C 
BRANCH  13  16
ATOM     16  C   UNL     1       4.464   5.783  -0.801  0.00  0.00    +0.191 C 
BRANCH  16  17
ATOM     17  O   UNL     1       3.233   5.119  -1.098  0.00  0.00    -0.392 OA
ATOM     18  H   UNL     1       2.531   5.761  -0.901  0.00  0.00    +0.210 HD
ENDBRANCH  16  17
ENDBRANCH  13  16
ENDBRANCH   9  11
TORSDOF 3
REMARK  Name = 
REMARK  10 active torsions:
REMARK  status: ('A' for Active; 'I' for Inactive)
REMARK    1  A    between atoms: C_1  and  C_2
REMARK    2  A    between atoms: N_4  and  C_10
REMARK    3  A    between atoms: C_14  and  C_17
REMARK    4  A    between atoms: C_17  and  O_18
REMARK    5  A    between atoms: C_21  and  C_22
REMARK    6  A    between atoms: C_23  and  C_24
REMARK    7  A    between atoms: C_24  and  C_36
REMARK    8  A    between atoms: C_41  and  N_49
REMARK    9  A    between atoms: C_44  and  C_47
REMARK   10  A    between atoms: C_47  and  O_48
REMARK                            x       y       z     vdW  Elec       q    Type
REMARK                         _______ _______ _______ _____ _____    ______ ____
ROOT
ATOM      1  C   UNL     1       2.990  -1.600   3.547  0.00  0.00    +0.296 C 
ATOM      2  O   UNL     1       3.871  -0.475   3.819  0.00  0.00    -0.417 OA
ATOM      3  C   UNL     1       5.116  -0.394   3.309  0.00  0.00    +0.407 C 
ATOM      4  O   UNL     1       5.704   0.676   3.221  0.00  0.00    -0.226 OA
ATOM      5  N   UNL     1       5.723  -1.564   2.966  0.00  0.00    -0.251 N 
ATOM      6  H   UNL     1       6.691  -1.464   2.685  0.00  0.00    +0.158 HD
ATOM      7  C   UNL     1       5.111  -2.807   2.982  0.00  0.00    +0.045 A 
ATOM      8  C   UNL     1       5.859  -3.950   2.690  0.00  0.00    +0.025 A 
ATOM      9  C   UNL     1       5.231  -5.195   2.644  0.00  0.00    +0.022 A 
ATOM     10  C   UNL     1       3.858  -5.282   2.859  0.00  0.00    +0.042 A 
ATOM     11 CL   UNL     1       3.075  -6.811   2.777  0.00  0.00    -0.084 Cl
ATOM     12  C   UNL     1       3.115  -4.136   3.144  0.00  0.00    +0.030 A 
ATOM     13  C   UNL     1       3.747  -2.882   3.245  0.00  0.00    +0.040 A 
ENDROOT
BRANCH   1  14
ATOM     14  C   UNL     1       2.025  -1.718   4.781  0.00  0.00    +0.446 C 
ATOM     15  F   UNL     1       2.343  -0.832   5.762  0.00  0.00    -0.165 F 
ATOM     16  F   UNL     1       2.057  -2.941   5.372  0.00  0.00    -0.165 F 
ATOM     17  F   UNL     1       0.727  -1.485   4.466  0.00  0.00    -0.165 F 
ENDBRANCH   1  14
BRANCH   1  19
ATOM     18  C   UNL     1       1.553  -0.831   1.241  0.00  0.00    -0.094 C 
ATOM     19  C   UNL     1       2.216  -1.186   2.306  0.00  0.00    -0.041 C 
BRANCH  18  21
ATOM     20  C   UNL     1      -0.674  -0.884   1.063  0.00  0.00    +0.017 C 
ATOM     21  C   UNL     1       0.537  -1.383   0.444  0.00  0.00    +0.064 C 
ATOM     22  C   UNL     1      -0.599  -2.346   0.735  0.00  0.00    +0.017 C 
ENDBRANCH  18  21
ENDBRANCH   1  19
TORSDOF 3
REMARK  Name = 
REMARK  10 active torsions:
REMARK  status: ('A' for Active; 'I' for Inactive)
REMARK    1  A    between atoms: C_1  and  C_2
REMARK    2  A    between atoms: N_4  and  C_10
REMARK    3  A    between atoms: C_14  and  C_17
REMARK    4  A    between atoms: C_17  and  O_18
REMARK    5  A    between atoms: C_21  and  C_22
REMARK    6  A    between atoms: C_23  and  C_24
REMARK    7  A    between atoms: C_24  and  C_36
REMARK    8  A    between atoms: C_41  and  N_49
REMARK    9  A    between atoms: C_44  and  C_47
REMARK   10  A    between atoms: C_47  and  O_48
REMARK                            x       y       z     vdW  Elec       q    Type
REMARK                         _______ _______ _______ _____ _____    ______ ____
ROOT
ATOM      1  N   UNL     1      -2.671   1.189   1.655  0.00  0.00    -0.272 N 
ATOM      2  C   UNL     1      -3.388   0.032   1.996  0.00  0.00    +0.352 A 
ATOM      3  O   UNL     1      -3.905  -0.664   1.117  0.00  0.00    -0.244 OA
ATOM      4  N   UNL     1      -3.497  -0.329   3.326  0.00  0.00    -0.178 NA
ATOM      5  C   UNL     1      -3.052   0.468   4.247  0.00  0.00    +0.123 A 
ATOM      6  N   UNL     1      -3.227   0.095   5.563  0.00  0.00    -0.343 N 
ATOM      7  H   UNL     1      -3.435  -0.890   5.692  0.00  0.00    +0.144 HD
ATOM      8  H   UNL     1      -2.614   0.489   6.264  0.00  0.00    +0.144 HD
ATOM      9  C   UNL     1      -2.355   1.720   3.955  0.00  0.00    +0.061 A 
ATOM     10  C   UNL     1      -2.196   2.012   2.663  0.00  0.00    +0.096 A 
ENDROOT
BRANCH   1  15
ATOM     11  C   UNL     1      -2.386   0.690  -0.939  0.00  0.00    +0.126 C 
ATOM     12  S   UNL     1      -0.911   1.312  -1.794  0.00  0.00    -0.123 S 
ATOM     13  C   UNL     1      -0.678   2.680  -0.640  0.00  0.00    +0.203 C 
ATOM     14  O   UNL     1      -1.867   2.867   0.125  0.00  0.00    -0.340 OA
ATOM     15  C   UNL     1      -2.663   1.662   0.244  0.00  0.00    +0.235 C 
BRANCH  13  16
ATOM     16  C   UNL     1       0.625   2.741   0.227  0.00  0.00    +0.198 C 
BRANCH  16  17
ATOM     17  O   UNL     1       0.667   1.929   1.369  0.00  0.00    -0.392 OA
ATOM     18  H   UNL     1       1.578   1.963   1.722  0.00  0.00    +0.210 HD
ENDBRANCH  16  17
ENDBRANCH  13  16
ENDBRANCH   1  15
TORSDOF 3
