REMARK  Name = 
REMARK  10 active torsions:
REMARK  status: ('A' for Active; 'I' for Inactive)
REMARK    1  A    between atoms: C_1  and  C_2
REMARK    2  A    between atoms: N_4  and  C_10
REMARK    3  A    between atoms: C_14  and  C_17
REMARK    4  A    between atoms: C_17  and  O_18
REMARK    5  A    between atoms: C_21  and  C_22
REMARK    6  A    between atoms: C_23  and  C_24
REMARK    7  A    between atoms: C_24  and  C_36
REMARK    8  A    between atoms: C_41  and  N_49
REMARK    9  A    between atoms: C_44  and  C_47
REMARK   10  A    between atoms: C_47  and  O_48
REMARK                            x       y       z     vdW  Elec       q    Type
REMARK                         _______ _______ _______ _____ _____    ______ ____
ROOT
ATOM      1  C   UNL     1       2.953   0.529  -2.332  0.00  0.00    +0.051 C 
ATOM      2  C   UNL     1       3.837   0.246  -1.181  0.00  0.00    +0.030 A 
ATOM      3  C   UNL     1       4.510  -1.052  -1.000  0.00  0.00    +0.257 A 
ATOM      4  O   UNL     1       4.122  -2.087  -1.550  0.00  0.00    -0.267 OA
ATOM      5  N   UNL     1       5.580  -1.022  -0.164  0.00  0.00    -0.275 N 
ATOM      6  H   UNL     1       6.120  -1.871  -0.129  0.00  0.00    +0.173 HD
ATOM      7  C   UNL     1       6.274   0.140   0.106  0.00  0.00    +0.332 A 
ATOM      8  O   UNL     1       7.477   0.088   0.331  0.00  0.00    -0.246 OA
ATOM      9  N   UNL     1       5.522   1.309   0.031  0.00  0.00    -0.270 N 
ATOM     10  C   UNL     1       4.221   1.278  -0.425  0.00  0.00    +0.102 A 
ENDROOT
BRANCH   9  11
ATOM     11  C   UNL     1       6.245   2.552  -0.240  0.00  0.00    +0.248 C 
ATOM     12  O   UNL     1       5.546   3.704   0.299  0.00  0.00    -0.343 OA
ATOM     13  C   UNL     1       5.763   4.780  -0.650  0.00  0.00    +0.169 C 
ATOM     14  C   UNL     1       5.849   4.076  -1.958  0.00  0.00    +0.007 C 
ATOM     15  C   UNL     1       6.196   2.808  -1.729  0.00  0.00    +0.025 C 
BRANCH  13  16
ATOM     16  C   UNL     1       4.679   5.860  -0.552  0.00  0.00    +0.191 C 
BRANCH  16  17
ATOM     17  O   UNL     1       3.380   5.372  -0.880  0.00  0.00    -0.392 OA
ATOM     18  H   UNL     1       3.236   4.594  -0.316  0.00  0.00    +0.210 HD
ENDBRANCH  16  17
ENDBRANCH  13  16
ENDBRANCH   9  11
TORSDOF 3
REMARK  Name = 
REMARK  10 active torsions:
REMARK  status: ('A' for Active; 'I' for Inactive)
REMARK    1  A    between atoms: C_1  and  C_2
REMARK    2  A    between atoms: N_4  and  C_10
REMARK    3  A    between atoms: C_14  and  C_17
REMARK    4  A    between atoms: C_17  and  O_18
REMARK    5  A    between atoms: C_21  and  C_22
REMARK    6  A    between atoms: C_23  and  C_24
REMARK    7  A    between atoms: C_24  and  C_36
REMARK    8  A    between atoms: C_41  and  N_49
REMARK    9  A    between atoms: C_44  and  C_47
REMARK   10  A    between atoms: C_47  and  O_48
REMARK                            x       y       z     vdW  Elec       q    Type
REMARK                         _______ _______ _______ _____ _____    ______ ____
ROOT
ATOM      1  C   UNL     1       2.990  -1.600   3.547  0.00  0.00    +0.296 C 
ATOM      2  O   UNL     1       3.863  -0.462   3.803  0.00  0.00    -0.417 OA
ATOM      3  C   UNL     1       5.151  -0.406   3.415  0.00  0.00    +0.407 C 
ATOM      4  O   UNL     1       5.770   0.651   3.418  0.00  0.00    -0.226 OA
ATOM      5  N   UNL     1       5.751  -1.574   3.057  0.00  0.00    -0.251 N 
ATOM      6  H   UNL     1       6.734  -1.480   2.830  0.00  0.00    +0.158 HD
ATOM      7  C   UNL     1       5.123  -2.806   2.998  0.00  0.00    +0.045 A 
ATOM      8  C   UNL     1       5.867  -3.949   2.697  0.00  0.00    +0.025 A 
ATOM      9  C   UNL     1       5.231  -5.189   2.616  0.00  0.00    +0.022 A 
ATOM     10  C   UNL     1       3.855  -5.272   2.808  0.00  0.00    +0.042 A 
ATOM     11 CL   UNL     1       3.065  -6.795   2.700  0.00  0.00    -0.084 Cl
ATOM     12  C   UNL     1       3.114  -4.125   3.092  0.00  0.00    +0.030 A 
ATOM     13  C   UNL     1       3.753  -2.875   3.218  0.00  0.00    +0.040 A 
ENDROOT
BRANCH   1  14
ATOM     14  C   UNL     1       2.134  -1.778   4.849  0.00  0.00    +0.446 C 
ATOM     15  F   UNL     1       2.475  -0.876   5.808  0.00  0.00    -0.165 F 
ATOM     16  F   UNL     1       2.287  -2.997   5.429  0.00  0.00    -0.165 F 
ATOM     17  F   UNL     1       0.813  -1.630   4.653  0.00  0.00    -0.165 F 
ENDBRANCH   1  14
BRANCH   1  19
ATOM     18  C   UNL     1       1.553  -0.831   1.241  0.00  0.00    -0.094 C 
ATOM     19  C   UNL     1       2.216  -1.186   2.306  0.00  0.00    -0.041 C 
BRANCH  18  21
ATOM     20  C   UNL     1       0.494   0.204  -1.014  0.00  0.00    +0.017 C 
ATOM     21  C   UNL     1       1.075  -0.944  -0.189  0.00  0.00    +0.064 C 
ATOM     22  C   UNL     1      -0.359  -0.964  -0.709  0.00  0.00    +0.017 C 
ENDBRANCH  18  21
ENDBRANCH   1  19
TORSDOF 3
REMARK  Name = 
REMARK  10 active torsions:
REMARK  status: ('A' for Active; 'I' for Inactive)
REMARK    1  A    between atoms: C_1  and  C_2
REMARK    2  A    between atoms: N_4  and  C_10
REMARK    3  A    between atoms: C_14  and  C_17
REMARK    4  A    between atoms: C_17  and  O_18
REMARK    5  A    between atoms: C_21  and  C_22
REMARK    6  A    between atoms: C_23  and  C_24
REMARK    7  A    between atoms: C_24  and  C_36
REMARK    8  A    between atoms: C_41  and  N_49
REMARK    9  A    between atoms: C_44  and  C_47
REMARK   10  A    between atoms: C_47  and  O_48
REMARK                            x       y       z     vdW  Elec       q    Type
REMARK                         _______ _______ _______ _____ _____    ______ ____
ROOT
ATOM      1  N   UNL     1      -3.533   1.174   2.573  0.00  0.00    -0.272 N 
ATOM      2  C   UNL     1      -4.762   0.646   2.959  0.00  0.00    +0.352 A 
ATOM      3  O   UNL     1      -5.169  -0.428   2.524  0.00  0.00    -0.244 OA
ATOM      4  N   UNL     1      -5.535   1.412   3.802  0.00  0.00    -0.178 NA
ATOM      5  C   UNL     1      -5.106   2.596   4.130  0.00  0.00    +0.123 A 
ATOM      6  N   UNL     1      -5.972   3.368   4.841  0.00  0.00    -0.343 N 
ATOM      7  H   UNL     1      -6.671   2.826   5.329  0.00  0.00    +0.144 HD
ATOM      8  H   UNL     1      -5.567   4.127   5.380  0.00  0.00    +0.144 HD
ATOM      9  C   UNL     1      -3.820   3.157   3.786  0.00  0.00    +0.061 A 
ATOM     10  C   UNL     1      -3.079   2.397   3.030  0.00  0.00    +0.096 A 
ENDROOT
BRANCH   1  15
ATOM     11  C   UNL     1      -2.476  -0.963   1.793  0.00  0.00    +0.126 C 
ATOM     12  S   UNL     1      -1.138  -0.726   2.955  0.00  0.00    -0.123 S 
ATOM     13  C   UNL     1      -0.588   0.762   2.082  0.00  0.00    +0.203 C 
ATOM     14  O   UNL     1      -1.633   1.284   1.258  0.00  0.00    -0.340 OA
ATOM     15  C   UNL     1      -2.825   0.511   1.498  0.00  0.00    +0.235 C 
BRANCH  13  16
ATOM     16  C   UNL     1       0.438   1.715   2.741  0.00  0.00    +0.198 C 
BRANCH  16  17
ATOM     17  O   UNL     1       1.201   2.414   1.733  0.00  0.00    -0.392 OA
ATOM     18  H   UNL     1       1.913   2.899   2.188  0.00  0.00    +0.210 HD
ENDBRANCH  16  17
ENDBRANCH  13  16
ENDBRANCH   1  15
TORSDOF 3
