REMARK  Name = 
REMARK  8 active torsions:
REMARK  status: ('A' for Active; 'I' for Inactive)
REMARK    1  A    between atoms: C_2  and  C_6
REMARK    2  A    between atoms: C_6  and  C_7
REMARK    3  A    between atoms: C_7  and  N_8
REMARK    4  A    between atoms: C_9  and  C_11
REMARK    5  A    between atoms: C_11  and  C_12
REMARK    6  A    between atoms: C_12  and  C_13
REMARK    7  A    between atoms: C_13  and  C_14
REMARK    8  A    between atoms: C_14  and  O_16
REMARK                            x       y       z     vdW  Elec       q    Type
REMARK                         _______ _______ _______ _____ _____    ______ ____
ROOT
ATOM      1  N   UNL     1      -2.808   4.045  -0.001  0.00  0.00    -0.315 N 
ATOM      2  H   UNL     1      -2.165   4.827  -0.017  0.00  0.00    +0.149 HD
ATOM      3  C   UNL     1      -4.166   4.270  -0.038  0.00  0.00    +0.213 C 
ATOM      4  O   UNL     1      -4.993   3.367  -0.095  0.00  0.00    -0.276 OA
ENDROOT
BRANCH   1   5
ATOM      5  C   UNL     1      -2.270   2.699   0.025  0.00  0.00    +0.110 C 
BRANCH   5   6
ATOM      6  C   UNL     1      -2.105   2.108  -1.378  0.00  0.00    +0.073 C 
BRANCH   6  12
ATOM      7  C   UNL     1      -0.364   0.152  -1.277  0.00  0.00    +0.133 A 
ATOM      8  N   UNL     1      -0.427  -1.215  -1.210  0.00  0.00    -0.244 NA
ATOM      9  C   UNL     1      -1.708  -1.505  -1.222  0.00  0.00    +0.196 A 
ATOM     10  N   UNL     1      -2.476  -0.378  -1.291  0.00  0.00    -0.348 N 
ATOM     11  H   UNL     1      -3.487  -0.350  -1.311  0.00  0.00    +0.166 HD
ATOM     12  C   UNL     1      -1.627   0.701  -1.321  0.00  0.00    +0.037 A 
ENDBRANCH   6  12
ENDBRANCH   5   6
ENDBRANCH   1   5
BRANCH   3  13
ATOM     13  C   UNL     1      -4.545   5.739   0.005  0.00  0.00    +0.096 C 
BRANCH  13  14
ATOM     14  C   UNL     1      -5.879   5.969   0.721  0.00  0.00    +0.020 C 
BRANCH  14  15
ATOM     15  C   UNL     1      -5.875   5.524   2.188  0.00  0.00    +0.121 C 
BRANCH  15  16
ATOM     16  C   UNL     1      -4.865   6.281   3.018  0.00  0.00    +0.305 C 
ATOM     17  O   UNL     1      -4.516   7.433   2.807  0.00  0.00    -0.251 OA
BRANCH  16  18
ATOM     18  O   UNL     1      -4.377   5.558   4.051  0.00  0.00    -0.481 OA
ATOM     19  H   UNL     1      -4.742   4.655   4.115  0.00  0.00    +0.295 HD
ENDBRANCH  16  18
ENDBRANCH  15  16
ENDBRANCH  14  15
ENDBRANCH  13  14
ENDBRANCH   3  13
TORSDOF 8
