REMARK  Name = 
REMARK  27 active torsions:
REMARK  status: ('A' for Active; 'I' for Inactive)
REMARK    1  A    between atoms: C_1  and  C_2
REMARK    2  A    between atoms: C_2  and  C_3
REMARK    3  A    between atoms: C_2  and  C_4
REMARK    4  A    between atoms: C_2  and  C_5
REMARK    5  A    between atoms: C_5  and  C_7
REMARK    6  A    between atoms: C_5  and  N_51
REMARK    7  A    between atoms: N_9  and  C_10
REMARK    8  A    between atoms: C_10  and  C_12
REMARK    9  A    between atoms: C_10  and  C_19
REMARK   10  A    between atoms: C_12  and  C_13
REMARK   11  A    between atoms: C_19  and  C_21
REMARK   12  A    between atoms: C_19  and  O_50
REMARK   13  A    between atoms: C_21  and  N_22
REMARK   14  A    between atoms: N_22  and  C_23
REMARK   15  A    between atoms: N_22  and  N_36
REMARK   16  A    between atoms: C_23  and  C_24
REMARK   17  A    between atoms: C_27  and  C_30
REMARK   18  A    between atoms: C_37  and  C_39
REMARK   19  A    between atoms: C_39  and  C_41
REMARK   20  A    between atoms: C_39  and  N_45
REMARK   21  A    between atoms: C_41  and  C_42
REMARK   22  A    between atoms: C_41  and  C_43
REMARK   23  A    between atoms: C_41  and  C_44
REMARK   24  A    between atoms: C_46  and  O_48
REMARK   25  A    between atoms: O_48  and  C_49
REMARK   26  A    between atoms: C_52  and  O_54
REMARK   27  A    between atoms: O_54  and  C_55
REMARK                            x       y       z     vdW  Elec       q    Type
REMARK                         _______ _______ _______ _____ _____    ______ ____
ROOT
ATOM      1  N   UNL     1      -0.361   0.206   1.525  0.00  0.00    -0.220 NA
ENDROOT
BRANCH   1   2
ATOM      2  N   UNL     1      -0.970  -1.073   1.327  0.00  0.00    -0.246 N 
ATOM      3  H   UNL     1      -0.656  -1.863   1.885  0.00  0.00    +0.169 HD
ATOM      4  C   UNL     1      -2.009  -1.216   0.411  0.00  0.00    +0.248 C 
ATOM      5  O   UNL     1      -2.405  -0.311  -0.326  0.00  0.00    -0.272 OA
BRANCH   4   6
ATOM      6  C   UNL     1      -2.571  -2.654   0.336  0.00  0.00    +0.169 C 
BRANCH   6   7
ATOM      7  C   UNL     1      -4.084  -2.798   0.698  0.00  0.00    -0.011 C 
ATOM      8  C   UNL     1      -4.329  -2.372   2.158  0.00  0.00    +0.013 C 
ATOM      9  C   UNL     1      -4.502  -4.283   0.569  0.00  0.00    +0.013 C 
ATOM     10  C   UNL     1      -5.003  -1.969  -0.219  0.00  0.00    +0.013 C 
ENDBRANCH   6   7
BRANCH   6  11
ATOM     11  N   UNL     1      -2.300  -3.107  -1.021  0.00  0.00    -0.269 N 
ATOM     12  H   UNL     1      -2.617  -2.545  -1.801  0.00  0.00    +0.153 HD
ATOM     13  C   UNL     1      -1.482  -4.149  -1.315  0.00  0.00    +0.401 C 
ATOM     14  O   UNL     1      -0.916  -4.852  -0.493  0.00  0.00    -0.226 OA
BRANCH  13  15
ATOM     15  O   UNL     1      -1.431  -4.299  -2.659  0.00  0.00    -0.454 OA
ATOM     16  C   UNL     1      -0.689  -5.438  -3.095  0.00  0.00    +0.282 C 
ENDBRANCH  13  15
ENDBRANCH   6  11
ENDBRANCH   4   6
ENDBRANCH   1   2
BRANCH   1  17
ATOM     17  C   UNL     1      -1.124   0.894   2.595  0.00  0.00    +0.139 C 
BRANCH  17  18
ATOM     18  C   UNL     1      -0.919   2.360   3.068  0.00  0.00    +0.151 C 
BRANCH  18  19
ATOM     19  O   UNL     1      -1.899   2.563   4.111  0.00  0.00    -0.389 OA
ATOM     20  H   UNL     1      -1.480   2.426   4.975  0.00  0.00    +0.210 HD
ENDBRANCH  18  19
BRANCH  18  21
ATOM     21  C   UNL     1      -1.120   3.496   2.008  0.00  0.00    +0.107 C 
BRANCH  21  23
ATOM     22  C   UNL     1      -1.896   5.555   3.367  0.00  0.00    +0.234 C 
ATOM     23  N   UNL     1      -1.003   4.866   2.579  0.00  0.00    -0.308 N 
ATOM     24  H   UNL     1      -0.214   5.409   2.263  0.00  0.00    +0.149 HD
ATOM     25  O   UNL     1      -3.053   5.199   3.554  0.00  0.00    -0.274 OA
BRANCH  22  26
ATOM     26  C   UNL     1      -1.344   6.939   3.852  0.00  0.00    +0.167 C 
BRANCH  26  27
ATOM     27  N   UNL     1       0.106   6.839   4.064  0.00  0.00    -0.269 N 
ATOM     28  H   UNL     1       0.740   6.766   3.284  0.00  0.00    +0.153 HD
ATOM     29  C   UNL     1       0.729   6.910   5.263  0.00  0.00    +0.401 C 
ATOM     30  O   UNL     1       0.206   7.066   6.355  0.00  0.00    -0.226 OA
BRANCH  29  31
ATOM     31  O   UNL     1       2.063   6.800   5.036  0.00  0.00    -0.454 OA
ATOM     32  C   UNL     1       2.908   6.926   6.181  0.00  0.00    +0.282 C 
ENDBRANCH  29  31
ENDBRANCH  26  27
BRANCH  26  34
ATOM     33  C   UNL     1      -3.197   8.409   2.846  0.00  0.00    +0.013 C 
ATOM     34  C   UNL     1      -1.679   8.122   2.863  0.00  0.00    -0.011 C 
ATOM     35  C   UNL     1      -0.932   9.395   3.329  0.00  0.00    +0.013 C 
ATOM     36  C   UNL     1      -1.258   7.842   1.406  0.00  0.00    +0.013 C 
ENDBRANCH  26  34
ENDBRANCH  22  26
ENDBRANCH  21  23
BRANCH  21  37
ATOM     37  C   UNL     1      -0.113   3.413   0.836  0.00  0.00    +0.060 C 
BRANCH  37  38
ATOM     38  C   UNL     1       1.337   3.797   1.132  0.00  0.00    -0.046 A 
ATOM     39  C   UNL     1       2.208   3.977   0.051  0.00  0.00    +0.004 A 
ATOM     40  C   UNL     1       3.503   4.468   0.253  0.00  0.00    +0.000 A 
ATOM     41  C   UNL     1       3.955   4.766   1.537  0.00  0.00    +0.000 A 
ATOM     42  C   UNL     1       3.129   4.539   2.624  0.00  0.00    +0.000 A 
ATOM     43  C   UNL     1       1.840   4.060   2.419  0.00  0.00    +0.004 A 
ENDBRANCH  37  38
ENDBRANCH  21  37
ENDBRANCH  18  21
ENDBRANCH  17  18
ENDBRANCH   1  17
BRANCH   1  44
ATOM     44  C   UNL     1       1.121   0.062   1.669  0.00  0.00    +0.140 C 
BRANCH  44  45
ATOM     45  C   UNL     1       1.844  -0.470   0.402  0.00  0.00    -0.032 A 
ATOM     46  C   UNL     1       3.051  -1.200   0.433  0.00  0.00    +0.005 A 
ATOM     47  C   UNL     1       3.704  -1.643  -0.766  0.00  0.00    +0.010 A 
ATOM     48  C   UNL     1       3.190  -1.371  -2.050  0.00  0.00    +0.000 A 
ATOM     49  C   UNL     1       1.997  -0.622  -2.046  0.00  0.00    +0.010 A 
ATOM     50  C   UNL     1       1.353  -0.178  -0.871  0.00  0.00    +0.005 A 
BRANCH  48  51
ATOM     51  C   UNL     1       3.810  -1.858  -3.343  0.00  0.00    +0.071 A 
ATOM     52  N   UNL     1       4.870  -2.710  -3.273  0.00  0.00    -0.255 NA
ATOM     53  C   UNL     1       5.361  -3.233  -4.438  0.00  0.00    +0.111 A 
ATOM     54  C   UNL     1       4.843  -2.980  -5.697  0.00  0.00    +0.020 A 
ATOM     55  C   UNL     1       3.793  -2.090  -5.777  0.00  0.00    +0.004 A 
ATOM     56  C   UNL     1       3.293  -1.514  -4.603  0.00  0.00    +0.028 A 
ENDBRANCH  48  51
ENDBRANCH  44  45
ENDBRANCH   1  44
TORSDOF 19
