REMARK  Name = 
REMARK  15 active torsions:
REMARK  status: ('A' for Active; 'I' for Inactive)
REMARK    1  A    between atoms: C_1  and  C_2
REMARK    2  A    between atoms: C_2  and  O_4
REMARK    3  A    between atoms: O_4  and  C_5
REMARK    4  A    between atoms: C_6  and  O_32
REMARK    5  A    between atoms: C_8  and  C_11
REMARK    6  A    between atoms: C_12  and  O_30
REMARK    7  A    between atoms: C_19  and  O_26
REMARK    8  A    between atoms: C_21  and  O_22
REMARK    9  A    between atoms: O_22  and  C_23
REMARK   10  A    between atoms: C_23  and  C_25
REMARK   11  A    between atoms: O_26  and  C_27
REMARK   12  A    between atoms: C_27  and  C_29
REMARK   13  A    between atoms: O_30  and  C_31
REMARK   14  A    between atoms: O_32  and  C_33
REMARK   15  A    between atoms: C_33  and  C_35
REMARK                            x       y       z     vdW  Elec       q    Type
REMARK                         _______ _______ _______ _____ _____    ______ ____
ROOT
ATOM      1  C   UNL     1       8.931  -0.511   0.052  0.00  0.00    +0.181 A 
ATOM      2  O   UNL     1       9.455   0.778   0.059  0.00  0.00    -0.451 OA
ATOM      3  C   UNL     1      10.812   0.946  -0.003  0.00  0.00    +0.147 A 
ATOM      4  C   UNL     1      11.288   2.259  -0.132  0.00  0.00    +0.093 A 
ATOM      5  C   UNL     1      12.664   2.489  -0.183  0.00  0.00    +0.139 A 
ATOM      6  C   UNL     1      13.552   1.422  -0.170  0.00  0.00    +0.093 A 
ATOM      7  C   UNL     1      13.070   0.120  -0.015  0.00  0.00    +0.150 A 
ATOM      8  C   UNL     1      11.697  -0.121   0.094  0.00  0.00    +0.110 A 
ATOM      9  C   UNL     1      11.139  -1.455   0.357  0.00  0.00    +0.238 A 
ATOM     10  O   UNL     1      11.851  -2.377   0.743  0.00  0.00    -0.283 OA
ATOM     11  C   UNL     1       9.664  -1.645   0.169  0.00  0.00    +0.211 A 
ENDROOT
BRANCH   1  15
ATOM     12  C   UNL     1       4.670  -0.379  -0.061  0.00  0.00    +0.174 A 
ATOM     13  C   UNL     1       5.365  -0.130   1.137  0.00  0.00    +0.051 A 
ATOM     14  C   UNL     1       6.753  -0.191   1.166  0.00  0.00    +0.015 A 
ATOM     15  C   UNL     1       7.465  -0.455  -0.004  0.00  0.00    +0.025 A 
ATOM     16  C   UNL     1       6.779  -0.625  -1.215  0.00  0.00    +0.061 A 
ATOM     17  C   UNL     1       5.381  -0.607  -1.250  0.00  0.00    +0.174 A 
BRANCH  12  18
ATOM     18  O   UNL     1       3.269  -0.270  -0.064  0.00  0.00    -0.422 OA
BRANCH  18  20
ATOM     19  C   UNL     1       1.341  -0.122   1.305  0.00  0.00    +0.136 C 
ATOM     20  C   UNL     1       2.622  -0.852   1.028  0.00  0.00    +0.309 C 
ATOM     21  O   UNL     1       3.039  -1.780   1.710  0.00  0.00    -0.251 OA
ENDBRANCH  18  20
ENDBRANCH  12  18
BRANCH  17  22
ATOM     22  O   UNL     1       4.638  -0.810  -2.447  0.00  0.00    -0.422 OA
BRANCH  22  23
ATOM     23  C   UNL     1       5.195  -1.101  -3.703  0.00  0.00    +0.309 C 
ATOM     24  C   UNL     1       4.119  -1.259  -4.734  0.00  0.00    +0.136 C 
ATOM     25  O   UNL     1       6.381  -1.219  -3.976  0.00  0.00    -0.251 OA
ENDBRANCH  22  23
ENDBRANCH  17  22
ENDBRANCH   1  15
BRANCH  11  26
ATOM     26  O   UNL     1       9.286  -2.965   0.199  0.00  0.00    -0.488 OA
ATOM     27  C   UNL     1       7.972  -3.422  -0.049  0.00  0.00    +0.277 C 
ENDBRANCH  11  26
BRANCH   5  28
ATOM     28  O   UNL     1      13.100   3.828  -0.276  0.00  0.00    -0.426 OA
BRANCH  28  29
ATOM     29  C   UNL     1      14.311   4.225   0.304  0.00  0.00    +0.309 C 
ATOM     30  C   UNL     1      14.553   5.680   0.040  0.00  0.00    +0.136 C 
ATOM     31  O   UNL     1      15.083   3.528   0.950  0.00  0.00    -0.251 OA
ENDBRANCH  28  29
ENDBRANCH   5  28
BRANCH   7  32
ATOM     32  O   UNL     1      13.994  -0.915   0.205  0.00  0.00    -0.425 OA
BRANCH  32  33
ATOM     33  C   UNL     1      15.125  -0.967  -0.608  0.00  0.00    +0.309 C 
ATOM     34  C   UNL     1      16.196  -1.714   0.123  0.00  0.00    +0.136 C 
ATOM     35  O   UNL     1      15.245  -0.465  -1.717  0.00  0.00    -0.251 OA
ENDBRANCH  32  33
ENDBRANCH   7  32
TORSDOF 10
