REMARK  Name = 
REMARK  14 active torsions:
REMARK  status: ('A' for Active; 'I' for Inactive)
REMARK    1  A    between atoms: C_1  and  C_2
REMARK    2  A    between atoms: C_2  and  O_4
REMARK    3  A    between atoms: O_4  and  C_5
REMARK    4  A    between atoms: C_5  and  C_6
REMARK    5  A    between atoms: C_8  and  O_41
REMARK    6  A    between atoms: C_10  and  O_40
REMARK    7  A    between atoms: C_12  and  O_39
REMARK    8  A    between atoms: C_14  and  O_17
REMARK    9  A    between atoms: O_17  and  C_18
REMARK   10  A    between atoms: C_19  and  C_31
REMARK   11  A    between atoms: C_23  and  O_30
REMARK   12  A    between atoms: C_25  and  O_29
REMARK   13  A    between atoms: C_33  and  O_38
REMARK   14  A    between atoms: C_34  and  O_37
REMARK                            x       y       z     vdW  Elec       q    Type
REMARK                         _______ _______ _______ _____ _____    ______ ____
ROOT
ATOM      1  C   UNL     1       1.572  -4.375  -2.158  0.00  0.00    +0.214 A 
ATOM      2  C   UNL     1       0.595  -5.469  -2.525  0.00  0.00    +0.238 A 
ATOM      3  O   UNL     1       0.743  -6.642  -2.202  0.00  0.00    -0.283 OA
ATOM      4  C   UNL     1      -0.596  -5.143  -3.291  0.00  0.00    +0.109 A 
ATOM      5  C   UNL     1      -0.905  -3.800  -3.431  0.00  0.00    +0.147 A 
ATOM      6  C   UNL     1      -2.059  -3.431  -4.119  0.00  0.00    +0.092 A 
ATOM      7  C   UNL     1      -2.894  -4.419  -4.646  0.00  0.00    +0.124 A 
ATOM      8  C   UNL     1      -2.591  -5.768  -4.504  0.00  0.00    +0.091 A 
ATOM      9  O   UNL     1      -0.130  -2.811  -2.897  0.00  0.00    -0.451 OA
ATOM     10  C   UNL     1      -1.441  -6.130  -3.834  0.00  0.00    +0.135 A 
ATOM     11  C   UNL     1       1.119  -3.096  -2.324  0.00  0.00    +0.181 A 
ENDROOT
BRANCH  11  12
ATOM     12  C   UNL     1       1.821  -1.803  -1.950  0.00  0.00    +0.025 A 
ATOM     13  C   UNL     1       3.156  -1.747  -1.514  0.00  0.00    +0.015 A 
ATOM     14  C   UNL     1       3.789  -0.530  -1.207  0.00  0.00    +0.050 A 
ATOM     15  C   UNL     1       3.119   0.664  -1.383  0.00  0.00    +0.158 A 
ATOM     16  C   UNL     1       1.795   0.658  -1.791  0.00  0.00    +0.159 A 
ATOM     17  C   UNL     1       1.140  -0.555  -2.053  0.00  0.00    +0.060 A 
BRANCH  15  18
ATOM     18  O   UNL     1       3.783   1.841  -1.187  0.00  0.00    -0.503 OA
ATOM     19  H   UNL     1       3.176   2.526  -1.521  0.00  0.00    +0.292 HD
ENDBRANCH  15  18
BRANCH  16  20
ATOM     20  O   UNL     1       1.181   1.874  -1.936  0.00  0.00    -0.503 OA
ATOM     21  H   UNL     1       0.247   1.729  -2.164  0.00  0.00    +0.292 HD
ENDBRANCH  16  20
ENDBRANCH  11  12
BRANCH   7  22
ATOM     22  O   UNL     1      -4.032  -4.112  -5.328  0.00  0.00    -0.507 OA
ATOM     23  H   UNL     1      -4.126  -3.147  -5.383  0.00  0.00    +0.292 HD
ENDBRANCH   7  22
BRANCH  10  24
ATOM     24  O   UNL     1      -1.143  -7.462  -3.729  0.00  0.00    -0.506 OA
ATOM     25  H   UNL     1      -1.897  -8.000  -4.011  0.00  0.00    +0.292 HD
ENDBRANCH  10  24
BRANCH   1  26
ATOM     26  O   UNL     1       2.849  -4.703  -1.652  0.00  0.00    -0.453 OA
BRANCH  26  29
ATOM     27  C   UNL     1       2.696  -8.232  -0.832  0.00  0.00    +0.191 C 
ATOM     28  O   UNL     1       2.718  -6.819  -0.589  0.00  0.00    -0.330 OA
ATOM     29  C   UNL     1       3.226  -6.100  -1.725  0.00  0.00    +0.340 C 
ATOM     30  C   UNL     1       4.747  -6.387  -1.804  0.00  0.00    +0.214 C 
ATOM     31  C   UNL     1       4.886  -7.923  -2.004  0.00  0.00    +0.180 C 
ATOM     32  C   UNL     1       4.138  -8.745  -0.936  0.00  0.00    +0.178 C 
BRANCH  30  33
ATOM     33  O   UNL     1       5.343  -5.676  -2.900  0.00  0.00    -0.383 OA
ATOM     34  H   UNL     1       5.288  -6.236  -3.693  0.00  0.00    +0.210 HD
ENDBRANCH  30  33
BRANCH  31  35
ATOM     35  O   UNL     1       6.252  -8.352  -2.054  0.00  0.00    -0.386 OA
ATOM     36  H   UNL     1       6.207  -9.330  -2.090  0.00  0.00    +0.210 HD
ENDBRANCH  31  35
BRANCH  32  37
ATOM     37  O   UNL     1       4.211 -10.120  -1.347  0.00  0.00    -0.386 OA
ATOM     38  H   UNL     1       3.521 -10.608  -0.863  0.00  0.00    +0.210 HD
ENDBRANCH  32  37
BRANCH  27  39
ATOM     39  C   UNL     1       1.873  -8.916   0.269  0.00  0.00    +0.266 C 
BRANCH  39  40
ATOM     40  O   UNL     1       1.727 -10.322  -0.019  0.00  0.00    -0.462 OA
BRANCH  40  42
ATOM     41  C   UNL     1       1.577 -12.586   0.592  0.00  0.00    +0.136 C 
ATOM     42  C   UNL     1       1.876 -11.181   1.025  0.00  0.00    +0.304 C 
ATOM     43  O   UNL     1       2.199 -10.870   2.161  0.00  0.00    -0.251 OA
ENDBRANCH  40  42
ENDBRANCH  39  40
ENDBRANCH  27  39
ENDBRANCH  26  29
ENDBRANCH   1  26
TORSDOF 13
