REMARK  Name = 
REMARK  8 active torsions:
REMARK  status: ('A' for Active; 'I' for Inactive)
REMARK    1  A    between atoms: C_3  and  O_26
REMARK    2  A    between atoms: C_4  and  O_25
REMARK    3  A    between atoms: C_6  and  C_7
REMARK    4  A    between atoms: C_8  and  O_24
REMARK    5  A    between atoms: C_12  and  O_23
REMARK    6  A    between atoms: C_14  and  O_18
REMARK    7  A    between atoms: O_18  and  S_19
REMARK    8  A    between atoms: S_19  and  O_22
REMARK                            x       y       z     vdW  Elec       q    Type
REMARK                         _______ _______ _______ _____ _____    ______ ____
ROOT
ATOM      1  C   UNL     1      -1.461  -2.536  -0.178  0.00  0.00    +0.181 A 
ATOM      2  O   UNL     1      -0.721  -3.698   0.071  0.00  0.00    -0.451 OA
ATOM      3  C   UNL     1      -1.319  -4.925  -0.119  0.00  0.00    +0.147 A 
ATOM      4  C   UNL     1      -2.662  -5.060  -0.452  0.00  0.00    +0.109 A 
ATOM      5  C   UNL     1      -3.227  -6.327  -0.627  0.00  0.00    +0.135 A 
ATOM      6  C   UNL     1      -2.455  -7.472  -0.466  0.00  0.00    +0.095 A 
ATOM      7  C   UNL     1      -1.111  -7.353  -0.115  0.00  0.00    +0.166 A 
ATOM      8  C   UNL     1      -3.460  -3.853  -0.646  0.00  0.00    +0.238 A 
ATOM      9  O   UNL     1      -4.660  -3.946  -0.901  0.00  0.00    -0.283 OA
ATOM     10  C   UNL     1      -0.538  -6.077   0.039  0.00  0.00    +0.096 A 
ATOM     11  C   UNL     1      -2.756  -2.552  -0.569  0.00  0.00    +0.208 A 
ENDROOT
BRANCH   1  13
ATOM     12  C   UNL     1      -1.303  -0.071   0.412  0.00  0.00    +0.015 A 
ATOM     13  C   UNL     1      -0.685  -1.268  -0.018  0.00  0.00    +0.025 A 
ATOM     14  C   UNL     1       0.686  -1.217  -0.316  0.00  0.00    +0.060 A 
ATOM     15  C   UNL     1       1.364   0.002  -0.279  0.00  0.00    +0.159 A 
ATOM     16  C   UNL     1       0.707   1.185   0.047  0.00  0.00    +0.158 A 
ATOM     17  C   UNL     1      -0.627   1.156   0.412  0.00  0.00    +0.050 A 
BRANCH  15  18
ATOM     18  O   UNL     1       2.694   0.037  -0.594  0.00  0.00    -0.503 OA
ATOM     19  H   UNL     1       2.946   0.978  -0.499  0.00  0.00    +0.292 HD
ENDBRANCH  15  18
BRANCH  16  20
ATOM     20  O   UNL     1       1.418   2.350  -0.007  0.00  0.00    -0.503 OA
ATOM     21  H   UNL     1       0.805   3.092   0.141  0.00  0.00    +0.292 HD
ENDBRANCH  16  20
ENDBRANCH   1  13
BRANCH   5  22
ATOM     22  O   UNL     1      -4.539  -6.521  -0.967  0.00  0.00    -0.506 OA
ATOM     23  H   UNL     1      -4.975  -5.640  -1.033  0.00  0.00    +0.292 HD
ENDBRANCH   5  22
BRANCH  11  24
ATOM     24  O   UNL     1      -3.494  -1.445  -0.944  0.00  0.00    -0.501 OA
ATOM     25  H   UNL     1      -2.892  -0.802  -1.354  0.00  0.00    +0.292 HD
ENDBRANCH  11  24
BRANCH   7  26
ATOM     26  O   UNL     1      -0.273  -8.426   0.067  0.00  0.00    -0.325 OA
BRANCH  26  27
ATOM     27  S   UNL     1      -0.843  -9.878   0.545  0.00  0.00    +0.251 S 
ATOM     28  O   UNL     1      -1.531 -10.524  -0.551  0.00  0.00    -0.108 OA
ATOM     29  O   UNL     1      -1.443  -9.740   1.856  0.00  0.00    -0.108 OA
BRANCH  27  30
ATOM     30  O   UNL     1       0.508 -10.718   0.813  0.00  0.00    -0.222 OA
ATOM     31  H   UNL     1       0.665 -10.711   1.779  0.00  0.00    +0.248 HD
ENDBRANCH  27  30
ENDBRANCH  26  27
ENDBRANCH   7  26
TORSDOF 8
