REMARK  Name = 
REMARK  17 active torsions:
REMARK  status: ('A' for Active; 'I' for Inactive)
REMARK    1  A    between atoms: C_3  and  O_50
REMARK    2  A    between atoms: C_4  and  O_49
REMARK    3  A    between atoms: C_6  and  C_7
REMARK    4  A    between atoms: C_8  and  C_9
REMARK    5  A    between atoms: C_9  and  O_11
REMARK    6  A    between atoms: O_11  and  C_12
REMARK    7  A    between atoms: C_12  and  C_13
REMARK    8  A    between atoms: C_15  and  O_48
REMARK    9  A    between atoms: C_17  and  O_47
REMARK   10  A    between atoms: C_19  and  O_46
REMARK   11  A    between atoms: C_21  and  O_24
REMARK   12  A    between atoms: O_24  and  C_25
REMARK   13  A    between atoms: C_26  and  C_38
REMARK   14  A    between atoms: C_30  and  O_37
REMARK   15  A    between atoms: C_32  and  O_36
REMARK   16  A    between atoms: C_40  and  O_45
REMARK   17  A    between atoms: C_41  and  O_44
REMARK                            x       y       z     vdW  Elec       q    Type
REMARK                         _______ _______ _______ _____ _____    ______ ____
ROOT
ATOM      1  C   UNL     1      -6.389  -4.999  -0.618  0.00  0.00    +0.191 C 
ATOM      2  O   UNL     1      -6.798  -4.812  -1.993  0.00  0.00    -0.330 OA
ATOM      3  C   UNL     1      -6.439  -3.514  -2.557  0.00  0.00    +0.340 C 
ATOM      4  C   UNL     1      -7.042  -2.372  -1.687  0.00  0.00    +0.214 C 
ATOM      5  C   UNL     1      -6.650  -2.560  -0.228  0.00  0.00    +0.180 C 
ATOM      6  C   UNL     1      -7.075  -3.939   0.255  0.00  0.00    +0.178 C 
ENDROOT
BRANCH   6   7
ATOM      7  O   UNL     1      -6.750  -4.020   1.645  0.00  0.00    -0.386 OA
ATOM      8  H   UNL     1      -7.234  -4.790   1.999  0.00  0.00    +0.210 HD
ENDBRANCH   6   7
BRANCH   5   9
ATOM      9  O   UNL     1      -7.284  -1.572   0.597  0.00  0.00    -0.386 OA
ATOM     10  H   UNL     1      -7.082  -1.846   1.513  0.00  0.00    +0.210 HD
ENDBRANCH   5   9
BRANCH   4  11
ATOM     11  O   UNL     1      -6.652  -1.050  -2.090  0.00  0.00    -0.383 OA
ATOM     12  H   UNL     1      -5.678  -0.992  -2.018  0.00  0.00    +0.210 HD
ENDBRANCH   4  11
BRANCH   3  13
ATOM     13  O   UNL     1      -6.959  -3.455  -3.909  0.00  0.00    -0.453 OA
BRANCH  13  14
ATOM     14  C   UNL     1      -6.761  -2.286  -4.649  0.00  0.00    +0.214 A 
ATOM     15  C   UNL     1      -5.538  -1.427  -4.486  0.00  0.00    +0.238 A 
ATOM     16  O   UNL     1      -4.560  -1.826  -3.863  0.00  0.00    -0.283 OA
ATOM     17  C   UNL     1      -5.593  -0.055  -5.047  0.00  0.00    +0.109 A 
ATOM     18  C   UNL     1      -6.593   0.217  -5.974  0.00  0.00    +0.147 A 
ATOM     19  C   UNL     1      -6.658   1.458  -6.619  0.00  0.00    +0.092 A 
ATOM     20  C   UNL     1      -5.730   2.440  -6.297  0.00  0.00    +0.124 A 
ATOM     21  C   UNL     1      -4.763   2.214  -5.324  0.00  0.00    +0.091 A 
ATOM     22  O   UNL     1      -7.565  -0.691  -6.295  0.00  0.00    -0.451 OA
ATOM     23  C   UNL     1      -4.701   0.969  -4.690  0.00  0.00    +0.135 A 
ATOM     24  C   UNL     1      -7.683  -1.839  -5.527  0.00  0.00    +0.181 A 
BRANCH  24  25
ATOM     25  C   UNL     1      -8.979  -2.499  -5.760  0.00  0.00    +0.025 A 
ATOM     26  C   UNL     1      -9.148  -3.363  -6.847  0.00  0.00    +0.015 A 
ATOM     27  C   UNL     1     -10.414  -3.853  -7.174  0.00  0.00    +0.050 A 
ATOM     28  C   UNL     1     -11.508  -3.464  -6.414  0.00  0.00    +0.158 A 
ATOM     29  C   UNL     1     -11.349  -2.623  -5.315  0.00  0.00    +0.159 A 
ATOM     30  C   UNL     1     -10.090  -2.134  -4.978  0.00  0.00    +0.060 A 
BRANCH  29  31
ATOM     31  O   UNL     1     -12.472  -2.280  -4.612  0.00  0.00    -0.503 OA
ATOM     32  H   UNL     1     -12.199  -1.745  -3.847  0.00  0.00    +0.292 HD
ENDBRANCH  29  31
BRANCH  28  33
ATOM     33  O   UNL     1     -12.754  -3.892  -6.773  0.00  0.00    -0.503 OA
ATOM     34  H   UNL     1     -13.358  -3.437  -6.152  0.00  0.00    +0.292 HD
ENDBRANCH  28  33
ENDBRANCH  24  25
BRANCH  23  35
ATOM     35  O   UNL     1      -3.784   0.786  -3.693  0.00  0.00    -0.506 OA
ATOM     36  H   UNL     1      -3.294   1.612  -3.542  0.00  0.00    +0.292 HD
ENDBRANCH  23  35
BRANCH  20  37
ATOM     37  O   UNL     1      -5.733   3.658  -6.910  0.00  0.00    -0.507 OA
ATOM     38  H   UNL     1      -6.418   3.668  -7.600  0.00  0.00    +0.292 HD
ENDBRANCH  20  37
ENDBRANCH  13  14
ENDBRANCH   3  13
BRANCH   1  39
ATOM     39  C   UNL     1      -6.767  -6.422  -0.143  0.00  0.00    +0.266 C 
BRANCH  39  40
ATOM     40  O   UNL     1      -6.489  -6.652   1.260  0.00  0.00    -0.459 OA
BRANCH  40  41
ATOM     41  C   UNL     1      -5.210  -6.990   1.582  0.00  0.00    +0.332 C 
ATOM     42  O   UNL     1      -4.283  -7.107   0.798  0.00  0.00    -0.246 OA
BRANCH  41  44
ATOM     43  C   UNL     1      -3.975  -7.557   3.639  0.00  0.00    +0.015 C 
ATOM     44  C   UNL     1      -5.125  -7.183   3.049  0.00  0.00    +0.092 C 
BRANCH  43  46
ATOM     45  C   UNL     1      -2.835  -8.693   5.536  0.00  0.00    +0.012 A 
ATOM     46  C   UNL     1      -3.807  -7.779   5.091  0.00  0.00    -0.021 A 
ATOM     47  C   UNL     1      -4.552  -7.078   6.049  0.00  0.00    +0.057 A 
ATOM     48  C   UNL     1      -4.350  -7.325   7.404  0.00  0.00    +0.159 A 
ATOM     49  C   UNL     1      -3.406  -8.250   7.833  0.00  0.00    +0.158 A 
ATOM     50  C   UNL     1      -2.634  -8.937   6.906  0.00  0.00    +0.050 A 
BRANCH  49  51
ATOM     51  O   UNL     1      -3.273  -8.447   9.180  0.00  0.00    -0.503 OA
ATOM     52  H   UNL     1      -2.600  -9.134   9.326  0.00  0.00    +0.292 HD
ENDBRANCH  49  51
BRANCH  48  53
ATOM     53  O   UNL     1      -5.098  -6.642   8.323  0.00  0.00    -0.503 OA
ATOM     54  H   UNL     1      -4.785  -6.974   9.188  0.00  0.00    +0.292 HD
ENDBRANCH  48  53
ENDBRANCH  43  46
ENDBRANCH  41  44
ENDBRANCH  40  41
ENDBRANCH  39  40
ENDBRANCH   1  39
TORSDOF 17
