REMARK  Name = 
REMARK  16 active torsions:
REMARK  status: ('A' for Active; 'I' for Inactive)
REMARK    1  A    between atoms: C_1  and  C_2
REMARK    2  A    between atoms: C_2  and  O_4
REMARK    3  A    between atoms: O_4  and  C_5
REMARK    4  A    between atoms: C_5  and  C_6
REMARK    5  A    between atoms: C_8  and  O_44
REMARK    6  A    between atoms: C_10  and  O_40
REMARK    7  A    between atoms: C_12  and  O_39
REMARK    8  A    between atoms: C_14  and  O_17
REMARK    9  A    between atoms: O_17  and  C_18
REMARK   10  A    between atoms: C_19  and  C_31
REMARK   11  A    between atoms: C_23  and  O_30
REMARK   12  A    between atoms: C_25  and  O_29
REMARK   13  A    between atoms: C_33  and  O_38
REMARK   14  A    between atoms: C_34  and  O_37
REMARK   15  A    between atoms: O_40  and  C_41
REMARK   16  A    between atoms: C_41  and  C_43
REMARK                            x       y       z     vdW  Elec       q    Type
REMARK                         _______ _______ _______ _____ _____    ______ ____
ROOT
ATOM      1  C   UNL     1       1.993  -5.049  -1.291  0.00  0.00    +0.214 A 
ATOM      2  C   UNL     1       1.834  -3.551  -1.385  0.00  0.00    +0.238 A 
ATOM      3  O   UNL     1       2.693  -2.807  -1.837  0.00  0.00    -0.283 OA
ATOM      4  C   UNL     1       0.567  -2.959  -1.035  0.00  0.00    +0.109 A 
ATOM      5  C   UNL     1      -0.532  -3.749  -1.290  0.00  0.00    +0.147 A 
ATOM      6  C   UNL     1      -1.804  -3.188  -1.187  0.00  0.00    +0.092 A 
ATOM      7  C   UNL     1      -1.929  -1.838  -0.841  0.00  0.00    +0.124 A 
ATOM      8  C   UNL     1      -0.818  -1.044  -0.576  0.00  0.00    +0.091 A 
ATOM      9  O   UNL     1      -0.396  -5.043  -1.720  0.00  0.00    -0.451 OA
ATOM     10  C   UNL     1       0.440  -1.618  -0.654  0.00  0.00    +0.135 A 
ATOM     11  C   UNL     1       0.849  -5.720  -1.622  0.00  0.00    +0.181 A 
ENDROOT
BRANCH  11  12
ATOM     12  C   UNL     1       0.659  -7.171  -2.041  0.00  0.00    +0.025 A 
ATOM     13  C   UNL     1      -0.646  -7.589  -2.447  0.00  0.00    +0.015 A 
ATOM     14  C   UNL     1      -0.909  -8.823  -3.060  0.00  0.00    +0.050 A 
ATOM     15  C   UNL     1       0.139  -9.695  -3.266  0.00  0.00    +0.158 A 
ATOM     16  C   UNL     1       1.408  -9.371  -2.803  0.00  0.00    +0.159 A 
ATOM     17  C   UNL     1       1.692  -8.127  -2.205  0.00  0.00    +0.060 A 
BRANCH  15  18
ATOM     18  O   UNL     1      -0.095 -10.860  -3.934  0.00  0.00    -0.503 OA
ATOM     19  H   UNL     1       0.787 -11.256  -4.076  0.00  0.00    +0.292 HD
ENDBRANCH  15  18
BRANCH  16  20
ATOM     20  O   UNL     1       2.378 -10.322  -2.975  0.00  0.00    -0.503 OA
ATOM     21  H   UNL     1       3.061 -10.177  -2.298  0.00  0.00    +0.292 HD
ENDBRANCH  16  20
ENDBRANCH  11  12
BRANCH   7  22
ATOM     22  O   UNL     1      -3.147  -1.232  -0.746  0.00  0.00    -0.507 OA
ATOM     23  H   UNL     1      -3.840  -1.881  -0.944  0.00  0.00    +0.292 HD
ENDBRANCH   7  22
BRANCH  10  24
ATOM     24  O   UNL     1       1.538  -0.877  -0.324  0.00  0.00    -0.506 OA
ATOM     25  H   UNL     1       1.359   0.065  -0.487  0.00  0.00    +0.292 HD
ENDBRANCH  10  24
BRANCH   1  26
ATOM     26  O   UNL     1       3.261  -5.606  -1.004  0.00  0.00    -0.453 OA
BRANCH  26  29
ATOM     27  C   UNL     1       5.477  -2.781  -1.553  0.00  0.00    +0.192 C 
ATOM     28  O   UNL     1       4.878  -4.073  -1.805  0.00  0.00    -0.330 OA
ATOM     29  C   UNL     1       4.247  -4.599  -0.625  0.00  0.00    +0.341 C 
ATOM     30  C   UNL     1       5.384  -5.018   0.350  0.00  0.00    +0.226 C 
ATOM     31  C   UNL     1       6.212  -3.714   0.627  0.00  0.00    +0.242 C 
ATOM     32  C   UNL     1       6.709  -3.050  -0.685  0.00  0.00    +0.190 C 
BRANCH  30  33
ATOM     33  O   UNL     1       4.854  -5.549   1.576  0.00  0.00    -0.382 OA
ATOM     34  H   UNL     1       4.699  -4.815   2.196  0.00  0.00    +0.210 HD
ENDBRANCH  30  33
BRANCH  32  35
ATOM     35  O   UNL     1       7.615  -3.932  -1.363  0.00  0.00    -0.385 OA
ATOM     36  H   UNL     1       7.074  -4.547  -1.896  0.00  0.00    +0.210 HD
ENDBRANCH  32  35
BRANCH  27  37
ATOM     37  C   UNL     1       5.745  -2.104  -2.900  0.00  0.00    +0.266 C 
BRANCH  37  38
ATOM     38  O   UNL     1       6.418  -0.839  -2.772  0.00  0.00    -0.462 OA
BRANCH  38  40
ATOM     39  C   UNL     1       6.455   1.502  -2.604  0.00  0.00    +0.136 C 
ATOM     40  C   UNL     1       5.626   0.253  -2.590  0.00  0.00    +0.304 C 
ATOM     41  O   UNL     1       4.415   0.243  -2.428  0.00  0.00    -0.251 OA
ENDBRANCH  38  40
ENDBRANCH  37  38
ENDBRANCH  27  37
BRANCH  31  42
ATOM     42  O   UNL     1       7.303  -3.978   1.531  0.00  0.00    -0.456 OA
BRANCH  42  43
ATOM     43  C   UNL     1       7.768  -2.875   2.194  0.00  0.00    +0.304 C 
ATOM     44  C   UNL     1       8.862  -3.250   3.143  0.00  0.00    +0.136 C 
ATOM     45  O   UNL     1       7.314  -1.744   2.083  0.00  0.00    -0.251 OA
ENDBRANCH  42  43
ENDBRANCH  31  42
ENDBRANCH  26  29
ENDBRANCH   1  26
TORSDOF 14
