REMARK  Name = 
REMARK  20 active torsions:
REMARK  status: ('A' for Active; 'I' for Inactive)
REMARK    1  A    between atoms: C_3  and  O_44
REMARK    2  A    between atoms: C_4  and  O_43
REMARK    3  A    between atoms: C_6  and  C_7
REMARK    4  A    between atoms: C_8  and  O_42
REMARK    5  A    between atoms: C_14  and  S_20
REMARK    6  A    between atoms: C_15  and  O_19
REMARK    7  A    between atoms: C_17  and  O_18
REMARK    8  A    between atoms: S_20  and  C_21
REMARK    9  A    between atoms: C_21  and  C_22
REMARK   10  A    between atoms: C_22  and  C_24
REMARK   11  A    between atoms: C_22  and  N_31
REMARK   12  A    between atoms: N_26  and  CA_27
REMARK   13  A    between atoms: CA_27  and  C_28
REMARK   14  A    between atoms: C_28  and  OXT_30
REMARK   15  A    between atoms: C_32  and  C_34
REMARK   16  A    between atoms: C_34  and  C_35
REMARK   17  A    between atoms: C_35  and  C_36
REMARK   18  A    between atoms: C_36  and  C_38
REMARK   19  A    between atoms: C_36  and  N_41
REMARK   20  A    between atoms: C_38  and  O_40
REMARK                            x       y       z     vdW  Elec       q    Type
REMARK                         _______ _______ _______ _____ _____    ______ ____
ROOT
ATOM      1  C   UNK A   1       3.352  -2.021   0.391  0.00  0.00    +0.181 A 
ATOM      2  O   UNK A   1       2.692  -3.217   0.126  0.00  0.00    -0.450 OA
ATOM      3  C   UNK A   1       2.975  -3.916  -1.034  0.00  0.00    +0.160 A 
ATOM      4  C   UNK A   1       2.382  -5.188  -1.204  0.00  0.00    +0.093 A 
ATOM      5  C   UNK A   1       2.592  -5.866  -2.418  0.00  0.00    +0.137 A 
ATOM      6  C   UNK A   1       3.408  -5.339  -3.414  0.00  0.00    +0.092 A 
ATOM      7  C   UNK A   1       4.010  -4.102  -3.224  0.00  0.00    +0.135 A 
ATOM      8  C   UNK A   1       3.797  -3.382  -2.039  0.00  0.00    +0.110 A 
ATOM      9  C   UNK A   1       4.432  -2.072  -1.803  0.00  0.00    +0.238 A 
ATOM     10  O   UNK A   1       5.126  -1.501  -2.638  0.00  0.00    -0.283 OA
ATOM     11  C   UNK A   1       4.229  -1.460  -0.464  0.00  0.00    +0.208 A 
ENDROOT
BRANCH   1  13
ATOM     12  C   UNK A   1       3.067  -0.032   1.942  0.00  0.00    +0.015 A 
ATOM     13  C   UNK A   1       3.033  -1.429   1.728  0.00  0.00    +0.025 A 
ATOM     14  C   UNK A   1       2.714  -2.247   2.825  0.00  0.00    +0.060 A 
ATOM     15  C   UNK A   1       2.548  -1.684   4.090  0.00  0.00    +0.159 A 
ATOM     16  C   UNK A   1       2.693  -0.313   4.291  0.00  0.00    +0.158 A 
ATOM     17  C   UNK A   1       2.936   0.526   3.218  0.00  0.00    +0.050 A 
BRANCH  16  18
ATOM     18  O   UNK A   1       2.592   0.161   5.570  0.00  0.00    -0.503 OA
ATOM     19  H   UNK A   1       2.834   1.105   5.562  0.00  0.00    +0.292 HD
ENDBRANCH  16  18
BRANCH  15  20
ATOM     20  O   UNK A   1       2.263  -2.487   5.165  0.00  0.00    -0.503 OA
ATOM     21  H   UNK A   1       2.181  -1.849   5.905  0.00  0.00    +0.292 HD
ENDBRANCH  15  20
ENDBRANCH   1  13
BRANCH  11  22
ATOM     22  O   UNK A   1       4.999  -0.341  -0.187  0.00  0.00    -0.501 OA
ATOM     23  H   UNK A   1       5.280  -0.408   0.741  0.00  0.00    +0.292 HD
ENDBRANCH  11  22
BRANCH   7  24
ATOM     24  O   UNK A   1       4.794  -3.602  -4.223  0.00  0.00    -0.506 OA
ATOM     25  H   UNK A   1       4.868  -4.232  -4.957  0.00  0.00    +0.292 HD
ENDBRANCH   7  24
BRANCH   5  26
ATOM     26  O   UNK A   1       1.974  -7.045  -2.731  0.00  0.00    -0.505 OA
ATOM     27  H   UNK A   1       1.249  -7.178  -2.098  0.00  0.00    +0.292 HD
ENDBRANCH   5  26
BRANCH   4  28
ATOM     28  S   UNK A   1       1.309  -5.859   0.072  0.00  0.00    -0.116 S 
BRANCH  28  29
ATOM     29  C   UNK A   1       2.096  -7.469   0.489  0.00  0.00    +0.106 C 
BRANCH  29  30
ATOM     30  C   UNK A   1       3.553  -7.463   0.988  0.00  0.00    +0.169 C 
BRANCH  30  31
ATOM     31  N   UNK A   1       3.990  -8.831   1.351  0.00  0.00    -0.303 N 
ATOM     32  H   UNK A   1       4.600  -8.922   2.160  0.00  0.00    +0.149 HD
ATOM     33  C   UNK A   1       4.105  -9.811   0.391  0.00  0.00    +0.214 C 
ATOM     34  O   UNK A   1       3.781  -9.640  -0.779  0.00  0.00    -0.276 OA
BRANCH  33  35
ATOM     35  C   UNK A   1       4.584 -11.143   0.910  0.00  0.00    +0.098 C 
BRANCH  35  36
ATOM     36  C   UNK A   1       5.293 -11.972  -0.180  0.00  0.00    +0.039 C 
BRANCH  36  37
ATOM     37  C   UNK A   1       6.505 -11.280  -0.819  0.00  0.00    +0.161 C 
BRANCH  37  38
ATOM     38  N   UNK A   1       7.085 -12.143  -1.894  0.00  0.00    -0.318 NA
ATOM     39  H   UNK A   1       7.293 -13.064  -1.492  0.00  0.00    +0.119 HD
ATOM     40  H   UNK A   1       6.342 -12.330  -2.575  0.00  0.00    +0.119 HD
ENDBRANCH  37  38
BRANCH  37  41
ATOM     41  C   UNK A   1       7.639 -10.955   0.174  0.00  0.00    +0.322 C 
ATOM     42  O   UNK A   1       7.502 -10.625   1.341  0.00  0.00    -0.249 OA
BRANCH  41  43
ATOM     43  O   UNK A   1       8.851 -11.039  -0.436  0.00  0.00    -0.480 OA
ATOM     44  H   UNK A   1       8.671 -11.332  -1.364  0.00  0.00    +0.295 HD
ENDBRANCH  41  43
ENDBRANCH  37  41
ENDBRANCH  36  37
ENDBRANCH  35  36
ENDBRANCH  33  35
ENDBRANCH  30  31
BRANCH  30  45
ATOM     45  C   UNK A   1       3.702  -6.579   2.237  0.00  0.00    +0.235 C 
ATOM     46  N   GLY A   2       3.092  -7.067   3.370  0.00  0.00    -0.303 N 
ATOM     47  H   GLY A   2       2.671  -7.993   3.374  0.00  0.00    +0.149 HD
ATOM     48  O   UNK A   1       4.258  -5.485   2.211  0.00  0.00    -0.274 OA
BRANCH  46  49
ATOM     49  CA  GLY A   2       3.066  -6.308   4.607  0.00  0.00    +0.224 C 
BRANCH  49  50
ATOM     50  C   GLY A   2       2.187  -7.014   5.626  0.00  0.00    +0.322 C 
ATOM     51  O   GLY A   2       1.946  -8.215   5.596  0.00  0.00    -0.249 OA
BRANCH  50  52
ATOM     52  OXT GLY A   2       1.708  -6.200   6.592  0.00  0.00    -0.480 OA
ATOM     53  HXT GLY A   2       1.938  -5.256   6.467  0.00  0.00    +0.295 HD
ENDBRANCH  50  52
ENDBRANCH  49  50
ENDBRANCH  46  49
ENDBRANCH  30  45
ENDBRANCH  29  30
ENDBRANCH  28  29
ENDBRANCH   4  28
TORSDOF 20
