REMARK  Name = 
REMARK  20 active torsions:
REMARK  status: ('A' for Active; 'I' for Inactive)
REMARK    1  A    between atoms: C_3  and  O_44
REMARK    2  A    between atoms: C_4  and  O_43
REMARK    3  A    between atoms: C_6  and  C_7
REMARK    4  A    between atoms: C_8  and  O_42
REMARK    5  A    between atoms: C_15  and  O_41
REMARK    6  A    between atoms: C_16  and  S_19
REMARK    7  A    between atoms: C_17  and  O_18
REMARK    8  A    between atoms: S_19  and  C_20
REMARK    9  A    between atoms: C_20  and  C_21
REMARK   10  A    between atoms: C_21  and  C_23
REMARK   11  A    between atoms: C_21  and  N_30
REMARK   12  A    between atoms: N_25  and  CA_26
REMARK   13  A    between atoms: CA_26  and  C_27
REMARK   14  A    between atoms: C_27  and  OXT_29
REMARK   15  A    between atoms: C_31  and  C_33
REMARK   16  A    between atoms: C_33  and  C_34
REMARK   17  A    between atoms: C_34  and  C_35
REMARK   18  A    between atoms: C_35  and  C_37
REMARK   19  A    between atoms: C_35  and  N_40
REMARK   20  A    between atoms: C_37  and  O_39
REMARK                            x       y       z     vdW  Elec       q    Type
REMARK                         _______ _______ _______ _____ _____    ______ ____
ROOT
ATOM      1  C   UNK A   1      -0.090 -12.930  -5.909  0.00  0.00    +0.181 A 
ATOM      2  O   UNK A   1      -0.559 -11.615  -5.911  0.00  0.00    -0.451 OA
ATOM      3  C   UNK A   1      -1.176 -11.124  -4.781  0.00  0.00    +0.147 A 
ATOM      4  C   UNK A   1      -1.501  -9.761  -4.764  0.00  0.00    +0.093 A 
ATOM      5  C   UNK A   1      -2.094  -9.191  -3.629  0.00  0.00    +0.137 A 
ATOM      6  C   UNK A   1      -2.374  -9.966  -2.496  0.00  0.00    +0.092 A 
ATOM      7  C   UNK A   1      -2.063 -11.333  -2.546  0.00  0.00    +0.148 A 
ATOM      8  C   UNK A   1      -1.469 -11.915  -3.675  0.00  0.00    +0.110 A 
ATOM      9  C   UNK A   1      -1.052 -13.329  -3.692  0.00  0.00    +0.238 A 
ATOM     10  O   UNK A   1      -1.291 -14.110  -2.779  0.00  0.00    -0.283 OA
ATOM     11  C   UNK A   1      -0.261 -13.774  -4.868  0.00  0.00    +0.208 A 
ENDROOT
BRANCH   1  13
ATOM     12  C   UNK A   1       0.655 -14.644  -7.626  0.00  0.00    +0.015 A 
ATOM     13  C   UNK A   1       0.659 -13.316  -7.142  0.00  0.00    +0.025 A 
ATOM     14  C   UNK A   1       1.418 -12.371  -7.850  0.00  0.00    +0.060 A 
ATOM     15  C   UNK A   1       2.207 -12.774  -8.926  0.00  0.00    +0.159 A 
ATOM     16  C   UNK A   1       2.264 -14.107  -9.321  0.00  0.00    +0.158 A 
ATOM     17  C   UNK A   1       1.475 -15.050  -8.687  0.00  0.00    +0.050 A 
BRANCH  15  18
ATOM     18  O   UNK A   1       2.954 -11.842  -9.590  0.00  0.00    -0.503 OA
ATOM     19  H   UNK A   1       3.416 -12.346 -10.290  0.00  0.00    +0.292 HD
ENDBRANCH  15  18
BRANCH  16  20
ATOM     20  O   UNK A   1       3.113 -14.439 -10.339  0.00  0.00    -0.503 OA
ATOM     21  H   UNK A   1       3.127 -15.409 -10.419  0.00  0.00    +0.292 HD
ENDBRANCH  16  20
ENDBRANCH   1  13
BRANCH   5  22
ATOM     22  O   UNK A   1      -2.389  -7.854  -3.615  0.00  0.00    -0.505 OA
ATOM     23  H   UNK A   1      -2.155  -7.453  -4.468  0.00  0.00    +0.292 HD
ENDBRANCH   5  22
BRANCH   7  24
ATOM     24  O   UNK A   1      -2.354 -12.122  -1.470  0.00  0.00    -0.505 OA
ATOM     25  H   UNK A   1      -2.059 -11.652  -0.652  0.00  0.00    +0.292 HD
ENDBRANCH   7  24
BRANCH  11  26
ATOM     26  O   UNK A   1       0.278 -15.047  -4.784  0.00  0.00    -0.501 OA
ATOM     27  H   UNK A   1       1.179 -15.010  -5.145  0.00  0.00    +0.292 HD
ENDBRANCH  11  26
BRANCH   6  28
ATOM     28  S   UNK A   1      -2.932  -9.242  -0.950  0.00  0.00    -0.116 S 
BRANCH  28  29
ATOM     29  C   UNK A   1      -4.748  -9.176  -1.182  0.00  0.00    +0.106 C 
BRANCH  29  30
ATOM     30  C   UNK A   1      -5.475 -10.528  -1.194  0.00  0.00    +0.169 C 
BRANCH  30  31
ATOM     31  C   UNK A   1      -5.258 -11.317   0.111  0.00  0.00    +0.235 C 
ATOM     32  N   GLY A   2      -4.599 -12.516  -0.056  0.00  0.00    -0.303 N 
ATOM     33  H   GLY A   2      -4.043 -12.626  -0.906  0.00  0.00    +0.149 HD
ATOM     34  O   UNK A   1      -5.713 -10.948   1.192  0.00  0.00    -0.274 OA
BRANCH  32  35
ATOM     35  CA  GLY A   2      -4.161 -13.311   1.077  0.00  0.00    +0.224 C 
BRANCH  35  36
ATOM     36  C   GLY A   2      -2.766 -12.899   1.559  0.00  0.00    +0.322 C 
ATOM     37  O   GLY A   2      -2.092 -11.996   1.077  0.00  0.00    -0.249 OA
BRANCH  36  38
ATOM     38  OXT GLY A   2      -2.310 -13.665   2.579  0.00  0.00    -0.480 OA
ATOM     39  HXT GLY A   2      -2.935 -14.359   2.862  0.00  0.00    +0.295 HD
ENDBRANCH  36  38
ENDBRANCH  35  36
ENDBRANCH  32  35
ENDBRANCH  30  31
BRANCH  30  40
ATOM     40  N   UNK A   1      -6.925 -10.336  -1.322  0.00  0.00    -0.303 N 
ATOM     41  H   UNK A   1      -7.478 -10.348  -0.467  0.00  0.00    +0.149 HD
ATOM     42  C   UNK A   1      -7.524 -10.185  -2.543  0.00  0.00    +0.214 C 
ATOM     43  O   UNK A   1      -6.905 -10.198  -3.604  0.00  0.00    -0.276 OA
BRANCH  42  44
ATOM     44  C   UNK A   1      -9.021  -9.951  -2.485  0.00  0.00    +0.098 C 
BRANCH  44  45
ATOM     45  C   UNK A   1      -9.756 -10.598  -3.667  0.00  0.00    +0.039 C 
BRANCH  45  46
ATOM     46  C   UNK A   1      -9.559 -12.115  -3.793  0.00  0.00    +0.161 C 
BRANCH  46  47
ATOM     47  N   UNK A   1     -10.262 -12.626  -5.013  0.00  0.00    -0.318 NA
ATOM     48  H   UNK A   1     -11.245 -12.333  -4.962  0.00  0.00    +0.119 HD
ATOM     49  H   UNK A   1      -9.892 -12.115  -5.820  0.00  0.00    +0.119 HD
ENDBRANCH  46  47
BRANCH  46  50
ATOM     50  C   UNK A   1     -10.090 -12.924  -2.590  0.00  0.00    +0.322 C 
ATOM     51  O   UNK A   1     -10.084 -12.573  -1.423  0.00  0.00    -0.249 OA
BRANCH  50  52
ATOM     52  O   UNK A   1     -10.549 -14.140  -2.995  0.00  0.00    -0.480 OA
ATOM     53  H   UNK A   1     -10.457 -14.151  -3.981  0.00  0.00    +0.295 HD
ENDBRANCH  50  52
ENDBRANCH  46  50
ENDBRANCH  45  46
ENDBRANCH  44  45
ENDBRANCH  42  44
ENDBRANCH  30  40
ENDBRANCH  29  30
ENDBRANCH  28  29
ENDBRANCH   6  28
TORSDOF 20
