REMARK  Name = 
REMARK  16 active torsions:
REMARK  status: ('A' for Active; 'I' for Inactive)
REMARK    1  A    between atoms: C_2  and  O_51
REMARK    2  A    between atoms: C_4  and  O_50
REMARK    3  A    between atoms: C_6  and  O_49
REMARK    4  A    between atoms: C_8  and  O_11
REMARK    5  A    between atoms: O_11  and  C_12
REMARK    6  A    between atoms: C_14  and  O_48
REMARK    7  A    between atoms: C_16  and  O_47
REMARK    8  A    between atoms: C_18  and  C_45
REMARK    9  A    between atoms: C_21  and  O_23
REMARK   10  A    between atoms: O_23  and  C_24
REMARK   11  A    between atoms: C_25  and  C_37
REMARK   12  A    between atoms: C_29  and  O_36
REMARK   13  A    between atoms: C_31  and  O_35
REMARK   14  A    between atoms: C_39  and  O_44
REMARK   15  A    between atoms: C_40  and  O_43
REMARK   16  A    between atoms: C_45  and  O_46
REMARK                            x       y       z     vdW  Elec       q    Type
REMARK                         _______ _______ _______ _____ _____    ______ ____
ROOT
ATOM      1  C   UNL     1      -0.762  -1.214  -2.072  0.00  0.00    +0.221 C 
ATOM      2  C   UNL     1      -0.591  -1.458  -3.634  0.00  0.00    +0.340 C 
ATOM      3  O   UNL     1      -0.076  -0.233  -4.213  0.00  0.00    -0.331 OA
ATOM      4  C   UNL     1      -1.038   0.848  -4.163  0.00  0.00    +0.179 C 
ATOM      5  C   UNL     1      -1.364   1.142  -2.705  0.00  0.00    +0.177 C 
ATOM      6  C   UNL     1      -1.972  -0.155  -2.139  0.00  0.00    +0.180 C 
ENDROOT
BRANCH   6   7
ATOM      7  O   UNL     1      -2.782   0.245  -1.032  0.00  0.00    -0.386 OA
ATOM      8  H   UNL     1      -3.363  -0.510  -0.803  0.00  0.00    +0.210 HD
ENDBRANCH   6   7
BRANCH   5   9
ATOM      9  O   UNL     1      -2.280   2.218  -2.546  0.00  0.00    -0.386 OA
ATOM     10  H   UNL     1      -2.625   2.097  -1.634  0.00  0.00    +0.210 HD
ENDBRANCH   5   9
BRANCH   4  11
ATOM     11  C   UNL     1      -0.537   2.104  -4.885  0.00  0.00    +0.190 C 
BRANCH  11  12
ATOM     12  O   UNL     1      -0.446   1.909  -6.298  0.00  0.00    -0.392 OA
ATOM     13  H   UNL     1      -0.974   1.120  -6.526  0.00  0.00    +0.210 HD
ENDBRANCH  11  12
ENDBRANCH   4  11
BRANCH   2  14
ATOM     14  O   UNL     1       0.202  -2.596  -4.007  0.00  0.00    -0.453 OA
BRANCH  14  15
ATOM     15  C   UNL     1      -0.164  -3.240  -5.209  0.00  0.00    +0.214 A 
ATOM     16  C   UNL     1      -0.957  -2.506  -6.276  0.00  0.00    +0.238 A 
ATOM     17  O   UNL     1      -1.384  -1.368  -6.124  0.00  0.00    -0.283 OA
ATOM     18  C   UNL     1      -1.259  -3.193  -7.533  0.00  0.00    +0.109 A 
ATOM     19  C   UNL     1      -0.810  -4.487  -7.684  0.00  0.00    +0.147 A 
ATOM     20  C   UNL     1      -1.030  -5.169  -8.890  0.00  0.00    +0.092 A 
ATOM     21  C   UNL     1      -1.723  -4.538  -9.916  0.00  0.00    +0.124 A 
ATOM     22  C   UNL     1      -2.240  -3.254  -9.754  0.00  0.00    +0.091 A 
ATOM     23  O   UNL     1      -0.164  -5.167  -6.685  0.00  0.00    -0.451 OA
ATOM     24  C   UNL     1      -2.004  -2.582  -8.559  0.00  0.00    +0.135 A 
ATOM     25  C   UNL     1       0.117  -4.546  -5.451  0.00  0.00    +0.181 A 
BRANCH  25  26
ATOM     26  C   UNL     1       0.700  -5.543  -4.473  0.00  0.00    +0.025 A 
ATOM     27  C   UNL     1       0.863  -6.899  -4.856  0.00  0.00    +0.015 A 
ATOM     28  C   UNL     1       1.291  -7.889  -3.957  0.00  0.00    +0.050 A 
ATOM     29  C   UNL     1       1.562  -7.538  -2.648  0.00  0.00    +0.158 A 
ATOM     30  C   UNL     1       1.442  -6.216  -2.242  0.00  0.00    +0.159 A 
ATOM     31  C   UNL     1       1.026  -5.230  -3.140  0.00  0.00    +0.060 A 
BRANCH  29  32
ATOM     32  O   UNL     1       1.931  -8.500  -1.755  0.00  0.00    -0.503 OA
ATOM     33  H   UNL     1       2.042  -8.021  -0.909  0.00  0.00    +0.292 HD
ENDBRANCH  29  32
BRANCH  30  34
ATOM     34  O   UNL     1       1.718  -5.921  -0.934  0.00  0.00    -0.503 OA
ATOM     35  H   UNL     1       1.671  -4.953  -0.826  0.00  0.00    +0.292 HD
ENDBRANCH  30  34
ENDBRANCH  25  26
BRANCH  24  36
ATOM     36  O   UNL     1      -2.544  -1.335  -8.416  0.00  0.00    -0.506 OA
ATOM     37  H   UNL     1      -3.014  -1.061  -9.220  0.00  0.00    +0.292 HD
ENDBRANCH  24  36
BRANCH  21  38
ATOM     38  O   UNL     1      -1.961  -5.139 -11.119  0.00  0.00    -0.507 OA
ATOM     39  H   UNL     1      -1.526  -6.003 -11.131  0.00  0.00    +0.292 HD
ENDBRANCH  21  38
ENDBRANCH  14  15
ENDBRANCH   2  14
BRANCH   1  40
ATOM     40  O   UNL     1      -0.981  -2.457  -1.387  0.00  0.00    -0.337 OA
BRANCH  40  43
ATOM     41  C   UNL     1       1.064  -0.957   0.796  0.00  0.00    +0.197 C 
ATOM     42  O   UNL     1       0.861  -2.272   0.267  0.00  0.00    -0.346 OA
ATOM     43  C   UNL     1      -0.465  -2.700  -0.042  0.00  0.00    +0.282 C 
ATOM     44  C   UNL     1      -1.468  -2.360   1.080  0.00  0.00    +0.201 C 
ATOM     45  C   UNL     1      -1.439  -0.856   1.155  0.00  0.00    +0.178 C 
ATOM     46  C   UNL     1      -0.109  -0.200   1.435  0.00  0.00    +0.171 C 
BRANCH  46  47
ATOM     47  O   UNL     1      -0.183   1.122   0.845  0.00  0.00    -0.387 OA
ATOM     48  H   UNL     1       0.643   1.598   1.032  0.00  0.00    +0.210 HD
ENDBRANCH  46  47
BRANCH  45  49
ATOM     49  O   UNL     1      -2.524  -0.247   1.839  0.00  0.00    -0.386 OA
ATOM     50  H   UNL     1      -2.740   0.534   1.285  0.00  0.00    +0.210 HD
ENDBRANCH  45  49
BRANCH  44  51
ATOM     51  O   UNL     1      -2.779  -2.836   0.730  0.00  0.00    -0.384 OA
ATOM     52  H   UNL     1      -2.732  -3.807   0.671  0.00  0.00    +0.210 HD
ENDBRANCH  44  51
ENDBRANCH  40  43
ENDBRANCH   1  40
TORSDOF 16
