REMARK  Name = 
REMARK  15 active torsions:
REMARK  status: ('A' for Active; 'I' for Inactive)
REMARK    1  A    between atoms: C_3  and  O_43
REMARK    2  A    between atoms: C_4  and  O_42
REMARK    3  A    between atoms: C_6  and  C_7
REMARK    4  A    between atoms: C_8  and  O_20
REMARK    5  A    between atoms: C_12  and  O_19
REMARK    6  A    between atoms: C_14  and  O_18
REMARK    7  A    between atoms: O_20  and  C_21
REMARK    8  A    between atoms: C_23  and  O_41
REMARK    9  A    between atoms: C_25  and  O_40
REMARK   10  A    between atoms: C_27  and  O_39
REMARK   11  A    between atoms: C_29  and  C_32
REMARK   12  A    between atoms: C_32  and  O_33
REMARK   13  A    between atoms: O_33  and  C_34
REMARK   14  A    between atoms: C_34  and  C_36
REMARK   15  A    between atoms: C_36  and  O_38
REMARK                            x       y       z     vdW  Elec       q    Type
REMARK                         _______ _______ _______ _____ _____    ______ ____
ROOT
ATOM      1  C   UNL     1      -1.397  -2.692   0.768  0.00  0.00    +0.181 A 
ATOM      2  O   UNL     1      -0.680  -3.882   0.956  0.00  0.00    -0.451 OA
ATOM      3  C   UNL     1      -1.182  -5.055   0.464  0.00  0.00    +0.147 A 
ATOM      4  C   UNL     1      -2.495  -5.176   0.052  0.00  0.00    +0.109 A 
ATOM      5  C   UNL     1      -3.010  -6.383  -0.437  0.00  0.00    +0.135 A 
ATOM      6  C   UNL     1      -2.191  -7.498  -0.506  0.00  0.00    +0.091 A 
ATOM      7  C   UNL     1      -0.867  -7.384  -0.092  0.00  0.00    +0.124 A 
ATOM      8  C   UNL     1      -3.325  -3.999   0.115  0.00  0.00    +0.238 A 
ATOM      9  O   UNL     1      -4.521  -4.181  -0.101  0.00  0.00    -0.283 OA
ATOM     10  C   UNL     1      -0.352  -6.170   0.383  0.00  0.00    +0.092 A 
ATOM     11  C   UNL     1      -2.692  -2.665   0.356  0.00  0.00    +0.214 A 
ENDROOT
BRANCH   1  13
ATOM     12  C   UNL     1      -0.332  -0.571  -0.061  0.00  0.00    +0.015 A 
ATOM     13  C   UNL     1      -0.479  -1.525   0.961  0.00  0.00    +0.025 A 
ATOM     14  C   UNL     1       0.463  -1.510   2.015  0.00  0.00    +0.060 A 
ATOM     15  C   UNL     1       1.560  -0.646   1.969  0.00  0.00    +0.159 A 
ATOM     16  C   UNL     1       1.744   0.211   0.891  0.00  0.00    +0.158 A 
ATOM     17  C   UNL     1       0.780   0.282  -0.102  0.00  0.00    +0.050 A 
BRANCH  15  18
ATOM     18  O   UNL     1       2.507  -0.690   2.953  0.00  0.00    -0.503 OA
ATOM     19  H   UNL     1       3.182  -0.031   2.677  0.00  0.00    +0.292 HD
ENDBRANCH  15  18
BRANCH  16  20
ATOM     20  O   UNL     1       2.910   0.923   0.828  0.00  0.00    -0.503 OA
ATOM     21  H   UNL     1       3.026   1.230  -0.089  0.00  0.00    +0.292 HD
ENDBRANCH  16  20
ENDBRANCH   1  13
BRANCH   5  22
ATOM     22  O   UNL     1      -4.299  -6.540  -0.869  0.00  0.00    -0.506 OA
ATOM     23  H   UNL     1      -4.785  -5.700  -0.690  0.00  0.00    +0.292 HD
ENDBRANCH   5  22
BRANCH   7  24
ATOM     24  O   UNL     1      -0.040  -8.451  -0.137  0.00  0.00    -0.507 OA
ATOM     25  H   UNL     1      -0.565  -9.237  -0.391  0.00  0.00    +0.292 HD
ENDBRANCH   7  24
BRANCH  11  26
ATOM     26  O   UNL     1      -3.408  -1.487   0.132  0.00  0.00    -0.453 OA
BRANCH  26  27
ATOM     27  C   UNL     1      -4.774  -1.624  -0.355  0.00  0.00    +0.340 C 
ATOM     28  O   UNL     1      -5.116  -0.397  -0.998  0.00  0.00    -0.330 OA
ATOM     29  C   UNL     1      -6.325   0.313  -0.700  0.00  0.00    +0.191 C 
ATOM     30  C   UNL     1      -6.976   0.106   0.691  0.00  0.00    +0.178 C 
ATOM     31  C   UNL     1      -6.093  -0.746   1.592  0.00  0.00    +0.180 C 
ATOM     32  C   UNL     1      -5.718  -2.002   0.813  0.00  0.00    +0.214 C 
BRANCH  30  33
ATOM     33  O   UNL     1      -8.272  -0.504   0.505  0.00  0.00    -0.386 OA
ATOM     34  H   UNL     1      -8.207  -1.448   0.769  0.00  0.00    +0.210 HD
ENDBRANCH  30  33
BRANCH  31  35
ATOM     35  O   UNL     1      -4.957  -0.016   2.052  0.00  0.00    -0.386 OA
ATOM     36  H   UNL     1      -4.345   0.144   1.308  0.00  0.00    +0.210 HD
ENDBRANCH  31  35
BRANCH  32  37
ATOM     37  O   UNL     1      -6.923  -2.657   0.357  0.00  0.00    -0.383 OA
ATOM     38  H   UNL     1      -6.992  -2.543  -0.611  0.00  0.00    +0.210 HD
ENDBRANCH  32  37
BRANCH  29  39
ATOM     39  C   UNL     1      -5.898   1.778  -0.885  0.00  0.00    +0.267 C 
BRANCH  39  40
ATOM     40  O   UNL     1      -6.941   2.713  -0.617  0.00  0.00    -0.454 OA
BRANCH  40  41
ATOM     41  C   UNL     1      -7.825   2.893  -1.606  0.00  0.00    +0.417 C 
ATOM     42  O   UNL     1      -7.846   2.368  -2.710  0.00  0.00    -0.238 OA
BRANCH  41  43
ATOM     43  C   UNL     1      -8.907   3.918  -1.215  0.00  0.00    +0.415 C 
ATOM     44  O   UNL     1      -8.964   4.481  -0.142  0.00  0.00    -0.238 OA
BRANCH  43  45
ATOM     45  O   UNL     1      -9.764   4.102  -2.241  0.00  0.00    -0.473 OA
ATOM     46  H   UNL     1      -9.510   3.526  -2.999  0.00  0.00    +0.296 HD
ENDBRANCH  43  45
ENDBRANCH  41  43
ENDBRANCH  40  41
ENDBRANCH  39  40
ENDBRANCH  29  39
ENDBRANCH  26  27
ENDBRANCH  11  26
TORSDOF 15
