REMARK  Name = 
REMARK  18 active torsions:
REMARK  status: ('A' for Active; 'I' for Inactive)
REMARK    1  A    between atoms: C_1  and  C_2
REMARK    2  A    between atoms: C_2  and  O_4
REMARK    3  A    between atoms: O_4  and  C_5
REMARK    4  A    between atoms: C_7  and  O_54
REMARK    5  A    between atoms: C_9  and  O_53
REMARK    6  A    between atoms: C_11  and  C_51
REMARK    7  A    between atoms: C_14  and  O_16
REMARK    8  A    between atoms: O_16  and  C_17
REMARK    9  A    between atoms: C_18  and  C_43
REMARK   10  A    between atoms: C_22  and  O_29
REMARK   11  A    between atoms: C_24  and  O_28
REMARK   12  A    between atoms: O_29  and  C_30
REMARK   13  A    between atoms: C_32  and  O_42
REMARK   14  A    between atoms: C_34  and  O_41
REMARK   15  A    between atoms: C_36  and  O_40
REMARK   16  A    between atoms: C_45  and  O_50
REMARK   17  A    between atoms: C_46  and  O_49
REMARK   18  A    between atoms: C_51  and  O_52
REMARK                            x       y       z     vdW  Elec       q    Type
REMARK                         _______ _______ _______ _____ _____    ______ ____
ROOT
ATOM      1  C   UNL     1       5.219   1.658   1.647  0.00  0.00    +0.214 A 
ATOM      2  C   UNL     1       4.848   1.949   3.077  0.00  0.00    +0.238 A 
ATOM      3  O   UNL     1       3.939   1.356   3.643  0.00  0.00    -0.283 OA
ATOM      4  C   UNL     1       5.610   2.945   3.824  0.00  0.00    +0.109 A 
ATOM      5  C   UNL     1       6.723   3.480   3.207  0.00  0.00    +0.147 A 
ATOM      6  C   UNL     1       7.488   4.443   3.870  0.00  0.00    +0.093 A 
ATOM      7  C   UNL     1       7.132   4.878   5.154  0.00  0.00    +0.131 A 
ATOM      8  C   UNL     1       6.038   4.300   5.796  0.00  0.00    +0.092 A 
ATOM      9  O   UNL     1       7.139   3.105   1.960  0.00  0.00    -0.451 OA
ATOM     10  C   UNL     1       5.270   3.347   5.127  0.00  0.00    +0.135 A 
ATOM     11  C   UNL     1       6.373   2.218   1.197  0.00  0.00    +0.181 A 
ENDROOT
BRANCH  11  12
ATOM     12  C   UNL     1       7.072   2.019  -0.112  0.00  0.00    +0.025 A 
ATOM     13  C   UNL     1       6.925   2.952  -1.161  0.00  0.00    +0.015 A 
ATOM     14  C   UNL     1       7.836   2.996  -2.235  0.00  0.00    +0.050 A 
ATOM     15  C   UNL     1       8.906   2.116  -2.264  0.00  0.00    +0.158 A 
ATOM     16  C   UNL     1       9.039   1.151  -1.270  0.00  0.00    +0.159 A 
ATOM     17  C   UNL     1       8.136   1.095  -0.201  0.00  0.00    +0.060 A 
BRANCH  16  18
ATOM     18  O   UNL     1      10.118   0.309  -1.365  0.00  0.00    -0.503 OA
ATOM     19  H   UNL     1       9.992  -0.419  -0.734  0.00  0.00    +0.292 HD
ENDBRANCH  16  18
BRANCH  15  20
ATOM     20  O   UNL     1       9.847   2.232  -3.248  0.00  0.00    -0.503 OA
ATOM     21  H   UNL     1      10.559   1.610  -2.997  0.00  0.00    +0.292 HD
ENDBRANCH  15  20
ENDBRANCH  11  12
BRANCH  10  22
ATOM     22  O   UNL     1       4.175   2.826   5.755  0.00  0.00    -0.506 OA
ATOM     23  H   UNL     1       4.123   3.117   6.679  0.00  0.00    +0.292 HD
ENDBRANCH  10  22
BRANCH   7  24
ATOM     24  O   UNL     1       7.809   5.853   5.856  0.00  0.00    -0.461 OA
BRANCH  24  25
ATOM     25  C   UNL     1       8.281   6.918   5.018  0.00  0.00    +0.339 C 
ATOM     26  O   UNL     1       9.542   6.611   4.406  0.00  0.00    -0.337 OA
ATOM     27  C   UNL     1      10.630   6.585   5.328  0.00  0.00    +0.198 C 
ATOM     28  C   UNL     1      10.858   7.987   5.879  0.00  0.00    +0.171 C 
ATOM     29  C   UNL     1       9.602   8.442   6.633  0.00  0.00    +0.180 C 
ATOM     30  C   UNL     1       8.338   8.272   5.771  0.00  0.00    +0.214 C 
BRANCH  30  31
ATOM     31  O   UNL     1       8.310   9.341   4.805  0.00  0.00    -0.383 OA
ATOM     32  H   UNL     1       8.881   9.086   4.055  0.00  0.00    +0.210 HD
ENDBRANCH  30  31
BRANCH  29  33
ATOM     33  O   UNL     1       9.524   7.743   7.883  0.00  0.00    -0.386 OA
ATOM     34  H   UNL     1       9.103   6.872   7.740  0.00  0.00    +0.210 HD
ENDBRANCH  29  33
BRANCH  28  35
ATOM     35  O   UNL     1      12.003   8.010   6.727  0.00  0.00    -0.387 OA
ATOM     36  H   UNL     1      11.670   7.965   7.645  0.00  0.00    +0.210 HD
ENDBRANCH  28  35
ENDBRANCH  24  25
ENDBRANCH   7  24
BRANCH   1  37
ATOM     37  O   UNL     1       4.428   0.783   0.911  0.00  0.00    -0.452 OA
BRANCH  37  39
ATOM     38  C   UNL     1       2.334  -0.186   2.006  0.00  0.00    +0.275 C 
ATOM     39  C   UNL     1       2.972   0.907   1.065  0.00  0.00    +0.352 C 
ATOM     40  O   UNL     1       2.569   2.252   1.411  0.00  0.00    -0.330 OA
ATOM     41  C   UNL     1       1.146   2.444   1.498  0.00  0.00    +0.179 C 
ATOM     42  C   UNL     1       0.547   1.530   2.576  0.00  0.00    +0.178 C 
ATOM     43  C   UNL     1       0.824   0.062   2.191  0.00  0.00    +0.192 C 
BRANCH  43  44
ATOM     44  O   UNL     1       0.257  -0.804   3.186  0.00  0.00    -0.385 OA
ATOM     45  H   UNL     1       0.445  -1.720   2.926  0.00  0.00    +0.210 HD
ENDBRANCH  43  44
BRANCH  42  46
ATOM     46  O   UNL     1       1.075   1.874   3.868  0.00  0.00    -0.386 OA
ATOM     47  H   UNL     1       2.056   1.807   3.849  0.00  0.00    +0.210 HD
ENDBRANCH  42  46
BRANCH  41  48
ATOM     48  C   UNL     1       0.851   3.925   1.784  0.00  0.00    +0.190 C 
BRANCH  48  49
ATOM     49  O   UNL     1      -0.538   4.215   1.642  0.00  0.00    -0.392 OA
ATOM     50  H   UNL     1      -0.978   3.942   2.468  0.00  0.00    +0.210 HD
ENDBRANCH  48  49
ENDBRANCH  41  48
BRANCH  38  51
ATOM     51  O   UNL     1       2.660  -1.563   1.664  0.00  0.00    -0.452 OA
BRANCH  51  53
ATOM     52  C   UNL     1       2.645  -3.568   0.472  0.00  0.00    +0.136 C 
ATOM     53  C   UNL     1       2.193  -2.132   0.530  0.00  0.00    +0.304 C 
ATOM     54  O   UNL     1       1.521  -1.567  -0.310  0.00  0.00    -0.251 OA
ENDBRANCH  51  53
ENDBRANCH  38  51
ENDBRANCH  37  39
ENDBRANCH   1  37
TORSDOF 17
