REMARK  Name = 
REMARK  18 active torsions:
REMARK  status: ('A' for Active; 'I' for Inactive)
REMARK    1  A    between atoms: C_3  and  O_54
REMARK    2  A    between atoms: C_4  and  O_53
REMARK    3  A    between atoms: C_6  and  C_7
REMARK    4  A    between atoms: C_8  and  O_36
REMARK    5  A    between atoms: C_12  and  O_35
REMARK    6  A    between atoms: C_14  and  O_18
REMARK    7  A    between atoms: O_18  and  C_19
REMARK    8  A    between atoms: C_21  and  O_34
REMARK    9  A    between atoms: C_23  and  O_33
REMARK   10  A    between atoms: C_25  and  O_32
REMARK   11  A    between atoms: C_27  and  C_30
REMARK   12  A    between atoms: C_30  and  O_31
REMARK   13  A    between atoms: O_36  and  C_37
REMARK   14  A    between atoms: C_39  and  O_52
REMARK   15  A    between atoms: C_41  and  O_51
REMARK   16  A    between atoms: C_43  and  O_50
REMARK   17  A    between atoms: C_45  and  C_48
REMARK   18  A    between atoms: C_48  and  O_49
REMARK                            x       y       z     vdW  Elec       q    Type
REMARK                         _______ _______ _______ _____ _____    ______ ____
ROOT
ATOM      1  C   UNL     1      -1.299  -2.645   0.862  0.00  0.00    +0.181 A 
ATOM      2  O   UNL     1      -0.638  -3.871   0.916  0.00  0.00    -0.451 OA
ATOM      3  C   UNL     1      -1.218  -4.981   0.368  0.00  0.00    +0.147 A 
ATOM      4  C   UNL     1      -2.543  -5.030  -0.012  0.00  0.00    +0.109 A 
ATOM      5  C   UNL     1      -3.099  -6.249  -0.425  0.00  0.00    +0.135 A 
ATOM      6  C   UNL     1      -2.320  -7.413  -0.454  0.00  0.00    +0.092 A 
ATOM      7  C   UNL     1      -0.974  -7.364  -0.077  0.00  0.00    +0.131 A 
ATOM      8  C   UNL     1      -3.291  -3.769   0.004  0.00  0.00    +0.238 A 
ATOM      9  O   UNL     1      -4.491  -3.768  -0.253  0.00  0.00    -0.283 OA
ATOM     10  C   UNL     1      -0.422  -6.122   0.271  0.00  0.00    +0.093 A 
ATOM     11  C   UNL     1      -2.518  -2.513   0.299  0.00  0.00    +0.214 A 
ENDROOT
BRANCH   1  13
ATOM     12  C   UNL     1       0.906  -1.714   1.670  0.00  0.00    +0.015 A 
ATOM     13  C   UNL     1      -0.481  -1.541   1.473  0.00  0.00    +0.025 A 
ATOM     14  C   UNL     1      -1.040  -0.322   1.903  0.00  0.00    +0.060 A 
ATOM     15  C   UNL     1      -0.234   0.691   2.415  0.00  0.00    +0.159 A 
ATOM     16  C   UNL     1       1.119   0.483   2.629  0.00  0.00    +0.158 A 
ATOM     17  C   UNL     1       1.700  -0.722   2.265  0.00  0.00    +0.050 A 
BRANCH  16  18
ATOM     18  O   UNL     1       1.834   1.487   3.217  0.00  0.00    -0.503 OA
ATOM     19  H   UNL     1       2.648   1.099   3.583  0.00  0.00    +0.292 HD
ENDBRANCH  16  18
BRANCH  15  20
ATOM     20  O   UNL     1      -0.792   1.904   2.703  0.00  0.00    -0.503 OA
ATOM     21  H   UNL     1      -0.045   2.460   3.003  0.00  0.00    +0.292 HD
ENDBRANCH  15  20
ENDBRANCH   1  13
BRANCH   5  22
ATOM     22  O   UNL     1      -4.413  -6.368  -0.792  0.00  0.00    -0.506 OA
ATOM     23  H   UNL     1      -4.852  -5.495  -0.674  0.00  0.00    +0.292 HD
ENDBRANCH   5  22
BRANCH  11  24
ATOM     24  O   UNL     1      -3.169  -1.337  -0.020  0.00  0.00    -0.453 OA
BRANCH  24  25
ATOM     25  C   UNL     1      -2.426  -0.454  -0.886  0.00  0.00    +0.340 C 
ATOM     26  O   UNL     1      -2.967   0.841  -0.674  0.00  0.00    -0.331 OA
ATOM     27  C   UNL     1      -3.356   1.712  -1.740  0.00  0.00    +0.179 C 
ATOM     28  C   UNL     1      -3.550   1.084  -3.134  0.00  0.00    +0.177 C 
ATOM     29  C   UNL     1      -3.650  -0.441  -3.067  0.00  0.00    +0.180 C 
ATOM     30  C   UNL     1      -2.426  -0.972  -2.335  0.00  0.00    +0.214 C 
BRANCH  30  31
ATOM     31  O   UNL     1      -1.220  -0.567  -3.034  0.00  0.00    -0.383 OA
ATOM     32  H   UNL     1      -0.759   0.121  -2.497  0.00  0.00    +0.210 HD
ENDBRANCH  30  31
BRANCH  29  33
ATOM     33  O   UNL     1      -4.882  -0.855  -2.479  0.00  0.00    -0.386 OA
ATOM     34  H   UNL     1      -4.821  -0.835  -1.502  0.00  0.00    +0.210 HD
ENDBRANCH  29  33
BRANCH  28  35
ATOM     35  O   UNL     1      -2.451   1.504  -3.967  0.00  0.00    -0.386 OA
ATOM     36  H   UNL     1      -1.894   0.721  -4.165  0.00  0.00    +0.210 HD
ENDBRANCH  28  35
BRANCH  27  37
ATOM     37  C   UNL     1      -4.671   2.383  -1.294  0.00  0.00    +0.190 C 
BRANCH  37  38
ATOM     38  O   UNL     1      -4.543   3.076  -0.053  0.00  0.00    -0.392 OA
ATOM     39  H   UNL     1      -3.700   3.558  -0.059  0.00  0.00    +0.210 HD
ENDBRANCH  37  38
ENDBRANCH  27  37
ENDBRANCH  24  25
ENDBRANCH  11  24
BRANCH   7  40
ATOM     40  O   UNL     1      -0.293  -8.565  -0.040  0.00  0.00    -0.461 OA
BRANCH  40  41
ATOM     41  C   UNL     1       0.896  -8.554   0.780  0.00  0.00    +0.339 C 
ATOM     42  O   UNL     1       2.063  -8.247   0.024  0.00  0.00    -0.331 OA
ATOM     43  C   UNL     1       2.931  -9.325  -0.350  0.00  0.00    +0.179 C 
ATOM     44  C   UNL     1       3.273 -10.191   0.874  0.00  0.00    +0.177 C 
ATOM     45  C   UNL     1       2.005 -10.828   1.446  0.00  0.00    +0.180 C 
ATOM     46  C   UNL     1       0.969  -9.745   1.775  0.00  0.00    +0.214 C 
BRANCH  46  47
ATOM     47  O   UNL     1       1.350  -9.217   3.076  0.00  0.00    -0.383 OA
ATOM     48  H   UNL     1       2.190  -8.727   2.929  0.00  0.00    +0.210 HD
ENDBRANCH  46  47
BRANCH  45  49
ATOM     49  O   UNL     1       1.511 -11.831   0.562  0.00  0.00    -0.386 OA
ATOM     50  H   UNL     1       0.574 -11.997   0.768  0.00  0.00    +0.210 HD
ENDBRANCH  45  49
BRANCH  44  51
ATOM     51  O   UNL     1       3.877  -9.357   1.885  0.00  0.00    -0.386 OA
ATOM     52  H   UNL     1       4.235  -9.948   2.573  0.00  0.00    +0.210 HD
ENDBRANCH  44  51
BRANCH  43  53
ATOM     53  C   UNL     1       2.409 -10.151  -1.541  0.00  0.00    +0.190 C 
BRANCH  53  54
ATOM     54  O   UNL     1       2.335  -9.360  -2.725  0.00  0.00    -0.392 OA
ATOM     55  H   UNL     1       1.899  -9.913  -3.398  0.00  0.00    +0.210 HD
ENDBRANCH  53  54
ENDBRANCH  43  53
ENDBRANCH  40  41
ENDBRANCH   7  40
TORSDOF 18
